MODEL 1
REMARK VINA RESULT:      -5.2      0.000      0.000
REMARK  6 active torsions:
REMARK  status: ('A' for Active; 'I' for Inactive)
REMARK    1  A    between atoms: O_2  and  C_3 
REMARK    2  A    between atoms: C_3  and  C_4 
REMARK    3  A    between atoms: C_4  and  O_5 
REMARK    4  A    between atoms: O_5  and  C_6 
REMARK    5  A    between atoms: C_9  and  N_10 
REMARK       I    between atoms: N_10  and  C_11 
REMARK    6  A    between atoms: C_11  and  C_13 
ROOT
HETATM    1  C   UNL     1     -43.266 -53.446  12.692  1.00  0.00     0.141 A 
HETATM    2  C   UNL     1     -42.745 -53.472  13.972  1.00  0.00     0.058 A 
HETATM    3  C   UNL     1     -41.624 -52.696  14.252  1.00  0.00     0.035 A 
HETATM    4  C   UNL     1     -41.059 -51.897  13.261  1.00  0.00     0.050 A 
HETATM    5  C   UNL     1     -41.684 -51.925  12.011  1.00  0.00     0.119 A 
HETATM    6  N   UNL     1     -42.770 -52.684  11.697  1.00  0.00    -0.345 N 
ATOM      7  HN  UNL     1     -43.183 -52.677  10.765  1.00  0.00     0.167 HD
ENDROOT
BRANCH   4   8
HETATM    8  N   UNL     1     -39.927 -51.073  13.476  1.00  0.00    -0.326 N 
HETATM    9  C   UNL     1     -38.608 -51.504  13.537  1.00  0.00     0.226 C 
HETATM   10  O   UNL     1     -38.251 -52.671  13.353  1.00  0.00    -0.273 OA
HETATM   11  H   UNL     1     -40.092 -50.074  13.532  1.00  0.00     0.169 HD
BRANCH   9  12
HETATM   12  C   UNL     1     -37.569 -50.388  13.830  1.00  0.00     0.078 C 
HETATM   13  C   UNL     1     -37.508 -49.878  15.299  1.00  0.00     0.014 C 
HETATM   14  C   UNL     1     -37.317 -48.455  14.745  1.00  0.00     0.002 C 
HETATM   15  C   UNL     1     -37.983 -48.936  13.444  1.00  0.00     0.014 C 
ENDBRANCH   9  12
ENDBRANCH   4   8
BRANCH   1  16
HETATM   16  O   UNL     1     -44.422 -54.168  12.515  1.00  0.00    -0.334 OA
BRANCH  16  17
HETATM   17  C   UNL     1     -45.425 -53.915  13.496  1.00  0.00     0.203 C 
BRANCH  17  18
HETATM   18  C   UNL     1     -46.182 -52.671  13.035  1.00  0.00     0.193 C 
BRANCH  18  19
HETATM   19  O   UNL     1     -46.367 -52.683  11.621  1.00  0.00    -0.394 OA
HETATM   20  C   UNL     1     -47.274 -51.665  11.214  1.00  0.00     0.201 C 
ENDBRANCH  18  19
ENDBRANCH  17  18
ENDBRANCH  16  17
ENDBRANCH   1  16
TORSDOF 6
ENDMDL
MODEL 2
REMARK VINA RESULT:      -5.1      5.361      7.479
REMARK  6 active torsions:
REMARK  status: ('A' for Active; 'I' for Inactive)
REMARK    1  A    between atoms: O_2  and  C_3 
REMARK    2  A    between atoms: C_3  and  C_4 
REMARK    3  A    between atoms: C_4  and  O_5 
REMARK    4  A    between atoms: O_5  and  C_6 
REMARK    5  A    between atoms: C_9  and  N_10 
REMARK       I    between atoms: N_10  and  C_11 
REMARK    6  A    between atoms: C_11  and  C_13 
ROOT
HETATM    1  C   UNL     1     -41.149 -46.077  10.505  1.00  0.00     0.141 A 
HETATM    2  C   UNL     1     -40.150 -46.549  11.335  1.00  0.00     0.058 A 
HETATM    3  C   UNL     1     -40.077 -47.916  11.581  1.00  0.00     0.035 A 
HETATM    4  C   UNL     1     -40.984 -48.786  10.981  1.00  0.00     0.050 A 
HETATM    5  C   UNL     1     -41.935 -48.205  10.137  1.00  0.00     0.119 A 
HETATM    6  N   UNL     1     -42.047 -46.871   9.888  1.00  0.00    -0.345 N 
ATOM      7  HN  UNL     1     -42.767 -46.495   9.271  1.00  0.00     0.167 HD
ENDROOT
BRANCH   4   8
HETATM    8  N   UNL     1     -40.964 -50.189  11.176  1.00  0.00    -0.326 N 
HETATM    9  C   UNL     1     -41.689 -50.888  12.132  1.00  0.00     0.226 C 
HETATM   10  O   UNL     1     -42.497 -50.368  12.906  1.00  0.00    -0.273 OA
HETATM   11  H   UNL     1     -40.415 -50.734  10.520  1.00  0.00     0.169 HD
BRANCH   9  12
HETATM   12  C   UNL     1     -41.439 -52.421  12.151  1.00  0.00     0.078 C 
HETATM   13  C   UNL     1     -42.513 -53.281  12.876  1.00  0.00     0.014 C 
HETATM   14  C   UNL     1     -41.372 -54.147  13.436  1.00  0.00     0.002 C 
HETATM   15  C   UNL     1     -40.435 -52.946  13.221  1.00  0.00     0.014 C 
ENDBRANCH   9  12
ENDBRANCH   4   8
BRANCH   1  16
HETATM   16  O   UNL     1     -41.104 -44.729  10.240  1.00  0.00    -0.334 OA
BRANCH  16  17
HETATM   17  C   UNL     1     -40.204 -44.000  11.071  1.00  0.00     0.203 C 
BRANCH  17  18
HETATM   18  C   UNL     1     -40.914 -42.703  11.451  1.00  0.00     0.193 C 
BRANCH  18  19
HETATM   19  O   UNL     1     -41.975 -42.418  10.541  1.00  0.00    -0.394 OA
HETATM   20  C   UNL     1     -43.184 -42.135  11.235  1.00  0.00     0.201 C 
ENDBRANCH  18  19
ENDBRANCH  17  18
ENDBRANCH  16  17
ENDBRANCH   1  16
TORSDOF 6
ENDMDL
MODEL 3
REMARK VINA RESULT:      -5.1      3.753      5.785
REMARK  6 active torsions:
REMARK  status: ('A' for Active; 'I' for Inactive)
REMARK    1  A    between atoms: O_2  and  C_3 
REMARK    2  A    between atoms: C_3  and  C_4 
REMARK    3  A    between atoms: C_4  and  O_5 
REMARK    4  A    between atoms: O_5  and  C_6 
REMARK    5  A    between atoms: C_9  and  N_10 
REMARK       I    between atoms: N_10  and  C_11 
REMARK    6  A    between atoms: C_11  and  C_13 
ROOT
HETATM    1  C   UNL     1     -41.842 -48.380  10.902  1.00  0.00     0.141 A 
HETATM    2  C   UNL     1     -42.767 -48.575  11.910  1.00  0.00     0.058 A 
HETATM    3  C   UNL     1     -42.733 -49.768  12.626  1.00  0.00     0.035 A 
HETATM    4  C   UNL     1     -41.768 -50.730  12.338  1.00  0.00     0.050 A 
HETATM    5  C   UNL     1     -40.864 -50.418  11.319  1.00  0.00     0.119 A 
HETATM    6  N   UNL     1     -40.880 -49.269  10.587  1.00  0.00    -0.345 N 
ATOM      7  HN  UNL     1     -40.203 -49.093   9.845  1.00  0.00     0.167 HD
ENDROOT
BRANCH   4   8
HETATM    8  N   UNL     1     -41.665 -51.961  13.032  1.00  0.00    -0.326 N 
HETATM    9  C   UNL     1     -42.544 -53.031  12.924  1.00  0.00     0.226 C 
HETATM   10  O   UNL     1     -43.508 -53.062  12.154  1.00  0.00    -0.273 OA
HETATM   11  H   UNL     1     -40.845 -52.091  13.614  1.00  0.00     0.169 HD
BRANCH   9  12
HETATM   12  C   UNL     1     -42.214 -54.243  13.837  1.00  0.00     0.078 C 
HETATM   13  C   UNL     1     -43.400 -54.825  14.658  1.00  0.00     0.014 C 
HETATM   14  C   UNL     1     -42.430 -55.012  15.837  1.00  0.00     0.002 C 
HETATM   15  C   UNL     1     -41.551 -53.916  15.210  1.00  0.00     0.014 C 
ENDBRANCH   9  12
ENDBRANCH   4   8
BRANCH   1  16
HETATM   16  O   UNL     1     -41.883 -47.145  10.300  1.00  0.00    -0.334 OA
BRANCH  16  17
HETATM   17  C   UNL     1     -43.197 -46.697   9.974  1.00  0.00     0.203 C 
BRANCH  17  18
HETATM   18  C   UNL     1     -43.431 -47.064   8.510  1.00  0.00     0.193 C 
BRANCH  18  19
HETATM   19  O   UNL     1     -44.607 -47.858   8.366  1.00  0.00    -0.394 OA
HETATM   20  C   UNL     1     -45.550 -47.569   9.392  1.00  0.00     0.201 C 
ENDBRANCH  18  19
ENDBRANCH  17  18
ENDBRANCH  16  17
ENDBRANCH   1  16
TORSDOF 6
ENDMDL
MODEL 4
REMARK VINA RESULT:      -5.0      1.363      1.613
REMARK  6 active torsions:
REMARK  status: ('A' for Active; 'I' for Inactive)
REMARK    1  A    between atoms: O_2  and  C_3 
REMARK    2  A    between atoms: C_3  and  C_4 
REMARK    3  A    between atoms: C_4  and  O_5 
REMARK    4  A    between atoms: O_5  and  C_6 
REMARK    5  A    between atoms: C_9  and  N_10 
REMARK       I    between atoms: N_10  and  C_11 
REMARK    6  A    between atoms: C_11  and  C_13 
ROOT
HETATM    1  C   UNL     1     -43.739 -53.892  12.928  1.00  0.00     0.141 A 
HETATM    2  C   UNL     1     -43.020 -54.110  14.088  1.00  0.00     0.058 A 
HETATM    3  C   UNL     1     -41.869 -53.361  14.311  1.00  0.00     0.035 A 
HETATM    4  C   UNL     1     -41.469 -52.400  13.387  1.00  0.00     0.050 A 
HETATM    5  C   UNL     1     -42.285 -52.242  12.263  1.00  0.00     0.119 A 
HETATM    6  N   UNL     1     -43.407 -52.968  12.004  1.00  0.00    -0.345 N 
ATOM      7  HN  UNL     1     -43.963 -52.822  11.162  1.00  0.00     0.167 HD
ENDROOT
BRANCH   4   8
HETATM    8  N   UNL     1     -40.316 -51.592  13.552  1.00  0.00    -0.326 N 
HETATM    9  C   UNL     1     -39.008 -52.051  13.635  1.00  0.00     0.226 C 
HETATM   10  O   UNL     1     -38.679 -53.235  13.518  1.00  0.00    -0.273 OA
HETATM   11  H   UNL     1     -40.457 -50.588  13.551  1.00  0.00     0.169 HD
BRANCH   9  12
HETATM   12  C   UNL     1     -37.941 -50.946  13.863  1.00  0.00     0.078 C 
HETATM   13  C   UNL     1     -38.357 -49.774  14.799  1.00  0.00     0.014 C 
HETATM   14  C   UNL     1     -37.625 -48.816  13.844  1.00  0.00     0.002 C 
HETATM   15  C   UNL     1     -37.805 -49.872  12.741  1.00  0.00     0.014 C 
ENDBRANCH   9  12
ENDBRANCH   4   8
BRANCH   1  16
HETATM   16  O   UNL     1     -44.909 -54.606  12.820  1.00  0.00    -0.334 OA
BRANCH  16  17
HETATM   17  C   UNL     1     -45.618 -54.753  14.048  1.00  0.00     0.203 C 
BRANCH  17  18
HETATM   18  C   UNL     1     -46.482 -53.503  14.205  1.00  0.00     0.193 C 
BRANCH  18  19
HETATM   19  O   UNL     1     -46.291 -52.910  15.487  1.00  0.00    -0.394 OA
HETATM   20  C   UNL     1     -47.137 -51.779  15.660  1.00  0.00     0.201 C 
ENDBRANCH  18  19
ENDBRANCH  17  18
ENDBRANCH  16  17
ENDBRANCH   1  16
TORSDOF 6
ENDMDL
MODEL 5
REMARK VINA RESULT:      -5.0      5.481      7.923
REMARK  6 active torsions:
REMARK  status: ('A' for Active; 'I' for Inactive)
REMARK    1  A    between atoms: O_2  and  C_3 
REMARK    2  A    between atoms: C_3  and  C_4 
REMARK    3  A    between atoms: C_4  and  O_5 
REMARK    4  A    between atoms: O_5  and  C_6 
REMARK    5  A    between atoms: C_9  and  N_10 
REMARK       I    between atoms: N_10  and  C_11 
REMARK    6  A    between atoms: C_11  and  C_13 
ROOT
HETATM    1  C   UNL     1     -41.441 -46.271  10.294  1.00  0.00     0.141 A 
HETATM    2  C   UNL     1     -42.806 -46.210  10.500  1.00  0.00     0.058 A 
HETATM    3  C   UNL     1     -43.444 -47.303  11.077  1.00  0.00     0.035 A 
HETATM    4  C   UNL     1     -42.708 -48.424  11.455  1.00  0.00     0.050 A 
HETATM    5  C   UNL     1     -41.331 -48.368  11.227  1.00  0.00     0.119 A 
HETATM    6  N   UNL     1     -40.677 -47.322  10.649  1.00  0.00    -0.345 N 
ATOM      7  HN  UNL     1     -39.669 -47.334  10.495  1.00  0.00     0.167 HD
ENDROOT
BRANCH   4   8
HETATM    8  N   UNL     1     -43.287 -49.568  12.058  1.00  0.00    -0.326 N 
HETATM    9  C   UNL     1     -43.409 -49.793  13.423  1.00  0.00     0.226 C 
HETATM   10  O   UNL     1     -43.072 -48.984  14.293  1.00  0.00    -0.273 OA
HETATM   11  H   UNL     1     -43.699 -50.254  11.437  1.00  0.00     0.169 HD
BRANCH   9  12
HETATM   12  C   UNL     1     -44.044 -51.157  13.807  1.00  0.00     0.078 C 
HETATM   13  C   UNL     1     -43.649 -52.371  12.917  1.00  0.00     0.014 C 
HETATM   14  C   UNL     1     -45.106 -52.855  13.016  1.00  0.00     0.002 C 
HETATM   15  C   UNL     1     -45.505 -51.402  13.324  1.00  0.00     0.014 C 
ENDBRANCH   9  12
ENDBRANCH   4   8
BRANCH   1  16
HETATM   16  O   UNL     1     -40.871 -45.121   9.801  1.00  0.00    -0.334 OA
BRANCH  16  17
HETATM   17  C   UNL     1     -39.902 -44.533  10.666  1.00  0.00     0.203 C 
BRANCH  17  18
HETATM   18  C   UNL     1     -40.608 -43.397  11.403  1.00  0.00     0.193 C 
BRANCH  18  19
HETATM   19  O   UNL     1     -41.471 -42.679  10.524  1.00  0.00    -0.394 OA
HETATM   20  C   UNL     1     -42.732 -42.429  11.134  1.00  0.00     0.201 C 
ENDBRANCH  18  19
ENDBRANCH  17  18
ENDBRANCH  16  17
ENDBRANCH   1  16
TORSDOF 6
ENDMDL
MODEL 6
REMARK VINA RESULT:      -5.0      2.020      2.875
REMARK  6 active torsions:
REMARK  status: ('A' for Active; 'I' for Inactive)
REMARK    1  A    between atoms: O_2  and  C_3 
REMARK    2  A    between atoms: C_3  and  C_4 
REMARK    3  A    between atoms: C_4  and  O_5 
REMARK    4  A    between atoms: O_5  and  C_6 
REMARK    5  A    between atoms: C_9  and  N_10 
REMARK       I    between atoms: N_10  and  C_11 
REMARK    6  A    between atoms: C_11  and  C_13 
ROOT
HETATM    1  C   UNL     1     -44.230 -52.573  12.572  1.00  0.00     0.141 A 
HETATM    2  C   UNL     1     -44.367 -51.394  13.279  1.00  0.00     0.058 A 
HETATM    3  C   UNL     1     -43.255 -50.570  13.425  1.00  0.00     0.035 A 
HETATM    4  C   UNL     1     -42.038 -50.927  12.850  1.00  0.00     0.050 A 
HETATM    5  C   UNL     1     -42.019 -52.127  12.133  1.00  0.00     0.119 A 
HETATM    6  N   UNL     1     -43.082 -52.965  11.984  1.00  0.00    -0.345 N 
ATOM      7  HN  UNL     1     -43.014 -53.837  11.459  1.00  0.00     0.167 HD
ENDROOT
BRANCH   4   8
HETATM    8  N   UNL     1     -40.868 -50.134  12.947  1.00  0.00    -0.326 N 
HETATM    9  C   UNL     1     -40.384 -49.277  11.968  1.00  0.00     0.226 C 
HETATM   10  O   UNL     1     -40.955 -49.055  10.896  1.00  0.00    -0.273 OA
HETATM   11  H   UNL     1     -40.375 -50.153  13.833  1.00  0.00     0.169 HD
BRANCH   9  12
HETATM   12  C   UNL     1     -39.051 -48.563  12.324  1.00  0.00     0.078 C 
HETATM   13  C   UNL     1     -37.943 -49.456  12.953  1.00  0.00     0.014 C 
HETATM   14  C   UNL     1     -37.602 -48.288  13.893  1.00  0.00     0.002 C 
HETATM   15  C   UNL     1     -39.030 -47.763  13.661  1.00  0.00     0.014 C 
ENDBRANCH   9  12
ENDBRANCH   4   8
BRANCH   1  16
HETATM   16  O   UNL     1     -45.390 -53.289  12.396  1.00  0.00    -0.334 OA
BRANCH  16  17
HETATM   17  C   UNL     1     -45.973 -53.765  13.607  1.00  0.00     0.203 C 
BRANCH  17  18
HETATM   18  C   UNL     1     -45.306 -55.105  13.913  1.00  0.00     0.193 C 
BRANCH  18  19
HETATM   19  O   UNL     1     -44.617 -55.058  15.161  1.00  0.00    -0.394 OA
HETATM   20  C   UNL     1     -43.208 -55.102  14.971  1.00  0.00     0.201 C 
ENDBRANCH  18  19
ENDBRANCH  17  18
ENDBRANCH  16  17
ENDBRANCH   1  16
TORSDOF 6
ENDMDL
MODEL 7
REMARK VINA RESULT:      -4.8      3.695      4.541
REMARK  6 active torsions:
REMARK  status: ('A' for Active; 'I' for Inactive)
REMARK    1  A    between atoms: O_2  and  C_3 
REMARK    2  A    between atoms: C_3  and  C_4 
REMARK    3  A    between atoms: C_4  and  O_5 
REMARK    4  A    between atoms: O_5  and  C_6 
REMARK    5  A    between atoms: C_9  and  N_10 
REMARK       I    between atoms: N_10  and  C_11 
REMARK    6  A    between atoms: C_11  and  C_13 
ROOT
HETATM    1  C   UNL     1     -42.075 -51.827  12.349  1.00  0.00     0.141 A 
HETATM    2  C   UNL     1     -42.906 -50.899  12.946  1.00  0.00     0.058 A 
HETATM    3  C   UNL     1     -42.679 -49.547  12.706  1.00  0.00     0.035 A 
HETATM    4  C   UNL     1     -41.644 -49.150  11.863  1.00  0.00     0.050 A 
HETATM    5  C   UNL     1     -40.883 -50.172  11.290  1.00  0.00     0.119 A 
HETATM    6  N   UNL     1     -41.066 -51.502  11.516  1.00  0.00    -0.345 N 
ATOM      7  HN  UNL     1     -40.476 -52.211  11.080  1.00  0.00     0.167 HD
ENDROOT
BRANCH   4   8
HETATM    8  N   UNL     1     -41.361 -47.794  11.564  1.00  0.00    -0.326 N 
HETATM    9  C   UNL     1     -41.831 -47.090  10.463  1.00  0.00     0.226 C 
HETATM   10  O   UNL     1     -42.611 -47.552   9.626  1.00  0.00    -0.273 OA
HETATM   11  H   UNL     1     -40.814 -47.279  12.245  1.00  0.00     0.169 HD
BRANCH   9  12
HETATM   12  C   UNL     1     -41.323 -45.626  10.358  1.00  0.00     0.078 C 
HETATM   13  C   UNL     1     -39.783 -45.427  10.442  1.00  0.00     0.014 C 
HETATM   14  C   UNL     1     -40.039 -44.168  11.289  1.00  0.00     0.002 C 
HETATM   15  C   UNL     1     -41.407 -44.769  11.658  1.00  0.00     0.014 C 
ENDBRANCH   9  12
ENDBRANCH   4   8
BRANCH   1  16
HETATM   16  O   UNL     1     -42.415 -53.142  12.562  1.00  0.00    -0.334 OA
BRANCH  16  17
HETATM   17  C   UNL     1     -43.801 -53.423  12.385  1.00  0.00     0.203 C 
BRANCH  17  18
HETATM   18  C   UNL     1     -44.188 -54.414  13.481  1.00  0.00     0.193 C 
BRANCH  18  19
HETATM   19  O   UNL     1     -45.545 -54.829  13.337  1.00  0.00    -0.394 OA
HETATM   20  C   UNL     1     -46.284 -54.589  14.529  1.00  0.00     0.201 C 
ENDBRANCH  18  19
ENDBRANCH  17  18
ENDBRANCH  16  17
ENDBRANCH   1  16
TORSDOF 6
ENDMDL
MODEL 8
REMARK VINA RESULT:      -4.8      4.116      6.535
REMARK  6 active torsions:
REMARK  status: ('A' for Active; 'I' for Inactive)
REMARK    1  A    between atoms: O_2  and  C_3 
REMARK    2  A    between atoms: C_3  and  C_4 
REMARK    3  A    between atoms: C_4  and  O_5 
REMARK    4  A    between atoms: O_5  and  C_6 
REMARK    5  A    between atoms: C_9  and  N_10 
REMARK       I    between atoms: N_10  and  C_11 
REMARK    6  A    between atoms: C_11  and  C_13 
ROOT
HETATM    1  C   UNL     1     -41.677 -48.496  10.984  1.00  0.00     0.141 A 
HETATM    2  C   UNL     1     -42.635 -48.659  11.966  1.00  0.00     0.058 A 
HETATM    3  C   UNL     1     -42.666 -49.856  12.675  1.00  0.00     0.035 A 
HETATM    4  C   UNL     1     -41.733 -50.855  12.406  1.00  0.00     0.050 A 
HETATM    5  C   UNL     1     -40.792 -50.573  11.412  1.00  0.00     0.119 A 
HETATM    6  N   UNL     1     -40.743 -49.421  10.687  1.00  0.00    -0.345 N 
ATOM      7  HN  UNL     1     -40.040 -49.268   9.964  1.00  0.00     0.167 HD
ENDROOT
BRANCH   4   8
HETATM    8  N   UNL     1     -41.697 -52.093  13.094  1.00  0.00    -0.326 N 
HETATM    9  C   UNL     1     -42.619 -53.123  12.964  1.00  0.00     0.226 C 
HETATM   10  O   UNL     1     -43.569 -53.107  12.176  1.00  0.00    -0.273 OA
HETATM   11  H   UNL     1     -40.894 -52.261  13.690  1.00  0.00     0.169 HD
BRANCH   9  12
HETATM   12  C   UNL     1     -42.359 -54.352  13.876  1.00  0.00     0.078 C 
HETATM   13  C   UNL     1     -43.573 -54.856  14.708  1.00  0.00     0.014 C 
HETATM   14  C   UNL     1     -42.606 -55.104  15.879  1.00  0.00     0.002 C 
HETATM   15  C   UNL     1     -41.664 -54.068  15.242  1.00  0.00     0.014 C 
ENDBRANCH   9  12
ENDBRANCH   4   8
BRANCH   1  16
HETATM   16  O   UNL     1     -41.653 -47.257  10.388  1.00  0.00    -0.334 OA
BRANCH  16  17
HETATM   17  C   UNL     1     -42.823 -46.476  10.619  1.00  0.00     0.203 C 
BRANCH  17  18
HETATM   18  C   UNL     1     -42.352 -45.039  10.835  1.00  0.00     0.193 C 
BRANCH  18  19
HETATM   19  O   UNL     1     -41.109 -44.806  10.175  1.00  0.00    -0.394 OA
HETATM   20  C   UNL     1     -40.270 -43.954  10.946  1.00  0.00     0.201 C 
ENDBRANCH  18  19
ENDBRANCH  17  18
ENDBRANCH  16  17
ENDBRANCH   1  16
TORSDOF 6
ENDMDL
MODEL 9
REMARK VINA RESULT:      -4.7      3.570      4.828
REMARK  6 active torsions:
REMARK  status: ('A' for Active; 'I' for Inactive)
REMARK    1  A    between atoms: O_2  and  C_3 
REMARK    2  A    between atoms: C_3  and  C_4 
REMARK    3  A    between atoms: C_4  and  O_5 
REMARK    4  A    between atoms: O_5  and  C_6 
REMARK    5  A    between atoms: C_9  and  N_10 
REMARK       I    between atoms: N_10  and  C_11 
REMARK    6  A    between atoms: C_11  and  C_13 
ROOT
HETATM    1  C   UNL     1     -40.001 -51.707  12.327  1.00  0.00     0.141 A 
HETATM    2  C   UNL     1     -39.015 -50.992  12.979  1.00  0.00     0.058 A 
HETATM    3  C   UNL     1     -38.846 -49.648  12.663  1.00  0.00     0.035 A 
HETATM    4  C   UNL     1     -39.672 -49.040  11.721  1.00  0.00     0.050 A 
HETATM    5  C   UNL     1     -40.655 -49.849  11.143  1.00  0.00     0.119 A 
HETATM    6  N   UNL     1     -40.838 -51.171  11.416  1.00  0.00    -0.345 N 
ATOM      7  HN  UNL     1     -41.564 -51.721  10.959  1.00  0.00     0.167 HD
ENDROOT
BRANCH   4   8
HETATM    8  N   UNL     1     -39.566 -47.675  11.357  1.00  0.00    -0.326 N 
HETATM    9  C   UNL     1     -40.085 -46.602  12.069  1.00  0.00     0.226 C 
HETATM   10  O   UNL     1     -40.665 -46.704  13.154  1.00  0.00    -0.273 OA
HETATM   11  H   UNL     1     -39.012 -47.462  10.535  1.00  0.00     0.169 HD
BRANCH   9  12
HETATM   12  C   UNL     1     -39.860 -45.212  11.414  1.00  0.00     0.078 C 
HETATM   13  C   UNL     1     -39.480 -44.053  12.380  1.00  0.00     0.014 C 
HETATM   14  C   UNL     1     -40.387 -43.128  11.550  1.00  0.00     0.002 C 
HETATM   15  C   UNL     1     -41.139 -44.386  11.082  1.00  0.00     0.014 C 
ENDBRANCH   9  12
ENDBRANCH   4   8
BRANCH   1  16
HETATM   16  O   UNL     1     -40.166 -53.004  12.754  1.00  0.00    -0.334 OA
BRANCH  16  17
HETATM   17  C   UNL     1     -40.849 -53.126  13.999  1.00  0.00     0.203 C 
BRANCH  17  18
HETATM   18  C   UNL     1     -42.210 -53.747  13.690  1.00  0.00     0.193 C 
BRANCH  18  19
HETATM   19  O   UNL     1     -43.067 -52.804  13.051  1.00  0.00    -0.394 OA
HETATM   20  C   UNL     1     -44.185 -53.450  12.453  1.00  0.00     0.201 C 
ENDBRANCH  18  19
ENDBRANCH  17  18
ENDBRANCH  16  17
ENDBRANCH   1  16
TORSDOF 6
ENDMDL
