MODEL 1
REMARK VINA RESULT:      -5.8      0.000      0.000
REMARK  8 active torsions:
REMARK  status: ('A' for Active; 'I' for Inactive)
REMARK    1  A    between atoms: O_1  and  C_2 
REMARK    2  A    between atoms: C_2  and  C_3 
REMARK    3  A    between atoms: C_3  and  C_4 
REMARK    4  A    between atoms: C_4  and  C_5 
REMARK    5  A    between atoms: N_14  and  C_15 
REMARK    6  A    between atoms: C_15  and  C_16 
REMARK    7  A    between atoms: C_16  and  O_17 
REMARK    8  A    between atoms: O_17  and  C_18 
ROOT
HETATM    1  C   UNL     1     -42.463 -52.374  13.036  1.00  0.00     0.084 A 
HETATM    2  N   UNL     1     -43.566 -52.560  12.342  1.00  0.00    -0.344 N 
ATOM      3  HN  UNL     1     -43.643 -52.947  11.401  1.00  0.00     0.167 HD
HETATM    4  C   UNL     1     -44.588 -52.131  13.138  1.00  0.00     0.060 A 
HETATM    5  C   UNL     1     -45.964 -52.101  12.853  1.00  0.00     0.032 A 
HETATM    6  C   UNL     1     -46.853 -51.601  13.806  1.00  0.00     0.002 A 
HETATM    7  C   UNL     1     -46.378 -51.137  15.027  1.00  0.00     0.002 A 
HETATM    8  C   UNL     1     -45.010 -51.161  15.329  1.00  0.00     0.032 A 
HETATM    9  C   UNL     1     -44.115 -51.669  14.366  1.00  0.00     0.062 A 
HETATM   10  N   UNL     1     -42.741 -51.857  14.293  1.00  0.00    -0.333 N 
ENDROOT
BRANCH  10  11
HETATM   11  C   UNL     1     -41.711 -51.602  15.296  1.00  0.00     0.157 C 
BRANCH  11  12
HETATM   12  C   UNL     1     -41.098 -50.216  15.256  1.00  0.00     0.196 C 
BRANCH  12  13
HETATM   13  O   UNL     1     -39.671 -50.219  15.367  1.00  0.00    -0.350 OA
BRANCH  13  14
HETATM   14  C   UNL     1     -39.065 -50.126  14.131  1.00  0.00     0.068 A 
HETATM   15  C   UNL     1     -39.480 -49.257  13.114  1.00  0.00     0.037 A 
HETATM   16  C   UNL     1     -38.846 -49.257  11.872  1.00  0.00     0.003 A 
HETATM   17  C   UNL     1     -37.772 -50.112  11.645  1.00  0.00     0.000 A 
HETATM   18  C   UNL     1     -37.329 -50.956  12.664  1.00  0.00     0.003 A 
HETATM   19  C   UNL     1     -37.970 -50.960  13.907  1.00  0.00     0.037 A 
ENDBRANCH  13  14
ENDBRANCH  12  13
ENDBRANCH  11  12
ENDBRANCH  10  11
BRANCH   1  20
HETATM   20  C   UNL     1     -41.089 -52.638  12.506  1.00  0.00     0.079 C 
BRANCH  20  21
HETATM   21  C   UNL     1     -40.673 -54.096  12.727  1.00  0.00     0.033 C 
BRANCH  21  22
HETATM   22  C   UNL     1     -39.612 -54.268  13.808  1.00  0.00     0.164 C 
BRANCH  22  23
HETATM   23  O   UNL     1     -38.688 -55.278  13.424  1.00  0.00    -0.401 OA
HETATM   24  H   UNL     1     -38.884 -56.058  13.973  1.00  0.00     0.209 HD
ENDBRANCH  22  23
ENDBRANCH  21  22
ENDBRANCH  20  21
ENDBRANCH   1  20
TORSDOF 8
ENDMDL
MODEL 2
REMARK VINA RESULT:      -5.7      1.646      2.430
REMARK  8 active torsions:
REMARK  status: ('A' for Active; 'I' for Inactive)
REMARK    1  A    between atoms: O_1  and  C_2 
REMARK    2  A    between atoms: C_2  and  C_3 
REMARK    3  A    between atoms: C_3  and  C_4 
REMARK    4  A    between atoms: C_4  and  C_5 
REMARK    5  A    between atoms: N_14  and  C_15 
REMARK    6  A    between atoms: C_15  and  C_16 
REMARK    7  A    between atoms: C_16  and  O_17 
REMARK    8  A    between atoms: O_17  and  C_18 
ROOT
HETATM    1  C   UNL     1     -42.870 -53.833  14.515  1.00  0.00     0.084 A 
HETATM    2  N   UNL     1     -43.690 -53.783  15.544  1.00  0.00    -0.344 N 
ATOM      3  HN  UNL     1     -43.575 -54.247  16.445  1.00  0.00     0.167 HD
HETATM    4  C   UNL     1     -44.726 -52.982  15.159  1.00  0.00     0.060 A 
HETATM    5  C   UNL     1     -45.872 -52.625  15.891  1.00  0.00     0.032 A 
HETATM    6  C   UNL     1     -46.833 -51.801  15.304  1.00  0.00     0.002 A 
HETATM    7  C   UNL     1     -46.657 -51.338  14.005  1.00  0.00     0.002 A 
HETATM    8  C   UNL     1     -45.520 -51.682  13.262  1.00  0.00     0.032 A 
HETATM    9  C   UNL     1     -44.550 -52.512  13.858  1.00  0.00     0.062 A 
HETATM   10  N   UNL     1     -43.331 -53.052  13.465  1.00  0.00    -0.333 N 
ENDROOT
BRANCH  10  11
HETATM   11  C   UNL     1     -42.595 -52.878  12.217  1.00  0.00     0.157 C 
BRANCH  11  12
HETATM   12  C   UNL     1     -41.612 -51.723  12.202  1.00  0.00     0.196 C 
BRANCH  12  13
HETATM   13  O   UNL     1     -40.243 -52.139  12.247  1.00  0.00    -0.350 OA
BRANCH  13  14
HETATM   14  C   UNL     1     -39.406 -51.098  12.594  1.00  0.00     0.068 A 
HETATM   15  C   UNL     1     -38.334 -51.215  13.487  1.00  0.00     0.037 A 
HETATM   16  C   UNL     1     -37.564 -50.102  13.827  1.00  0.00     0.003 A 
HETATM   17  C   UNL     1     -37.845 -48.867  13.252  1.00  0.00     0.000 A 
HETATM   18  C   UNL     1     -38.888 -48.750  12.333  1.00  0.00     0.003 A 
HETATM   19  C   UNL     1     -39.664 -49.864  12.000  1.00  0.00     0.037 A 
ENDBRANCH  13  14
ENDBRANCH  12  13
ENDBRANCH  11  12
ENDBRANCH  10  11
BRANCH   1  20
HETATM   20  C   UNL     1     -41.632 -54.672  14.475  1.00  0.00     0.079 C 
BRANCH  20  21
HETATM   21  C   UNL     1     -40.441 -53.946  15.107  1.00  0.00     0.033 C 
BRANCH  21  22
HETATM   22  C   UNL     1     -39.097 -54.586  14.782  1.00  0.00     0.164 C 
BRANCH  22  23
HETATM   23  O   UNL     1     -38.934 -54.683  13.372  1.00  0.00    -0.401 OA
HETATM   24  H   UNL     1     -39.072 -53.788  13.014  1.00  0.00     0.209 HD
ENDBRANCH  22  23
ENDBRANCH  21  22
ENDBRANCH  20  21
ENDBRANCH   1  20
TORSDOF 8
ENDMDL
MODEL 3
REMARK VINA RESULT:      -5.7      2.243      3.551
REMARK  8 active torsions:
REMARK  status: ('A' for Active; 'I' for Inactive)
REMARK    1  A    between atoms: O_1  and  C_2 
REMARK    2  A    between atoms: C_2  and  C_3 
REMARK    3  A    between atoms: C_3  and  C_4 
REMARK    4  A    between atoms: C_4  and  C_5 
REMARK    5  A    between atoms: N_14  and  C_15 
REMARK    6  A    between atoms: C_15  and  C_16 
REMARK    7  A    between atoms: C_16  and  O_17 
REMARK    8  A    between atoms: O_17  and  C_18 
ROOT
HETATM    1  C   UNL     1     -42.489 -50.524  12.684  1.00  0.00     0.084 A 
HETATM    2  N   UNL     1     -43.738 -50.203  12.945  1.00  0.00    -0.344 N 
ATOM      3  HN  UNL     1     -44.131 -49.263  13.007  1.00  0.00     0.167 HD
HETATM    4  C   UNL     1     -44.402 -51.383  13.116  1.00  0.00     0.060 A 
HETATM    5  C   UNL     1     -45.757 -51.585  13.430  1.00  0.00     0.032 A 
HETATM    6  C   UNL     1     -46.241 -52.885  13.581  1.00  0.00     0.002 A 
HETATM    7  C   UNL     1     -45.388 -53.970  13.422  1.00  0.00     0.002 A 
HETATM    8  C   UNL     1     -44.035 -53.788  13.107  1.00  0.00     0.032 A 
HETATM    9  C   UNL     1     -43.549 -52.474  12.952  1.00  0.00     0.062 A 
HETATM   10  N   UNL     1     -42.320 -51.902  12.648  1.00  0.00    -0.333 N 
ENDROOT
BRANCH  10  11
HETATM   11  C   UNL     1     -41.049 -52.541  12.327  1.00  0.00     0.157 C 
BRANCH  11  12
HETATM   12  C   UNL     1     -40.225 -52.981  13.522  1.00  0.00     0.196 C 
BRANCH  12  13
HETATM   13  O   UNL     1     -38.820 -52.766  13.356  1.00  0.00    -0.350 OA
BRANCH  13  14
HETATM   14  C   UNL     1     -38.486 -51.437  13.519  1.00  0.00     0.068 A 
HETATM   15  C   UNL     1     -38.673 -50.718  14.707  1.00  0.00     0.037 A 
HETATM   16  C   UNL     1     -38.357 -49.362  14.777  1.00  0.00     0.003 A 
HETATM   17  C   UNL     1     -37.824 -48.718  13.666  1.00  0.00     0.000 A 
HETATM   18  C   UNL     1     -37.600 -49.435  12.489  1.00  0.00     0.003 A 
HETATM   19  C   UNL     1     -37.925 -50.793  12.417  1.00  0.00     0.037 A 
ENDBRANCH  13  14
ENDBRANCH  12  13
ENDBRANCH  11  12
ENDBRANCH  10  11
BRANCH   1  20
HETATM   20  C   UNL     1     -41.389 -49.526  12.506  1.00  0.00     0.079 C 
BRANCH  20  21
HETATM   21  C   UNL     1     -41.160 -49.201  11.028  1.00  0.00     0.033 C 
BRANCH  21  22
HETATM   22  C   UNL     1     -41.926 -47.972  10.550  1.00  0.00     0.164 C 
BRANCH  22  23
HETATM   23  O   UNL     1     -42.314 -48.141   9.192  1.00  0.00    -0.401 OA
HETATM   24  H   UNL     1     -41.715 -47.585   8.661  1.00  0.00     0.209 HD
ENDBRANCH  22  23
ENDBRANCH  21  22
ENDBRANCH  20  21
ENDBRANCH   1  20
TORSDOF 8
ENDMDL
MODEL 4
REMARK VINA RESULT:      -5.6      4.343      7.783
REMARK  8 active torsions:
REMARK  status: ('A' for Active; 'I' for Inactive)
REMARK    1  A    between atoms: O_1  and  C_2 
REMARK    2  A    between atoms: C_2  and  C_3 
REMARK    3  A    between atoms: C_3  and  C_4 
REMARK    4  A    between atoms: C_4  and  C_5 
REMARK    5  A    between atoms: N_14  and  C_15 
REMARK    6  A    between atoms: C_15  and  C_16 
REMARK    7  A    between atoms: C_16  and  O_17 
REMARK    8  A    between atoms: O_17  and  C_18 
ROOT
HETATM    1  C   UNL     1     -41.922 -47.068  10.393  1.00  0.00     0.084 A 
HETATM    2  N   UNL     1     -41.364 -45.880  10.302  1.00  0.00    -0.344 N 
ATOM      3  HN  UNL     1     -41.518 -45.184   9.572  1.00  0.00     0.167 HD
HETATM    4  C   UNL     1     -40.539 -45.767  11.383  1.00  0.00     0.060 A 
HETATM    5  C   UNL     1     -39.704 -44.693  11.736  1.00  0.00     0.032 A 
HETATM    6  C   UNL     1     -38.916 -44.784  12.885  1.00  0.00     0.002 A 
HETATM    7  C   UNL     1     -38.960 -45.929  13.671  1.00  0.00     0.002 A 
HETATM    8  C   UNL     1     -39.788 -47.007  13.336  1.00  0.00     0.032 A 
HETATM    9  C   UNL     1     -40.585 -46.913  12.178  1.00  0.00     0.062 A 
HETATM   10  N   UNL     1     -41.503 -47.734  11.537  1.00  0.00    -0.333 N 
ENDROOT
BRANCH  10  11
HETATM   11  C   UNL     1     -42.002 -49.051  11.921  1.00  0.00     0.157 C 
BRANCH  11  12
HETATM   12  C   UNL     1     -42.941 -49.064  13.112  1.00  0.00     0.196 C 
BRANCH  12  13
HETATM   13  O   UNL     1     -42.949 -50.309  13.818  1.00  0.00    -0.350 OA
BRANCH  13  14
HETATM   14  C   UNL     1     -44.233 -50.721  14.110  1.00  0.00     0.068 A 
HETATM   15  C   UNL     1     -45.157 -51.155  13.151  1.00  0.00     0.037 A 
HETATM   16  C   UNL     1     -46.456 -51.507  13.519  1.00  0.00     0.003 A 
HETATM   17  C   UNL     1     -46.832 -51.454  14.857  1.00  0.00     0.000 A 
HETATM   18  C   UNL     1     -45.907 -51.058  15.824  1.00  0.00     0.003 A 
HETATM   19  C   UNL     1     -44.608 -50.697  15.452  1.00  0.00     0.037 A 
ENDBRANCH  13  14
ENDBRANCH  12  13
ENDBRANCH  11  12
ENDBRANCH  10  11
BRANCH   1  20
HETATM   20  C   UNL     1     -42.844 -47.640   9.363  1.00  0.00     0.079 C 
BRANCH  20  21
HETATM   21  C   UNL     1     -44.284 -47.161   9.570  1.00  0.00     0.033 C 
BRANCH  21  22
HETATM   22  C   UNL     1     -44.644 -45.939   8.733  1.00  0.00     0.164 C 
BRANCH  22  23
HETATM   23  O   UNL     1     -44.102 -44.767   9.327  1.00  0.00    -0.401 OA
HETATM   24  H   UNL     1     -44.769 -44.066   9.219  1.00  0.00     0.209 HD
ENDBRANCH  22  23
ENDBRANCH  21  22
ENDBRANCH  20  21
ENDBRANCH   1  20
TORSDOF 8
ENDMDL
MODEL 5
REMARK VINA RESULT:      -5.6      3.192      5.430
REMARK  8 active torsions:
REMARK  status: ('A' for Active; 'I' for Inactive)
REMARK    1  A    between atoms: O_1  and  C_2 
REMARK    2  A    between atoms: C_2  and  C_3 
REMARK    3  A    between atoms: C_3  and  C_4 
REMARK    4  A    between atoms: C_4  and  C_5 
REMARK    5  A    between atoms: N_14  and  C_15 
REMARK    6  A    between atoms: C_15  and  C_16 
REMARK    7  A    between atoms: C_16  and  O_17 
REMARK    8  A    between atoms: O_17  and  C_18 
ROOT
HETATM    1  C   UNL     1     -39.556 -48.567  11.893  1.00  0.00     0.084 A 
HETATM    2  N   UNL     1     -39.679 -47.470  11.177  1.00  0.00    -0.344 N 
ATOM      3  HN  UNL     1     -38.928 -46.860  10.854  1.00  0.00     0.167 HD
HETATM    4  C   UNL     1     -41.016 -47.314  10.955  1.00  0.00     0.060 A 
HETATM    5  C   UNL     1     -41.671 -46.286  10.255  1.00  0.00     0.032 A 
HETATM    6  C   UNL     1     -43.063 -46.301  10.156  1.00  0.00     0.002 A 
HETATM    7  C   UNL     1     -43.794 -47.326  10.745  1.00  0.00     0.002 A 
HETATM    8  C   UNL     1     -43.158 -48.359  11.444  1.00  0.00     0.032 A 
HETATM    9  C   UNL     1     -41.752 -48.344  11.541  1.00  0.00     0.062 A 
HETATM   10  N   UNL     1     -40.790 -49.160  12.123  1.00  0.00    -0.333 N 
ENDROOT
BRANCH  10  11
HETATM   11  C   UNL     1     -40.949 -50.419  12.843  1.00  0.00     0.157 C 
BRANCH  11  12
HETATM   12  C   UNL     1     -41.174 -51.639  11.971  1.00  0.00     0.196 C 
BRANCH  12  13
HETATM   13  O   UNL     1     -40.244 -52.699  12.221  1.00  0.00    -0.350 OA
BRANCH  13  14
HETATM   14  C   UNL     1     -40.573 -53.407  13.358  1.00  0.00     0.068 A 
HETATM   15  C   UNL     1     -39.678 -53.685  14.399  1.00  0.00     0.037 A 
HETATM   16  C   UNL     1     -40.073 -54.452  15.495  1.00  0.00     0.003 A 
HETATM   17  C   UNL     1     -41.378 -54.925  15.571  1.00  0.00     0.000 A 
HETATM   18  C   UNL     1     -42.288 -54.623  14.556  1.00  0.00     0.003 A 
HETATM   19  C   UNL     1     -41.888 -53.860  13.454  1.00  0.00     0.037 A 
ENDBRANCH  13  14
ENDBRANCH  12  13
ENDBRANCH  11  12
ENDBRANCH  10  11
BRANCH   1  20
HETATM   20  C   UNL     1     -38.255 -49.072  12.433  1.00  0.00     0.079 C 
BRANCH  20  21
HETATM   21  C   UNL     1     -37.530 -49.957  11.414  1.00  0.00     0.033 C 
BRANCH  21  22
HETATM   22  C   UNL     1     -37.031 -51.273  11.998  1.00  0.00     0.164 C 
BRANCH  22  23
HETATM   23  O   UNL     1     -36.520 -52.101  10.962  1.00  0.00    -0.401 OA
HETATM   24  H   UNL     1     -35.550 -52.095  11.054  1.00  0.00     0.209 HD
ENDBRANCH  22  23
ENDBRANCH  21  22
ENDBRANCH  20  21
ENDBRANCH   1  20
TORSDOF 8
ENDMDL
MODEL 6
REMARK VINA RESULT:      -5.5      2.130      6.419
REMARK  8 active torsions:
REMARK  status: ('A' for Active; 'I' for Inactive)
REMARK    1  A    between atoms: O_1  and  C_2 
REMARK    2  A    between atoms: C_2  and  C_3 
REMARK    3  A    between atoms: C_3  and  C_4 
REMARK    4  A    between atoms: C_4  and  C_5 
REMARK    5  A    between atoms: N_14  and  C_15 
REMARK    6  A    between atoms: C_15  and  C_16 
REMARK    7  A    between atoms: C_16  and  O_17 
REMARK    8  A    between atoms: O_17  and  C_18 
ROOT
HETATM    1  C   UNL     1     -39.673 -53.015  13.835  1.00  0.00     0.084 A 
HETATM    2  N   UNL     1     -38.635 -52.353  14.300  1.00  0.00    -0.344 N 
ATOM      3  HN  UNL     1     -37.986 -52.658  15.026  1.00  0.00     0.167 HD
HETATM    4  C   UNL     1     -38.602 -51.174  13.613  1.00  0.00     0.060 A 
HETATM    5  C   UNL     1     -37.696 -50.109  13.750  1.00  0.00     0.032 A 
HETATM    6  C   UNL     1     -37.849 -48.971  12.956  1.00  0.00     0.002 A 
HETATM    7  C   UNL     1     -38.890 -48.894  12.039  1.00  0.00     0.002 A 
HETATM    8  C   UNL     1     -39.801 -49.947  11.888  1.00  0.00     0.032 A 
HETATM    9  C   UNL     1     -39.644 -51.096  12.688  1.00  0.00     0.062 A 
HETATM   10  N   UNL     1     -40.312 -52.306  12.827  1.00  0.00    -0.333 N 
ENDROOT
BRANCH  10  11
HETATM   11  C   UNL     1     -41.461 -52.825  12.093  1.00  0.00     0.157 C 
BRANCH  11  12
HETATM   12  C   UNL     1     -42.807 -52.274  12.523  1.00  0.00     0.196 C 
BRANCH  12  13
HETATM   13  O   UNL     1     -43.901 -53.153  12.241  1.00  0.00    -0.350 OA
BRANCH  13  14
HETATM   14  C   UNL     1     -44.930 -52.991  13.144  1.00  0.00     0.068 A 
HETATM   15  C   UNL     1     -45.507 -54.037  13.876  1.00  0.00     0.037 A 
HETATM   16  C   UNL     1     -46.581 -53.800  14.735  1.00  0.00     0.003 A 
HETATM   17  C   UNL     1     -47.069 -52.507  14.888  1.00  0.00     0.000 A 
HETATM   18  C   UNL     1     -46.477 -51.453  14.191  1.00  0.00     0.003 A 
HETATM   19  C   UNL     1     -45.406 -51.693  13.324  1.00  0.00     0.037 A 
ENDBRANCH  13  14
ENDBRANCH  12  13
ENDBRANCH  11  12
ENDBRANCH  10  11
BRANCH   1  20
HETATM   20  C   UNL     1     -40.129 -54.336  14.370  1.00  0.00     0.079 C 
BRANCH  20  21
HETATM   21  C   UNL     1     -39.812 -54.478  15.861  1.00  0.00     0.033 C 
BRANCH  21  22
HETATM   22  C   UNL     1     -38.744 -55.524  16.159  1.00  0.00     0.164 C 
BRANCH  22  23
HETATM   23  O   UNL     1     -38.112 -55.929  14.951  1.00  0.00    -0.401 OA
HETATM   24  H   UNL     1     -38.523 -56.774  14.692  1.00  0.00     0.209 HD
ENDBRANCH  22  23
ENDBRANCH  21  22
ENDBRANCH  20  21
ENDBRANCH   1  20
TORSDOF 8
ENDMDL
MODEL 7
REMARK VINA RESULT:      -5.4      5.048      7.205
REMARK  8 active torsions:
REMARK  status: ('A' for Active; 'I' for Inactive)
REMARK    1  A    between atoms: O_1  and  C_2 
REMARK    2  A    between atoms: C_2  and  C_3 
REMARK    3  A    between atoms: C_3  and  C_4 
REMARK    4  A    between atoms: C_4  and  C_5 
REMARK    5  A    between atoms: N_14  and  C_15 
REMARK    6  A    between atoms: C_15  and  C_16 
REMARK    7  A    between atoms: C_16  and  O_17 
REMARK    8  A    between atoms: O_17  and  C_18 
ROOT
HETATM    1  C   UNL     1     -43.054 -46.570  10.226  1.00  0.00     0.084 A 
HETATM    2  N   UNL     1     -43.158 -45.270  10.399  1.00  0.00    -0.344 N 
ATOM      3  HN  UNL     1     -43.958 -44.681  10.168  1.00  0.00     0.167 HD
HETATM    4  C   UNL     1     -41.976 -44.869  10.951  1.00  0.00     0.060 A 
HETATM    5  C   UNL     1     -41.577 -43.570  11.312  1.00  0.00     0.032 A 
HETATM    6  C   UNL     1     -40.305 -43.367  11.851  1.00  0.00     0.002 A 
HETATM    7  C   UNL     1     -39.443 -44.442  12.028  1.00  0.00     0.002 A 
HETATM    8  C   UNL     1     -39.824 -45.743  11.677  1.00  0.00     0.032 A 
HETATM    9  C   UNL     1     -41.109 -45.947  11.135  1.00  0.00     0.062 A 
HETATM   10  N   UNL     1     -41.832 -47.043  10.684  1.00  0.00    -0.333 N 
ENDROOT
BRANCH  10  11
HETATM   11  C   UNL     1     -41.467 -48.456  10.667  1.00  0.00     0.157 C 
BRANCH  11  12
HETATM   12  C   UNL     1     -41.679 -49.195  11.974  1.00  0.00     0.196 C 
BRANCH  12  13
HETATM   13  O   UNL     1     -40.494 -49.825  12.472  1.00  0.00    -0.350 OA
BRANCH  13  14
HETATM   14  C   UNL     1     -39.795 -48.994  13.324  1.00  0.00     0.068 A 
HETATM   15  C   UNL     1     -40.390 -48.205  14.317  1.00  0.00     0.037 A 
HETATM   16  C   UNL     1     -39.620 -47.351  15.106  1.00  0.00     0.003 A 
HETATM   17  C   UNL     1     -38.242 -47.299  14.925  1.00  0.00     0.000 A 
HETATM   18  C   UNL     1     -37.637 -48.109  13.963  1.00  0.00     0.003 A 
HETATM   19  C   UNL     1     -38.411 -48.959  13.167  1.00  0.00     0.037 A 
ENDBRANCH  13  14
ENDBRANCH  12  13
ENDBRANCH  11  12
ENDBRANCH  10  11
BRANCH   1  20
HETATM   20  C   UNL     1     -44.102 -47.411   9.567  1.00  0.00     0.079 C 
BRANCH  20  21
HETATM   21  C   UNL     1     -45.249 -46.555   9.023  1.00  0.00     0.033 C 
BRANCH  21  22
HETATM   22  C   UNL     1     -46.596 -47.269   9.028  1.00  0.00     0.164 C 
BRANCH  22  23
HETATM   23  O   UNL     1     -46.683 -48.146   7.912  1.00  0.00    -0.401 OA
HETATM   24  H   UNL     1     -46.286 -47.676   7.157  1.00  0.00     0.209 HD
ENDBRANCH  22  23
ENDBRANCH  21  22
ENDBRANCH  20  21
ENDBRANCH   1  20
TORSDOF 8
ENDMDL
MODEL 8
REMARK VINA RESULT:      -5.4      3.107      5.267
REMARK  8 active torsions:
REMARK  status: ('A' for Active; 'I' for Inactive)
REMARK    1  A    between atoms: O_1  and  C_2 
REMARK    2  A    between atoms: C_2  and  C_3 
REMARK    3  A    between atoms: C_3  and  C_4 
REMARK    4  A    between atoms: C_4  and  C_5 
REMARK    5  A    between atoms: N_14  and  C_15 
REMARK    6  A    between atoms: C_15  and  C_16 
REMARK    7  A    between atoms: C_16  and  O_17 
REMARK    8  A    between atoms: O_17  and  C_18 
ROOT
HETATM    1  C   UNL     1     -44.099 -50.544  14.383  1.00  0.00     0.084 A 
HETATM    2  N   UNL     1     -44.042 -50.016  15.587  1.00  0.00    -0.344 N 
ATOM      3  HN  UNL     1     -43.286 -49.453  15.976  1.00  0.00     0.167 HD
HETATM    4  C   UNL     1     -45.202 -50.375  16.210  1.00  0.00     0.060 A 
HETATM    5  C   UNL     1     -45.619 -50.078  17.519  1.00  0.00     0.032 A 
HETATM    6  C   UNL     1     -46.846 -50.560  17.976  1.00  0.00     0.002 A 
HETATM    7  C   UNL     1     -47.647 -51.330  17.142  1.00  0.00     0.002 A 
HETATM    8  C   UNL     1     -47.249 -51.635  15.834  1.00  0.00     0.032 A 
HETATM    9  C   UNL     1     -46.011 -51.144  15.373  1.00  0.00     0.062 A 
HETATM   10  N   UNL     1     -45.294 -51.222  14.186  1.00  0.00    -0.333 N 
ENDROOT
BRANCH  10  11
HETATM   11  C   UNL     1     -45.650 -51.859  12.923  1.00  0.00     0.157 C 
BRANCH  11  12
HETATM   12  C   UNL     1     -45.645 -53.376  12.938  1.00  0.00     0.196 C 
BRANCH  12  13
HETATM   13  O   UNL     1     -44.472 -53.948  12.352  1.00  0.00    -0.350 OA
BRANCH  13  14
HETATM   14  C   UNL     1     -43.495 -54.186  13.296  1.00  0.00     0.068 A 
HETATM   15  C   UNL     1     -42.138 -53.886  13.119  1.00  0.00     0.037 A 
HETATM   16  C   UNL     1     -41.203 -54.204  14.103  1.00  0.00     0.003 A 
HETATM   17  C   UNL     1     -41.621 -54.802  15.286  1.00  0.00     0.000 A 
HETATM   18  C   UNL     1     -42.976 -55.071  15.487  1.00  0.00     0.003 A 
HETATM   19  C   UNL     1     -43.912 -54.759  14.497  1.00  0.00     0.037 A 
ENDBRANCH  13  14
ENDBRANCH  12  13
ENDBRANCH  11  12
ENDBRANCH  10  11
BRANCH   1  20
HETATM   20  C   UNL     1     -42.989 -50.464  13.383  1.00  0.00     0.079 C 
BRANCH  20  21
HETATM   21  C   UNL     1     -42.958 -49.100  12.686  1.00  0.00     0.033 C 
BRANCH  21  22
HETATM   22  C   UNL     1     -41.839 -48.967  11.660  1.00  0.00     0.164 C 
BRANCH  22  23
HETATM   23  O   UNL     1     -42.384 -48.635  10.389  1.00  0.00    -0.401 OA
HETATM   24  H   UNL     1     -42.119 -47.716  10.205  1.00  0.00     0.209 HD
ENDBRANCH  22  23
ENDBRANCH  21  22
ENDBRANCH  20  21
ENDBRANCH   1  20
TORSDOF 8
ENDMDL
MODEL 9
REMARK VINA RESULT:      -5.4      3.148      7.121
REMARK  8 active torsions:
REMARK  status: ('A' for Active; 'I' for Inactive)
REMARK    1  A    between atoms: O_1  and  C_2 
REMARK    2  A    between atoms: C_2  and  C_3 
REMARK    3  A    between atoms: C_3  and  C_4 
REMARK    4  A    between atoms: C_4  and  C_5 
REMARK    5  A    between atoms: N_14  and  C_15 
REMARK    6  A    between atoms: C_15  and  C_16 
REMARK    7  A    between atoms: C_16  and  O_17 
REMARK    8  A    between atoms: O_17  and  C_18 
ROOT
HETATM    1  C   UNL     1     -40.629 -47.895  11.488  1.00  0.00     0.084 A 
HETATM    2  N   UNL     1     -39.412 -48.166  11.065  1.00  0.00    -0.344 N 
ATOM      3  HN  UNL     1     -38.922 -47.729  10.284  1.00  0.00     0.167 HD
HETATM    4  C   UNL     1     -38.940 -49.150  11.884  1.00  0.00     0.060 A 
HETATM    5  C   UNL     1     -37.694 -49.801  11.840  1.00  0.00     0.032 A 
HETATM    6  C   UNL     1     -37.410 -50.804  12.767  1.00  0.00     0.002 A 
HETATM    7  C   UNL     1     -38.353 -51.156  13.725  1.00  0.00     0.002 A 
HETATM    8  C   UNL     1     -39.597 -50.517  13.786  1.00  0.00     0.032 A 
HETATM    9  C   UNL     1     -39.882 -49.502  12.851  1.00  0.00     0.062 A 
HETATM   10  N   UNL     1     -40.959 -48.663  12.596  1.00  0.00    -0.333 N 
ENDROOT
BRANCH  10  11
HETATM   11  C   UNL     1     -42.227 -48.533  13.307  1.00  0.00     0.157 C 
BRANCH  11  12
HETATM   12  C   UNL     1     -43.169 -49.713  13.171  1.00  0.00     0.196 C 
BRANCH  12  13
HETATM   13  O   UNL     1     -43.235 -50.529  14.346  1.00  0.00    -0.350 OA
BRANCH  13  14
HETATM   14  C   UNL     1     -44.537 -50.857  14.665  1.00  0.00     0.068 A 
HETATM   15  C   UNL     1     -45.490 -51.290  13.735  1.00  0.00     0.037 A 
HETATM   16  C   UNL     1     -46.802 -51.555  14.128  1.00  0.00     0.003 A 
HETATM   17  C   UNL     1     -47.164 -51.413  15.463  1.00  0.00     0.000 A 
HETATM   18  C   UNL     1     -46.212 -51.017  16.403  1.00  0.00     0.003 A 
HETATM   19  C   UNL     1     -44.899 -50.745  16.007  1.00  0.00     0.037 A 
ENDBRANCH  13  14
ENDBRANCH  12  13
ENDBRANCH  11  12
ENDBRANCH  10  11
BRANCH   1  20
HETATM   20  C   UNL     1     -41.548 -46.922  10.820  1.00  0.00     0.079 C 
BRANCH  20  21
HETATM   21  C   UNL     1     -42.481 -47.623   9.828  1.00  0.00     0.033 C 
BRANCH  21  22
HETATM   22  C   UNL     1     -43.916 -47.111   9.877  1.00  0.00     0.164 C 
BRANCH  22  23
HETATM   23  O   UNL     1     -44.808 -48.191  10.120  1.00  0.00    -0.401 OA
HETATM   24  H   UNL     1     -44.412 -48.724  10.834  1.00  0.00     0.209 HD
ENDBRANCH  22  23
ENDBRANCH  21  22
ENDBRANCH  20  21
ENDBRANCH   1  20
TORSDOF 8
ENDMDL
