MODEL 1
REMARK VINA RESULT:      -5.3      0.000      0.000
REMARK  5 active torsions:
REMARK  status: ('A' for Active; 'I' for Inactive)
REMARK    1  A    between atoms: S_2  and  C_3 
REMARK    2  A    between atoms: C_6  and  N_7 
REMARK       I    between atoms: N_7  and  C_8 
REMARK    3  A    between atoms: C_8  and  C_10 
REMARK    4  A    between atoms: C_10  and  O_11 
REMARK    5  A    between atoms: O_11  and  C_12 
ROOT
HETATM    1  N   UNL     1     -43.112 -50.541  12.709  1.00  0.00    -0.311 N 
HETATM    2  C   UNL     1     -42.581 -51.793  12.437  1.00  0.00     0.246 C 
HETATM    3  O   UNL     1     -41.525 -52.041  11.861  1.00  0.00    -0.271 OA
HETATM    4  H   UNL     1     -43.905 -50.494  13.327  1.00  0.00     0.170 HD
ENDROOT
BRANCH   1   5
HETATM    5  C   UNL     1     -42.565 -49.342  12.238  1.00  0.00     0.107 A 
HETATM    6  C   UNL     1     -42.685 -48.204  13.030  1.00  0.00     0.050 A 
HETATM    7  C   UNL     1     -42.054 -47.024  12.624  1.00  0.00     0.023 A 
HETATM    8  C   UNL     1     -41.348 -46.996  11.424  1.00  0.00     0.015 A 
HETATM    9  C   UNL     1     -41.365 -48.154  10.662  1.00  0.00     0.108 A 
HETATM   10  N   UNL     1     -41.935 -49.315  11.052  1.00  0.00    -0.351 N 
ATOM     11  HN  UNL     1     -41.888 -50.147  10.464  1.00  0.00     0.166 HD
BRANCH   8  12
HETATM   12  S   UNL     1     -40.457 -45.545  10.920  1.00  0.00    -0.133 SA
HETATM   13  C   UNL     1     -39.622 -45.153  12.489  1.00  0.00     0.095 C 
ENDBRANCH   8  12
ENDBRANCH   1   5
BRANCH   2  14
HETATM   14  C   UNL     1     -43.406 -52.923  13.055  1.00  0.00     0.271 C 
BRANCH  14  15
HETATM   15  O   UNL     1     -44.544 -53.188  12.249  1.00  0.00    -0.377 OA
BRANCH  15  16
HETATM   16  C   UNL     1     -45.788 -53.042  12.919  1.00  0.00     0.122 C 
HETATM   17  C   UNL     1     -46.334 -51.609  12.977  1.00  0.00     0.032 C 
HETATM   18  C   UNL     1     -46.829 -51.388  14.407  1.00  0.00     0.002 C 
HETATM   19  C   UNL     1     -46.720 -52.736  15.104  1.00  0.00     0.002 C 
HETATM   20  C   UNL     1     -45.580 -53.424  14.381  1.00  0.00     0.032 C 
ENDBRANCH  15  16
ENDBRANCH  14  15
ENDBRANCH   2  14
TORSDOF 5
ENDMDL
MODEL 2
REMARK VINA RESULT:      -5.2      2.443      2.584
REMARK  5 active torsions:
REMARK  status: ('A' for Active; 'I' for Inactive)
REMARK    1  A    between atoms: S_2  and  C_3 
REMARK    2  A    between atoms: C_6  and  N_7 
REMARK       I    between atoms: N_7  and  C_8 
REMARK    3  A    between atoms: C_8  and  C_10 
REMARK    4  A    between atoms: C_10  and  O_11 
REMARK    5  A    between atoms: O_11  and  C_12 
ROOT
HETATM    1  N   UNL     1     -43.192 -52.160  12.501  1.00  0.00    -0.311 N 
HETATM    2  C   UNL     1     -43.201 -53.502  12.848  1.00  0.00     0.246 C 
HETATM    3  O   UNL     1     -42.265 -54.158  13.299  1.00  0.00    -0.271 OA
HETATM    4  H   UNL     1     -44.076 -51.724  12.296  1.00  0.00     0.170 HD
ENDROOT
BRANCH   1   5
HETATM    5  C   UNL     1     -42.042 -51.363  12.493  1.00  0.00     0.107 A 
HETATM    6  C   UNL     1     -41.643 -50.763  13.684  1.00  0.00     0.050 A 
HETATM    7  C   UNL     1     -40.440 -50.051  13.716  1.00  0.00     0.023 A 
HETATM    8  C   UNL     1     -39.680 -49.925  12.556  1.00  0.00     0.015 A 
HETATM    9  C   UNL     1     -40.208 -50.480  11.400  1.00  0.00     0.108 A 
HETATM   10  N   UNL     1     -41.348 -51.204  11.354  1.00  0.00    -0.351 N 
ATOM     11  HN  UNL     1     -41.672 -51.617  10.480  1.00  0.00     0.166 HD
BRANCH   8  12
HETATM   12  S   UNL     1     -38.103 -49.109  12.579  1.00  0.00    -0.133 SA
HETATM   13  C   UNL     1     -37.317 -49.950  11.171  1.00  0.00     0.095 C 
ENDBRANCH   8  12
ENDBRANCH   1   5
BRANCH   2  14
HETATM   14  C   UNL     1     -44.593 -54.124  12.735  1.00  0.00     0.271 C 
BRANCH  14  15
HETATM   15  O   UNL     1     -45.518 -53.158  12.258  1.00  0.00    -0.377 OA
BRANCH  15  16
HETATM   16  C   UNL     1     -46.531 -52.803  13.189  1.00  0.00     0.122 C 
HETATM   17  C   UNL     1     -46.511 -51.338  13.647  1.00  0.00     0.032 C 
HETATM   18  C   UNL     1     -46.710 -51.354  15.163  1.00  0.00     0.002 C 
HETATM   19  C   UNL     1     -47.007 -52.799  15.535  1.00  0.00     0.002 C 
HETATM   20  C   UNL     1     -46.292 -53.600  14.466  1.00  0.00     0.032 C 
ENDBRANCH  15  16
ENDBRANCH  14  15
ENDBRANCH   2  14
TORSDOF 5
ENDMDL
MODEL 3
REMARK VINA RESULT:      -5.1      1.567      1.911
REMARK  5 active torsions:
REMARK  status: ('A' for Active; 'I' for Inactive)
REMARK    1  A    between atoms: S_2  and  C_3 
REMARK    2  A    between atoms: C_6  and  N_7 
REMARK       I    between atoms: N_7  and  C_8 
REMARK    3  A    between atoms: C_8  and  C_10 
REMARK    4  A    between atoms: C_10  and  O_11 
REMARK    5  A    between atoms: O_11  and  C_12 
ROOT
HETATM    1  N   UNL     1     -42.044 -50.142  11.568  1.00  0.00    -0.311 N 
HETATM    2  C   UNL     1     -41.956 -50.772  12.800  1.00  0.00     0.246 C 
HETATM    3  O   UNL     1     -41.514 -50.299  13.844  1.00  0.00    -0.271 OA
HETATM    4  H   UNL     1     -42.573 -50.601  10.845  1.00  0.00     0.170 HD
ENDROOT
BRANCH   1   5
HETATM    5  C   UNL     1     -41.505 -48.879  11.296  1.00  0.00     0.107 A 
HETATM    6  C   UNL     1     -42.249 -47.996  10.518  1.00  0.00     0.050 A 
HETATM    7  C   UNL     1     -41.773 -46.695  10.326  1.00  0.00     0.023 A 
HETATM    8  C   UNL     1     -40.554 -46.316  10.882  1.00  0.00     0.015 A 
HETATM    9  C   UNL     1     -39.845 -47.295  11.561  1.00  0.00     0.108 A 
HETATM   10  N   UNL     1     -40.302 -48.545  11.792  1.00  0.00    -0.351 N 
ATOM     11  HN  UNL     1     -39.751 -49.215  12.327  1.00  0.00     0.166 HD
BRANCH   8  12
HETATM   12  S   UNL     1     -39.962 -44.648  10.738  1.00  0.00    -0.133 SA
HETATM   13  C   UNL     1     -41.366 -43.771  11.493  1.00  0.00     0.095 C 
ENDBRANCH   8  12
ENDBRANCH   1   5
BRANCH   2  14
HETATM   14  C   UNL     1     -42.606 -52.156  12.795  1.00  0.00     0.271 C 
BRANCH  14  15
HETATM   15  O   UNL     1     -43.178 -52.426  14.066  1.00  0.00    -0.377 OA
BRANCH  15  16
HETATM   16  C   UNL     1     -44.586 -52.617  14.050  1.00  0.00     0.122 C 
HETATM   17  C   UNL     1     -45.198 -52.848  12.661  1.00  0.00     0.032 C 
HETATM   18  C   UNL     1     -46.456 -51.982  12.590  1.00  0.00     0.002 C 
HETATM   19  C   UNL     1     -46.646 -51.399  13.982  1.00  0.00     0.002 C 
HETATM   20  C   UNL     1     -45.239 -51.329  14.539  1.00  0.00     0.032 C 
ENDBRANCH  15  16
ENDBRANCH  14  15
ENDBRANCH   2  14
TORSDOF 5
ENDMDL
MODEL 4
REMARK VINA RESULT:      -5.1      2.793      3.376
REMARK  5 active torsions:
REMARK  status: ('A' for Active; 'I' for Inactive)
REMARK    1  A    between atoms: S_2  and  C_3 
REMARK    2  A    between atoms: C_6  and  N_7 
REMARK       I    between atoms: N_7  and  C_8 
REMARK    3  A    between atoms: C_8  and  C_10 
REMARK    4  A    between atoms: C_10  and  O_11 
REMARK    5  A    between atoms: O_11  and  C_12 
ROOT
HETATM    1  N   UNL     1     -41.804 -50.003  11.388  1.00  0.00    -0.311 N 
HETATM    2  C   UNL     1     -40.826 -50.831  11.918  1.00  0.00     0.246 C 
HETATM    3  O   UNL     1     -39.796 -50.488  12.494  1.00  0.00    -0.271 OA
HETATM    4  H   UNL     1     -42.665 -50.429  11.087  1.00  0.00     0.170 HD
ENDROOT
BRANCH   1   5
HETATM    5  C   UNL     1     -41.693 -48.610  11.316  1.00  0.00     0.107 A 
HETATM    6  C   UNL     1     -42.823 -47.842  11.582  1.00  0.00     0.050 A 
HETATM    7  C   UNL     1     -42.704 -46.449  11.618  1.00  0.00     0.023 A 
HETATM    8  C   UNL     1     -41.473 -45.854  11.357  1.00  0.00     0.015 A 
HETATM    9  C   UNL     1     -40.430 -46.700  11.012  1.00  0.00     0.108 A 
HETATM   10  N   UNL     1     -40.513 -48.049  11.008  1.00  0.00    -0.351 N 
ATOM     11  HN  UNL     1     -39.703 -48.623  10.778  1.00  0.00     0.166 HD
BRANCH   8  12
HETATM   12  S   UNL     1     -41.261 -44.095  11.485  1.00  0.00    -0.133 SA
HETATM   13  C   UNL     1     -42.677 -43.706  12.558  1.00  0.00     0.095 C 
ENDBRANCH   8  12
ENDBRANCH   1   5
BRANCH   2  14
HETATM   14  C   UNL     1     -41.206 -52.310  11.835  1.00  0.00     0.271 C 
BRANCH  14  15
HETATM   15  O   UNL     1     -40.257 -53.094  12.542  1.00  0.00    -0.377 OA
BRANCH  15  16
HETATM   16  C   UNL     1     -40.813 -54.193  13.251  1.00  0.00     0.122 C 
HETATM   17  C   UNL     1     -42.345 -54.208  13.335  1.00  0.00     0.032 C 
HETATM   18  C   UNL     1     -42.699 -54.559  14.781  1.00  0.00     0.002 C 
HETATM   19  C   UNL     1     -41.384 -54.904  15.465  1.00  0.00     0.002 C 
HETATM   20  C   UNL     1     -40.358 -54.092  14.703  1.00  0.00     0.032 C 
ENDBRANCH  15  16
ENDBRANCH  14  15
ENDBRANCH   2  14
TORSDOF 5
ENDMDL
MODEL 5
REMARK VINA RESULT:      -4.9      5.512      7.174
REMARK  5 active torsions:
REMARK  status: ('A' for Active; 'I' for Inactive)
REMARK    1  A    between atoms: S_2  and  C_3 
REMARK    2  A    between atoms: C_6  and  N_7 
REMARK       I    between atoms: N_7  and  C_8 
REMARK    3  A    between atoms: C_8  and  C_10 
REMARK    4  A    between atoms: C_10  and  O_11 
REMARK    5  A    between atoms: O_11  and  C_12 
ROOT
HETATM    1  N   UNL     1     -42.867 -54.723  14.769  1.00  0.00    -0.311 N 
HETATM    2  C   UNL     1     -42.696 -54.138  13.524  1.00  0.00     0.246 C 
HETATM    3  O   UNL     1     -41.647 -54.027  12.895  1.00  0.00    -0.271 OA
HETATM    4  H   UNL     1     -43.809 -54.881  15.086  1.00  0.00     0.170 HD
ENDROOT
BRANCH   1   5
HETATM    5  C   UNL     1     -41.812 -55.171  15.573  1.00  0.00     0.107 A 
HETATM    6  C   UNL     1     -42.069 -56.177  16.500  1.00  0.00     0.050 A 
HETATM    7  C   UNL     1     -41.006 -56.710  17.236  1.00  0.00     0.023 A 
HETATM    8  C   UNL     1     -39.720 -56.206  17.056  1.00  0.00     0.015 A 
HETATM    9  C   UNL     1     -39.583 -55.142  16.177  1.00  0.00     0.108 A 
HETATM   10  N   UNL     1     -40.589 -54.638  15.428  1.00  0.00    -0.351 N 
ATOM     11  HN  UNL     1     -40.423 -53.875  14.773  1.00  0.00     0.166 HD
BRANCH   8  12
HETATM   12  S   UNL     1     -38.331 -56.918  17.902  1.00  0.00    -0.133 SA
HETATM   13  C   UNL     1     -39.019 -58.562  18.265  1.00  0.00     0.095 C 
ENDBRANCH   8  12
ENDBRANCH   1   5
BRANCH   2  14
HETATM   14  C   UNL     1     -44.023 -53.717  12.890  1.00  0.00     0.271 C 
BRANCH  14  15
HETATM   15  O   UNL     1     -45.091 -54.449  13.473  1.00  0.00    -0.377 OA
BRANCH  15  16
HETATM   16  C   UNL     1     -46.232 -53.667  13.799  1.00  0.00     0.122 C 
HETATM   17  C   UNL     1     -46.253 -52.258  13.190  1.00  0.00     0.032 C 
HETATM   18  C   UNL     1     -46.692 -51.308  14.305  1.00  0.00     0.002 C 
HETATM   19  C   UNL     1     -47.078 -52.190  15.483  1.00  0.00     0.002 C 
HETATM   20  C   UNL     1     -46.219 -53.426  15.304  1.00  0.00     0.032 C 
ENDBRANCH  15  16
ENDBRANCH  14  15
ENDBRANCH   2  14
TORSDOF 5
ENDMDL
MODEL 6
REMARK VINA RESULT:      -4.8      4.013      7.194
REMARK  5 active torsions:
REMARK  status: ('A' for Active; 'I' for Inactive)
REMARK    1  A    between atoms: S_2  and  C_3 
REMARK    2  A    between atoms: C_6  and  N_7 
REMARK       I    between atoms: N_7  and  C_8 
REMARK    3  A    between atoms: C_8  and  C_10 
REMARK    4  A    between atoms: C_10  and  O_11 
REMARK    5  A    between atoms: O_11  and  C_12 
ROOT
HETATM    1  N   UNL     1     -40.782 -49.320  10.959  1.00  0.00    -0.311 N 
HETATM    2  C   UNL     1     -41.956 -48.596  11.102  1.00  0.00     0.246 C 
HETATM    3  O   UNL     1     -42.859 -48.801  11.909  1.00  0.00    -0.271 OA
HETATM    4  H   UNL     1     -40.066 -48.938  10.362  1.00  0.00     0.170 HD
ENDROOT
BRANCH   1   5
HETATM    5  C   UNL     1     -40.506 -50.506  11.650  1.00  0.00     0.107 A 
HETATM    6  C   UNL     1     -39.507 -50.490  12.619  1.00  0.00     0.050 A 
HETATM    7  C   UNL     1     -39.291 -51.636  13.391  1.00  0.00     0.023 A 
HETATM    8  C   UNL     1     -40.051 -52.779  13.157  1.00  0.00     0.015 A 
HETATM    9  C   UNL     1     -40.957 -52.724  12.109  1.00  0.00     0.108 A 
HETATM   10  N   UNL     1     -41.208 -51.617  11.376  1.00  0.00    -0.351 N 
ATOM     11  HN  UNL     1     -41.910 -51.625  10.637  1.00  0.00     0.166 HD
BRANCH   8  12
HETATM   12  S   UNL     1     -39.871 -54.222  14.176  1.00  0.00    -0.133 SA
HETATM   13  C   UNL     1     -41.577 -54.362  14.791  1.00  0.00     0.095 C 
ENDBRANCH   8  12
ENDBRANCH   1   5
BRANCH   2  14
HETATM   14  C   UNL     1     -41.994 -47.363  10.199  1.00  0.00     0.271 C 
BRANCH  14  15
HETATM   15  O   UNL     1     -40.844 -46.561  10.426  1.00  0.00    -0.377 OA
BRANCH  15  16
HETATM   16  C   UNL     1     -40.953 -45.674  11.530  1.00  0.00     0.122 C 
HETATM   17  C   UNL     1     -40.930 -44.181  11.172  1.00  0.00     0.032 C 
HETATM   18  C   UNL     1     -39.996 -43.507  12.178  1.00  0.00     0.002 C 
HETATM   19  C   UNL     1     -39.630 -44.577  13.196  1.00  0.00     0.002 C 
HETATM   20  C   UNL     1     -39.725 -45.869  12.411  1.00  0.00     0.032 C 
ENDBRANCH  15  16
ENDBRANCH  14  15
ENDBRANCH   2  14
TORSDOF 5
ENDMDL
MODEL 7
REMARK VINA RESULT:      -4.6      3.625      6.382
REMARK  5 active torsions:
REMARK  status: ('A' for Active; 'I' for Inactive)
REMARK    1  A    between atoms: S_2  and  C_3 
REMARK    2  A    between atoms: C_6  and  N_7 
REMARK       I    between atoms: N_7  and  C_8 
REMARK    3  A    between atoms: C_8  and  C_10 
REMARK    4  A    between atoms: C_10  and  O_11 
REMARK    5  A    between atoms: O_11  and  C_12 
ROOT
HETATM    1  N   UNL     1     -42.612 -49.642  12.017  1.00  0.00    -0.311 N 
HETATM    2  C   UNL     1     -41.422 -49.202  11.460  1.00  0.00     0.246 C 
HETATM    3  O   UNL     1     -40.368 -49.827  11.371  1.00  0.00    -0.271 OA
HETATM    4  H   UNL     1     -43.433 -49.077  11.875  1.00  0.00     0.170 HD
ENDROOT
BRANCH   1   5
HETATM    5  C   UNL     1     -42.754 -50.857  12.698  1.00  0.00     0.107 A 
HETATM    6  C   UNL     1     -43.189 -50.827  14.020  1.00  0.00     0.050 A 
HETATM    7  C   UNL     1     -43.437 -52.035  14.681  1.00  0.00     0.023 A 
HETATM    8  C   UNL     1     -43.214 -53.241  14.021  1.00  0.00     0.015 A 
HETATM    9  C   UNL     1     -42.693 -53.165  12.739  1.00  0.00     0.108 A 
HETATM   10  N   UNL     1     -42.482 -52.011  12.069  1.00  0.00    -0.351 N 
ATOM     11  HN  UNL     1     -42.127 -52.016  11.113  1.00  0.00     0.166 HD
BRANCH   8  12
HETATM   12  S   UNL     1     -43.605 -54.792  14.793  1.00  0.00    -0.133 SA
HETATM   13  C   UNL     1     -42.041 -55.083  15.676  1.00  0.00     0.095 C 
ENDBRANCH   8  12
ENDBRANCH   1   5
BRANCH   2  14
HETATM   14  C   UNL     1     -41.558 -47.825  10.807  1.00  0.00     0.271 C 
BRANCH  14  15
HETATM   15  O   UNL     1     -42.863 -47.312  11.028  1.00  0.00    -0.377 OA
BRANCH  15  16
HETATM   16  C   UNL     1     -43.577 -46.989   9.843  1.00  0.00     0.122 C 
HETATM   17  C   UNL     1     -45.051 -47.414   9.833  1.00  0.00     0.032 C 
HETATM   18  C   UNL     1     -45.314 -48.043   8.464  1.00  0.00     0.002 C 
HETATM   19  C   UNL     1     -44.049 -47.822   7.649  1.00  0.00     0.002 C 
HETATM   20  C   UNL     1     -42.952 -47.771   8.693  1.00  0.00     0.032 C 
ENDBRANCH  15  16
ENDBRANCH  14  15
ENDBRANCH   2  14
TORSDOF 5
ENDMDL
MODEL 8
REMARK VINA RESULT:      -4.5      3.137      7.279
REMARK  5 active torsions:
REMARK  status: ('A' for Active; 'I' for Inactive)
REMARK    1  A    between atoms: S_2  and  C_3 
REMARK    2  A    between atoms: C_6  and  N_7 
REMARK       I    between atoms: N_7  and  C_8 
REMARK    3  A    between atoms: C_8  and  C_10 
REMARK    4  A    between atoms: C_10  and  O_11 
REMARK    5  A    between atoms: O_11  and  C_12 
ROOT
HETATM    1  N   UNL     1     -42.522 -49.762  12.182  1.00  0.00    -0.311 N 
HETATM    2  C   UNL     1     -41.231 -49.659  11.687  1.00  0.00     0.246 C 
HETATM    3  O   UNL     1     -40.448 -50.578  11.460  1.00  0.00    -0.271 OA
HETATM    4  H   UNL     1     -43.097 -48.936  12.166  1.00  0.00     0.170 HD
ENDROOT
BRANCH   1   5
HETATM    5  C   UNL     1     -43.093 -50.959  12.631  1.00  0.00     0.107 A 
HETATM    6  C   UNL     1     -44.034 -50.899  13.655  1.00  0.00     0.050 A 
HETATM    7  C   UNL     1     -44.691 -52.072  14.042  1.00  0.00     0.023 A 
HETATM    8  C   UNL     1     -44.372 -53.278  13.424  1.00  0.00     0.015 A 
HETATM    9  C   UNL     1     -43.356 -53.248  12.481  1.00  0.00     0.108 A 
HETATM   10  N   UNL     1     -42.735 -52.123  12.065  1.00  0.00    -0.351 N 
ATOM     11  HN  UNL     1     -42.016 -52.156  11.343  1.00  0.00     0.166 HD
BRANCH   8  12
HETATM   12  S   UNL     1     -45.249 -54.770  13.822  1.00  0.00    -0.133 SA
HETATM   13  C   UNL     1     -46.270 -54.153  15.196  1.00  0.00     0.095 C 
ENDBRANCH   8  12
ENDBRANCH   1   5
BRANCH   2  14
HETATM   14  C   UNL     1     -40.867 -48.224  11.303  1.00  0.00     0.271 C 
BRANCH  14  15
HETATM   15  O   UNL     1     -41.733 -47.312  11.963  1.00  0.00    -0.377 OA
BRANCH  15  16
HETATM   16  C   UNL     1     -41.352 -45.948  11.846  1.00  0.00     0.122 C 
HETATM   17  C   UNL     1     -40.975 -45.495  10.429  1.00  0.00     0.032 C 
HETATM   18  C   UNL     1     -39.700 -44.662  10.563  1.00  0.00     0.002 C 
HETATM   19  C   UNL     1     -39.453 -44.504  12.056  1.00  0.00     0.002 C 
HETATM   20  C   UNL     1     -40.076 -45.748  12.657  1.00  0.00     0.032 C 
ENDBRANCH  15  16
ENDBRANCH  14  15
ENDBRANCH   2  14
TORSDOF 5
ENDMDL
MODEL 9
REMARK VINA RESULT:      -4.5      3.507      7.413
REMARK  5 active torsions:
REMARK  status: ('A' for Active; 'I' for Inactive)
REMARK    1  A    between atoms: S_2  and  C_3 
REMARK    2  A    between atoms: C_6  and  N_7 
REMARK       I    between atoms: N_7  and  C_8 
REMARK    3  A    between atoms: C_8  and  C_10 
REMARK    4  A    between atoms: C_10  and  O_11 
REMARK    5  A    between atoms: O_11  and  C_12 
ROOT
HETATM    1  N   UNL     1     -41.078 -50.676  11.597  1.00  0.00    -0.311 N 
HETATM    2  C   UNL     1     -40.484 -49.635  12.292  1.00  0.00     0.246 C 
HETATM    3  O   UNL     1     -40.352 -49.536  13.509  1.00  0.00    -0.271 OA
HETATM    4  H   UNL     1     -40.971 -50.692  10.596  1.00  0.00     0.170 HD
ENDROOT
BRANCH   1   5
HETATM    5  C   UNL     1     -41.752 -51.740  12.208  1.00  0.00     0.107 A 
HETATM    6  C   UNL     1     -41.023 -52.878  12.545  1.00  0.00     0.050 A 
HETATM    7  C   UNL     1     -41.657 -53.905  13.251  1.00  0.00     0.023 A 
HETATM    8  C   UNL     1     -43.006 -53.791  13.575  1.00  0.00     0.015 A 
HETATM    9  C   UNL     1     -43.666 -52.661  13.114  1.00  0.00     0.108 A 
HETATM   10  N   UNL     1     -43.066 -51.640  12.465  1.00  0.00    -0.351 N 
ATOM     11  HN  UNL     1     -43.595 -50.818  12.178  1.00  0.00     0.166 HD
BRANCH   8  12
HETATM   12  S   UNL     1     -43.822 -55.031  14.550  1.00  0.00    -0.133 SA
HETATM   13  C   UNL     1     -45.477 -54.954  13.798  1.00  0.00     0.095 C 
ENDBRANCH   8  12
ENDBRANCH   1   5
BRANCH   2  14
HETATM   14  C   UNL     1     -39.851 -48.599  11.362  1.00  0.00     0.271 C 
BRANCH  14  15
HETATM   15  O   UNL     1     -40.825 -47.644  10.967  1.00  0.00    -0.377 OA
BRANCH  15  16
HETATM   16  C   UNL     1     -40.648 -46.354  11.536  1.00  0.00     0.122 C 
HETATM   17  C   UNL     1     -41.941 -45.560  11.767  1.00  0.00     0.032 C 
HETATM   18  C   UNL     1     -41.671 -44.136  11.279  1.00  0.00     0.002 C 
HETATM   19  C   UNL     1     -40.191 -44.082  10.932  1.00  0.00     0.002 C 
HETATM   20  C   UNL     1     -39.860 -45.508  10.541  1.00  0.00     0.032 C 
ENDBRANCH  15  16
ENDBRANCH  14  15
ENDBRANCH   2  14
TORSDOF 5
ENDMDL
