MODEL 1
REMARK VINA RESULT:      -6.5      0.000      0.000
REMARK  3 active torsions:
REMARK  status: ('A' for Active; 'I' for Inactive)
REMARK    1  A    between atoms: C_7  and  C_8 
REMARK    2  A    between atoms: C_8  and  C_9 
REMARK    3  A    between atoms: C_9  and  N_10 
REMARK       I    between atoms: N_10  and  C_11 
REMARK       I    between atoms: C_11  and  N_13 
ROOT
HETATM    1  N   UNL     1     -42.303 -47.895  11.387  1.00  0.00    -0.343 N 
HETATM    2  C   UNL     1     -40.941 -48.062  11.410  1.00  0.00     0.318 C 
HETATM    3  O   UNL     1     -40.178 -47.122  11.191  1.00  0.00    -0.247 OA
HETATM    4  N   UNL     1     -40.491 -49.334  11.691  1.00  0.00    -0.329 N 
HETATM    5  C   UNL     1     -41.290 -50.561  11.701  1.00  0.00     0.165 C 
HETATM    6  C   UNL     1     -40.786 -51.587  12.749  1.00  0.00     0.071 C 
HETATM    7  C   UNL     1     -41.308 -51.266  14.156  1.00  0.00     0.047 C 
HETATM    8  C   UNL     1     -41.322 -52.978  12.368  1.00  0.00     0.047 C 
HETATM    9  O   UNL     1     -39.351 -51.730  12.754  1.00  0.00    -0.367 OA
HETATM   10  C   UNL     1     -38.557 -50.527  12.691  1.00  0.00     0.071 C 
HETATM   11  C   UNL     1     -38.499 -49.804  14.044  1.00  0.00     0.047 C 
HETATM   12  C   UNL     1     -37.132 -51.000  12.355  1.00  0.00     0.047 C 
HETATM   13  C   UNL     1     -39.053 -49.588  11.577  1.00  0.00     0.165 C 
HETATM   14  H   UNL     1     -42.821 -48.478  12.023  1.00  0.00     0.164 HD
ENDROOT
BRANCH   1  15
HETATM   15  C   UNL     1     -42.829 -46.554  11.181  1.00  0.00     0.130 C 
BRANCH  15  16
HETATM   16  C   UNL     1     -43.268 -46.259   9.748  1.00  0.00     0.078 C 
BRANCH  16  17
HETATM   17  C   UNL     1     -44.393 -47.093   9.217  1.00  0.00     0.031 A 
HETATM   18  N   UNL     1     -44.330 -47.915   8.113  1.00  0.00    -0.301 N 
HETATM   19  C   UNL     1     -43.202 -48.182   7.252  1.00  0.00     0.177 C 
HETATM   20  N   UNL     1     -45.514 -48.482   7.807  1.00  0.00    -0.310 N 
HETATM   21  C   UNL     1     -46.350 -48.009   8.730  1.00  0.00     0.109 A 
ATOM     22  HN  UNL     1     -45.723 -49.126   7.044  1.00  0.00     0.186 HD
HETATM   23  C   UNL     1     -45.707 -47.151   9.636  1.00  0.00     0.045 A 
ENDBRANCH  16  17
ENDBRANCH  15  16
ENDBRANCH   1  15
TORSDOF 3
ENDMDL
MODEL 2
REMARK VINA RESULT:      -6.1      2.848      4.339
REMARK  3 active torsions:
REMARK  status: ('A' for Active; 'I' for Inactive)
REMARK    1  A    between atoms: C_7  and  C_8 
REMARK    2  A    between atoms: C_8  and  C_9 
REMARK    3  A    between atoms: C_9  and  N_10 
REMARK       I    between atoms: N_10  and  C_11 
REMARK       I    between atoms: C_11  and  N_13 
ROOT
HETATM    1  N   UNL     1     -42.234 -49.750  11.763  1.00  0.00    -0.343 N 
HETATM    2  C   UNL     1     -41.964 -51.030  12.179  1.00  0.00     0.318 C 
HETATM    3  O   UNL     1     -40.911 -51.591  11.876  1.00  0.00    -0.247 OA
HETATM    4  N   UNL     1     -42.935 -51.637  12.946  1.00  0.00    -0.329 N 
HETATM    5  C   UNL     1     -44.312 -51.175  13.136  1.00  0.00     0.165 C 
HETATM    6  C   UNL     1     -44.863 -51.525  14.543  1.00  0.00     0.071 C 
HETATM    7  C   UNL     1     -44.404 -50.513  15.602  1.00  0.00     0.047 C 
HETATM    8  C   UNL     1     -46.400 -51.470  14.492  1.00  0.00     0.047 C 
HETATM    9  O   UNL     1     -44.552 -52.872  14.953  1.00  0.00    -0.367 OA
HETATM   10  C   UNL     1     -43.212 -53.352  14.720  1.00  0.00     0.071 C 
HETATM   11  C   UNL     1     -42.216 -52.799  15.749  1.00  0.00     0.047 C 
HETATM   12  C   UNL     1     -43.287 -54.875  14.917  1.00  0.00     0.047 C 
HETATM   13  C   UNL     1     -42.754 -53.051  13.282  1.00  0.00     0.165 C 
HETATM   14  H   UNL     1     -42.786 -49.198  12.398  1.00  0.00     0.164 HD
ENDROOT
BRANCH   1  15
HETATM   15  C   UNL     1     -41.206 -49.035  11.025  1.00  0.00     0.130 C 
BRANCH  15  16
HETATM   16  C   UNL     1     -41.336 -47.513  11.069  1.00  0.00     0.078 C 
BRANCH  16  17
HETATM   17  C   UNL     1     -42.391 -46.915  10.191  1.00  0.00     0.031 A 
HETATM   18  N   UNL     1     -42.823 -45.607  10.233  1.00  0.00    -0.301 N 
HETATM   19  C   UNL     1     -42.361 -44.532  11.080  1.00  0.00     0.177 C 
HETATM   20  N   UNL     1     -43.845 -45.360   9.389  1.00  0.00    -0.310 N 
HETATM   21  C   UNL     1     -44.073 -46.533   8.802  1.00  0.00     0.109 A 
ATOM     22  HN  UNL     1     -44.332 -44.476   9.236  1.00  0.00     0.186 HD
HETATM   23  C   UNL     1     -43.196 -47.531   9.253  1.00  0.00     0.045 A 
ENDBRANCH  16  17
ENDBRANCH  15  16
ENDBRANCH   1  15
TORSDOF 3
ENDMDL
MODEL 3
REMARK VINA RESULT:      -6.0      3.421      5.216
REMARK  3 active torsions:
REMARK  status: ('A' for Active; 'I' for Inactive)
REMARK    1  A    between atoms: C_7  and  C_8 
REMARK    2  A    between atoms: C_8  and  C_9 
REMARK    3  A    between atoms: C_9  and  N_10 
REMARK       I    between atoms: N_10  and  C_11 
REMARK       I    between atoms: C_11  and  N_13 
ROOT
HETATM    1  N   UNL     1     -41.552 -50.304  13.161  1.00  0.00    -0.343 N 
HETATM    2  C   UNL     1     -42.785 -50.020  13.692  1.00  0.00     0.318 C 
HETATM    3  O   UNL     1     -43.198 -48.863  13.765  1.00  0.00    -0.247 OA
HETATM    4  N   UNL     1     -43.520 -51.100  14.132  1.00  0.00    -0.329 N 
HETATM    5  C   UNL     1     -43.029 -52.464  14.339  1.00  0.00     0.165 C 
HETATM    6  C   UNL     1     -44.115 -53.533  14.052  1.00  0.00     0.071 C 
HETATM    7  C   UNL     1     -44.237 -53.832  12.551  1.00  0.00     0.047 C 
HETATM    8  C   UNL     1     -43.706 -54.843  14.748  1.00  0.00     0.047 C 
HETATM    9  O   UNL     1     -45.400 -53.198  14.613  1.00  0.00    -0.367 OA
HETATM   10  C   UNL     1     -45.867 -51.842  14.459  1.00  0.00     0.071 C 
HETATM   11  C   UNL     1     -46.405 -51.576  13.046  1.00  0.00     0.047 C 
HETATM   12  C   UNL     1     -47.044 -51.705  15.439  1.00  0.00     0.047 C 
HETATM   13  C   UNL     1     -44.773 -50.829  14.840  1.00  0.00     0.165 C 
HETATM   14  H   UNL     1     -41.482 -51.185  12.679  1.00  0.00     0.164 HD
ENDROOT
BRANCH   1  15
HETATM   15  C   UNL     1     -40.773 -49.210  12.603  1.00  0.00     0.130 C 
BRANCH  15  16
HETATM   16  C   UNL     1     -40.897 -49.050  11.089  1.00  0.00     0.078 C 
BRANCH  16  17
HETATM   17  C   UNL     1     -41.694 -47.876  10.611  1.00  0.00     0.031 A 
HETATM   18  N   UNL     1     -41.241 -46.577  10.537  1.00  0.00    -0.301 N 
HETATM   19  C   UNL     1     -39.933 -46.058  10.863  1.00  0.00     0.177 C 
HETATM   20  N   UNL     1     -42.196 -45.706  10.154  1.00  0.00    -0.310 N 
HETATM   21  C   UNL     1     -43.279 -46.462   9.985  1.00  0.00     0.109 A 
ATOM     22  HN  UNL     1     -42.109 -44.697  10.023  1.00  0.00     0.186 HD
HETATM   23  C   UNL     1     -43.024 -47.817  10.245  1.00  0.00     0.045 A 
ENDBRANCH  16  17
ENDBRANCH  15  16
ENDBRANCH   1  15
TORSDOF 3
ENDMDL
MODEL 4
REMARK VINA RESULT:      -5.9      3.459      6.500
REMARK  3 active torsions:
REMARK  status: ('A' for Active; 'I' for Inactive)
REMARK    1  A    between atoms: C_7  and  C_8 
REMARK    2  A    between atoms: C_8  and  C_9 
REMARK    3  A    between atoms: C_9  and  N_10 
REMARK       I    between atoms: N_10  and  C_11 
REMARK       I    between atoms: C_11  and  N_13 
ROOT
HETATM    1  N   UNL     1     -41.692 -50.216  11.981  1.00  0.00    -0.343 N 
HETATM    2  C   UNL     1     -42.771 -49.876  12.758  1.00  0.00     0.318 C 
HETATM    3  O   UNL     1     -43.192 -48.721  12.796  1.00  0.00    -0.247 OA
HETATM    4  N   UNL     1     -43.345 -50.900  13.481  1.00  0.00    -0.329 N 
HETATM    5  C   UNL     1     -42.774 -52.228  13.717  1.00  0.00     0.165 C 
HETATM    6  C   UNL     1     -43.862 -53.328  13.823  1.00  0.00     0.071 C 
HETATM    7  C   UNL     1     -44.328 -53.803  12.440  1.00  0.00     0.047 C 
HETATM    8  C   UNL     1     -43.256 -54.545  14.544  1.00  0.00     0.047 C 
HETATM    9  O   UNL     1     -44.985 -52.935  14.636  1.00  0.00    -0.367 OA
HETATM   10  C   UNL     1     -45.520 -51.608  14.446  1.00  0.00     0.071 C 
HETATM   11  C   UNL     1     -46.388 -51.513  13.184  1.00  0.00     0.047 C 
HETATM   12  C   UNL     1     -46.433 -51.362  15.658  1.00  0.00     0.047 C 
HETATM   13  C   UNL     1     -44.400 -50.552  14.435  1.00  0.00     0.165 C 
HETATM   14  H   UNL     1     -41.710 -51.147  11.599  1.00  0.00     0.164 HD
ENDROOT
BRANCH   1  15
HETATM   15  C   UNL     1     -41.105 -49.191  11.132  1.00  0.00     0.130 C 
BRANCH  15  16
HETATM   16  C   UNL     1     -39.808 -48.589  11.670  1.00  0.00     0.078 C 
BRANCH  16  17
HETATM   17  C   UNL     1     -38.832 -49.551  12.271  1.00  0.00     0.031 A 
HETATM   18  N   UNL     1     -38.695 -49.820  13.616  1.00  0.00    -0.301 N 
HETATM   19  C   UNL     1     -39.448 -49.281  14.724  1.00  0.00     0.177 C 
HETATM   20  N   UNL     1     -37.679 -50.664  13.886  1.00  0.00    -0.310 N 
HETATM   21  C   UNL     1     -37.155 -50.935  12.692  1.00  0.00     0.109 A 
ATOM     22  HN  UNL     1     -37.381 -51.015  14.796  1.00  0.00     0.186 HD
HETATM   23  C   UNL     1     -37.835 -50.280  11.654  1.00  0.00     0.045 A 
ENDBRANCH  16  17
ENDBRANCH  15  16
ENDBRANCH   1  15
TORSDOF 3
ENDMDL
MODEL 5
REMARK VINA RESULT:      -5.7      4.001      5.485
REMARK  3 active torsions:
REMARK  status: ('A' for Active; 'I' for Inactive)
REMARK    1  A    between atoms: C_7  and  C_8 
REMARK    2  A    between atoms: C_8  and  C_9 
REMARK    3  A    between atoms: C_9  and  N_10 
REMARK       I    between atoms: N_10  and  C_11 
REMARK       I    between atoms: C_11  and  N_13 
ROOT
HETATM    1  N   UNL     1     -43.399 -51.405  13.186  1.00  0.00    -0.343 N 
HETATM    2  C   UNL     1     -42.287 -50.793  12.665  1.00  0.00     0.318 C 
HETATM    3  O   UNL     1     -42.363 -49.704  12.098  1.00  0.00    -0.247 OA
HETATM    4  N   UNL     1     -41.095 -51.468  12.818  1.00  0.00    -0.329 N 
HETATM    5  C   UNL     1     -40.929 -52.865  13.227  1.00  0.00     0.165 C 
HETATM    6  C   UNL     1     -39.629 -53.092  14.041  1.00  0.00     0.071 C 
HETATM    7  C   UNL     1     -39.808 -52.708  15.517  1.00  0.00     0.047 C 
HETATM    8  C   UNL     1     -39.281 -54.590  13.997  1.00  0.00     0.047 C 
HETATM    9  O   UNL     1     -38.483 -52.426  13.474  1.00  0.00    -0.367 OA
HETATM   10  C   UNL     1     -38.653 -51.067  13.020  1.00  0.00     0.071 C 
HETATM   11  C   UNL     1     -38.667 -50.069  14.186  1.00  0.00     0.047 C 
HETATM   12  C   UNL     1     -37.410 -50.767  12.166  1.00  0.00     0.047 C 
HETATM   13  C   UNL     1     -39.912 -50.924  12.147  1.00  0.00     0.165 C 
HETATM   14  H   UNL     1     -43.241 -51.958  14.012  1.00  0.00     0.164 HD
ENDROOT
BRANCH   1  15
HETATM   15  C   UNL     1     -44.667 -50.695  13.128  1.00  0.00     0.130 C 
BRANCH  15  16
HETATM   16  C   UNL     1     -45.898 -51.577  13.331  1.00  0.00     0.078 C 
BRANCH  16  17
HETATM   17  C   UNL     1     -46.018 -52.246  14.664  1.00  0.00     0.031 A 
HETATM   18  N   UNL     1     -45.837 -53.591  14.906  1.00  0.00    -0.301 N 
HETATM   19  C   UNL     1     -45.474 -54.633  13.974  1.00  0.00     0.177 C 
HETATM   20  N   UNL     1     -46.092 -53.938  16.183  1.00  0.00    -0.310 N 
HETATM   21  C   UNL     1     -46.448 -52.794  16.767  1.00  0.00     0.109 A 
ATOM     22  HN  UNL     1     -46.028 -54.864  16.607  1.00  0.00     0.186 HD
HETATM   23  C   UNL     1     -46.411 -51.711  15.875  1.00  0.00     0.045 A 
ENDBRANCH  16  17
ENDBRANCH  15  16
ENDBRANCH   1  15
TORSDOF 3
ENDMDL
MODEL 6
REMARK VINA RESULT:      -5.6      3.598      5.688
REMARK  3 active torsions:
REMARK  status: ('A' for Active; 'I' for Inactive)
REMARK    1  A    between atoms: C_7  and  C_8 
REMARK    2  A    between atoms: C_8  and  C_9 
REMARK    3  A    between atoms: C_9  and  N_10 
REMARK       I    between atoms: N_10  and  C_11 
REMARK       I    between atoms: C_11  and  N_13 
ROOT
HETATM    1  N   UNL     1     -42.659 -49.591  14.323  1.00  0.00    -0.343 N 
HETATM    2  C   UNL     1     -42.572 -50.949  14.496  1.00  0.00     0.318 C 
HETATM    3  O   UNL     1     -41.604 -51.461  15.058  1.00  0.00    -0.247 OA
HETATM    4  N   UNL     1     -43.624 -51.692  14.005  1.00  0.00    -0.329 N 
HETATM    5  C   UNL     1     -44.675 -51.225  13.099  1.00  0.00     0.165 C 
HETATM    6  C   UNL     1     -46.033 -51.930  13.355  1.00  0.00     0.071 C 
HETATM    7  C   UNL     1     -46.794 -51.291  14.525  1.00  0.00     0.047 C 
HETATM    8  C   UNL     1     -46.908 -51.772  12.099  1.00  0.00     0.047 C 
HETATM    9  O   UNL     1     -45.904 -53.353  13.543  1.00  0.00    -0.367 OA
HETATM   10  C   UNL     1     -44.837 -53.824  14.393  1.00  0.00     0.071 C 
HETATM   11  C   UNL     1     -45.167 -53.647  15.882  1.00  0.00     0.047 C 
HETATM   12  C   UNL     1     -44.733 -55.332  14.115  1.00  0.00     0.047 C 
HETATM   13  C   UNL     1     -43.500 -53.151  14.034  1.00  0.00     0.165 C 
HETATM   14  H   UNL     1     -43.591 -49.211  14.346  1.00  0.00     0.164 HD
ENDROOT
BRANCH   1  15
HETATM   15  C   UNL     1     -41.618 -48.755  14.898  1.00  0.00     0.130 C 
BRANCH  15  16
HETATM   16  C   UNL     1     -40.727 -48.055  13.872  1.00  0.00     0.078 C 
BRANCH  16  17
HETATM   17  C   UNL     1     -41.088 -48.262  12.435  1.00  0.00     0.031 A 
HETATM   18  N   UNL     1     -40.619 -49.277  11.628  1.00  0.00    -0.301 N 
HETATM   19  C   UNL     1     -39.724 -50.358  11.969  1.00  0.00     0.177 C 
HETATM   20  N   UNL     1     -41.039 -49.174  10.351  1.00  0.00    -0.310 N 
HETATM   21  C   UNL     1     -41.785 -48.071  10.341  1.00  0.00     0.109 A 
ATOM     22  HN  UNL     1     -40.832 -49.799   9.571  1.00  0.00     0.186 HD
HETATM   23  C   UNL     1     -41.859 -47.470  11.607  1.00  0.00     0.045 A 
ENDBRANCH  16  17
ENDBRANCH  15  16
ENDBRANCH   1  15
TORSDOF 3
ENDMDL
MODEL 7
REMARK VINA RESULT:      -5.6      2.824      4.247
REMARK  3 active torsions:
REMARK  status: ('A' for Active; 'I' for Inactive)
REMARK    1  A    between atoms: C_7  and  C_8 
REMARK    2  A    between atoms: C_8  and  C_9 
REMARK    3  A    between atoms: C_9  and  N_10 
REMARK       I    between atoms: N_10  and  C_11 
REMARK       I    between atoms: C_11  and  N_13 
ROOT
HETATM    1  N   UNL     1     -41.288 -51.337  12.358  1.00  0.00    -0.343 N 
HETATM    2  C   UNL     1     -40.189 -52.005  12.838  1.00  0.00     0.318 C 
HETATM    3  O   UNL     1     -39.048 -51.646  12.552  1.00  0.00    -0.247 OA
HETATM    4  N   UNL     1     -40.445 -53.090  13.650  1.00  0.00    -0.329 N 
HETATM    5  C   UNL     1     -41.735 -53.757  13.834  1.00  0.00     0.165 C 
HETATM    6  C   UNL     1     -41.905 -54.331  15.265  1.00  0.00     0.071 C 
HETATM    7  C   UNL     1     -42.350 -53.251  16.261  1.00  0.00     0.047 C 
HETATM    8  C   UNL     1     -43.006 -55.405  15.232  1.00  0.00     0.047 C 
HETATM    9  O   UNL     1     -40.730 -55.016  15.742  1.00  0.00    -0.367 OA
HETATM   10  C   UNL     1     -39.450 -54.389  15.517  1.00  0.00     0.071 C 
HETATM   11  C   UNL     1     -39.191 -53.240  16.501  1.00  0.00     0.047 C 
HETATM   12  C   UNL     1     -38.408 -55.485  15.796  1.00  0.00     0.047 C 
HETATM   13  C   UNL     1     -39.308 -53.918  14.059  1.00  0.00     0.165 C 
HETATM   14  H   UNL     1     -42.087 -51.325  12.970  1.00  0.00     0.164 HD
ENDROOT
BRANCH   1  15
HETATM   15  C   UNL     1     -41.072 -50.135  11.569  1.00  0.00     0.130 C 
BRANCH  15  16
HETATM   16  C   UNL     1     -41.947 -48.948  11.969  1.00  0.00     0.078 C 
BRANCH  16  17
HETATM   17  C   UNL     1     -42.172 -47.909  10.915  1.00  0.00     0.031 A 
HETATM   18  N   UNL     1     -41.309 -46.878  10.609  1.00  0.00    -0.301 N 
HETATM   19  C   UNL     1     -40.020 -46.580  11.187  1.00  0.00     0.177 C 
HETATM   20  N   UNL     1     -41.801 -46.037   9.677  1.00  0.00    -0.310 N 
HETATM   21  C   UNL     1     -43.001 -46.537   9.387  1.00  0.00     0.109 A 
ATOM     22  HN  UNL     1     -41.356 -45.207   9.284  1.00  0.00     0.186 HD
HETATM   23  C   UNL     1     -43.280 -47.702  10.117  1.00  0.00     0.045 A 
ENDBRANCH  16  17
ENDBRANCH  15  16
ENDBRANCH   1  15
TORSDOF 3
ENDMDL
MODEL 8
REMARK VINA RESULT:      -5.5      3.492      6.320
REMARK  3 active torsions:
REMARK  status: ('A' for Active; 'I' for Inactive)
REMARK    1  A    between atoms: C_7  and  C_8 
REMARK    2  A    between atoms: C_8  and  C_9 
REMARK    3  A    between atoms: C_9  and  N_10 
REMARK       I    between atoms: N_10  and  C_11 
REMARK       I    between atoms: C_11  and  N_13 
ROOT
HETATM    1  N   UNL     1     -41.890 -50.201  11.772  1.00  0.00    -0.343 N 
HETATM    2  C   UNL     1     -41.772 -51.491  12.225  1.00  0.00     0.318 C 
HETATM    3  O   UNL     1     -40.765 -52.159  11.995  1.00  0.00    -0.247 OA
HETATM    4  N   UNL     1     -42.841 -51.982  12.945  1.00  0.00    -0.329 N 
HETATM    5  C   UNL     1     -44.173 -51.383  13.046  1.00  0.00     0.165 C 
HETATM    6  C   UNL     1     -44.835 -51.643  14.424  1.00  0.00     0.071 C 
HETATM    7  C   UNL     1     -44.339 -50.656  15.490  1.00  0.00     0.047 C 
HETATM    8  C   UNL     1     -46.354 -51.439  14.283  1.00  0.00     0.047 C 
HETATM    9  O   UNL     1     -44.683 -53.004  14.876  1.00  0.00    -0.367 OA
HETATM   10  C   UNL     1     -43.386 -53.618  14.731  1.00  0.00     0.071 C 
HETATM   11  C   UNL     1     -42.399 -53.141  15.806  1.00  0.00     0.047 C 
HETATM   12  C   UNL     1     -43.622 -55.122  14.951  1.00  0.00     0.047 C 
HETATM   13  C   UNL     1     -42.819 -53.398  13.317  1.00  0.00     0.165 C 
HETATM   14  H   UNL     1     -42.420 -49.582  12.363  1.00  0.00     0.164 HD
ENDROOT
BRANCH   1  15
HETATM   15  C   UNL     1     -40.756 -49.607  11.081  1.00  0.00     0.130 C 
BRANCH  15  16
HETATM   16  C   UNL     1     -39.942 -48.628  11.926  1.00  0.00     0.078 C 
BRANCH  16  17
HETATM   17  C   UNL     1     -39.137 -49.226  13.038  1.00  0.00     0.031 A 
HETATM   18  N   UNL     1     -39.535 -49.323  14.354  1.00  0.00    -0.301 N 
HETATM   19  C   UNL     1     -40.785 -48.912  14.949  1.00  0.00     0.177 C 
HETATM   20  N   UNL     1     -38.579 -49.826  15.159  1.00  0.00    -0.310 N 
HETATM   21  C   UNL     1     -37.550 -50.050  14.344  1.00  0.00     0.109 A 
ATOM     22  HN  UNL     1     -38.631 -49.996  16.164  1.00  0.00     0.186 HD
HETATM   23  C   UNL     1     -37.842 -49.705  13.015  1.00  0.00     0.045 A 
ENDBRANCH  16  17
ENDBRANCH  15  16
ENDBRANCH   1  15
TORSDOF 3
ENDMDL
MODEL 9
REMARK VINA RESULT:      -5.5      5.568      9.665
REMARK  3 active torsions:
REMARK  status: ('A' for Active; 'I' for Inactive)
REMARK    1  A    between atoms: C_7  and  C_8 
REMARK    2  A    between atoms: C_8  and  C_9 
REMARK    3  A    between atoms: C_9  and  N_10 
REMARK       I    between atoms: N_10  and  C_11 
REMARK       I    between atoms: C_11  and  N_13 
ROOT
HETATM    1  N   UNL     1     -42.671 -54.596  15.278  1.00  0.00    -0.343 N 
HETATM    2  C   UNL     1     -43.840 -54.505  14.564  1.00  0.00     0.318 C 
HETATM    3  O   UNL     1     -44.631 -55.446  14.511  1.00  0.00    -0.247 OA
HETATM    4  N   UNL     1     -44.066 -53.308  13.919  1.00  0.00    -0.329 N 
HETATM    5  C   UNL     1     -43.089 -52.240  13.694  1.00  0.00     0.165 C 
HETATM    6  C   UNL     1     -43.740 -50.832  13.702  1.00  0.00     0.071 C 
HETATM    7  C   UNL     1     -43.946 -50.309  15.131  1.00  0.00     0.047 C 
HETATM    8  C   UNL     1     -42.793 -49.852  12.988  1.00  0.00     0.047 C 
HETATM    9  O   UNL     1     -44.970 -50.775  12.954  1.00  0.00    -0.367 OA
HETATM   10  C   UNL     1     -45.915 -51.851  13.130  1.00  0.00     0.071 C 
HETATM   11  C   UNL     1     -46.698 -51.721  14.444  1.00  0.00     0.047 C 
HETATM   12  C   UNL     1     -46.918 -51.704  11.974  1.00  0.00     0.047 C 
HETATM   13  C   UNL     1     -45.223 -53.222  13.026  1.00  0.00     0.165 C 
HETATM   14  H   UNL     1     -42.351 -53.737  15.694  1.00  0.00     0.164 HD
ENDROOT
BRANCH   1  15
HETATM   15  C   UNL     1     -42.426 -55.806  16.047  1.00  0.00     0.130 C 
BRANCH  15  16
HETATM   16  C   UNL     1     -41.602 -55.595  17.316  1.00  0.00     0.078 C 
BRANCH  16  17
HETATM   17  C   UNL     1     -40.115 -55.597  17.145  1.00  0.00     0.031 A 
HETATM   18  N   UNL     1     -39.293 -56.695  17.285  1.00  0.00    -0.301 N 
HETATM   19  C   UNL     1     -39.656 -58.059  17.591  1.00  0.00     0.177 C 
HETATM   20  N   UNL     1     -37.984 -56.395  17.161  1.00  0.00    -0.310 N 
HETATM   21  C   UNL     1     -37.970 -55.081  16.943  1.00  0.00     0.109 A 
ATOM     22  HN  UNL     1     -37.188 -57.030  17.221  1.00  0.00     0.186 HD
HETATM   23  C   UNL     1     -39.263 -54.535  16.913  1.00  0.00     0.045 A 
ENDBRANCH  16  17
ENDBRANCH  15  16
ENDBRANCH   1  15
TORSDOF 3
ENDMDL
