MODEL 1
REMARK VINA RESULT:      -6.9      0.000      0.000
REMARK  8 active torsions:
REMARK  status: ('A' for Active; 'I' for Inactive)
REMARK    1  A    between atoms: N_1  and  C_7 
REMARK    2  A    between atoms: N_2  and  C_9 
REMARK    3  A    between atoms: C_7  and  C_8 
REMARK       I    between atoms: C_8  and  N_10 
REMARK    4  A    between atoms: N_10  and  C_14 
REMARK    5  A    between atoms: N_10  and  C_17 
REMARK    6  A    between atoms: C_14  and  C_19 
REMARK    7  A    between atoms: C_17  and  C_18 
REMARK    8  A    between atoms: C_18  and  C_20 
ROOT
HETATM    1  C   UNL     1     -39.299 -53.177  14.380  1.00  0.00     0.238 C 
HETATM    2  N   UNL     1     -40.446 -53.473  15.140  1.00  0.00    -0.346 N 
HETATM    3  O   UNL     1     -38.779 -54.026  13.652  1.00  0.00    -0.272 OA
ENDROOT
BRANCH   1   4
HETATM    4  C   UNL     1     -38.706 -51.725  14.511  1.00  0.00     0.240 C 
BRANCH   4   5
HETATM    5  N   UNL     1     -38.796 -50.813  13.363  1.00  0.00    -0.255 N 
HETATM    6  C   UNL     1     -39.455 -49.610  13.565  1.00  0.00     0.334 C 
HETATM    7  N   UNL     1     -39.717 -48.896  12.391  1.00  0.00    -0.279 N 
HETATM    8  O   UNL     1     -39.757 -49.186  14.677  1.00  0.00    -0.246 OA
HETATM    9  C   UNL     1     -38.813 -48.918  11.365  1.00  0.00     0.146 C 
HETATM   10  C   UNL     1     -37.800 -49.781  11.385  1.00  0.00     0.200 C 
HETATM   11  C   UNL     1     -37.771 -50.857  12.425  1.00  0.00     0.292 C 
HETATM   12  F   UNL     1     -36.788 -49.748  10.493  1.00  0.00    -0.199 F 
HETATM   13  O   UNL     1     -36.847 -51.667  12.453  1.00  0.00    -0.264 OA
BRANCH   7  14
HETATM   14  C   UNL     1     -40.954 -48.150  12.369  1.00  0.00     0.232 C 
HETATM   15  O   UNL     1     -42.106 -48.982  12.150  1.00  0.00    -0.366 OA
HETATM   16  C   UNL     1     -43.161 -48.109  11.701  1.00  0.00     0.170 C 
HETATM   17  C   UNL     1     -42.536 -46.762  11.377  1.00  0.00     0.031 C 
HETATM   18  C   UNL     1     -41.061 -47.071  11.313  1.00  0.00     0.056 C 
ENDBRANCH   7  14
ENDBRANCH   4   5
ENDBRANCH   1   4
BRANCH   2  19
HETATM   19  C   UNL     1     -40.928 -52.573  16.199  1.00  0.00     0.164 C 
BRANCH  19  20
HETATM   20  C   UNL     1     -42.285 -51.934  16.003  1.00  0.00    -0.040 A 
HETATM   21  C   UNL     1     -43.318 -52.314  16.881  1.00  0.00     0.009 A 
HETATM   22  C   UNL     1     -44.593 -51.754  16.790  1.00  0.00     0.001 A 
HETATM   23  C   UNL     1     -44.855 -50.784  15.830  1.00  0.00     0.000 A 
HETATM   24  C   UNL     1     -43.829 -50.349  14.991  1.00  0.00     0.001 A 
HETATM   25  C   UNL     1     -42.547 -50.912  15.081  1.00  0.00     0.009 A 
ENDBRANCH  19  20
ENDBRANCH   2  19
BRANCH   2  26
HETATM   26  C   UNL     1     -41.510 -54.366  14.625  1.00  0.00     0.130 C 
BRANCH  26  27
HETATM   27  C   UNL     1     -42.223 -54.197  13.268  1.00  0.00     0.058 C 
BRANCH  27  28
HETATM   28  C   UNL     1     -43.743 -53.961  13.377  1.00  0.00    -0.057 A 
HETATM   29  C   UNL     1     -44.572 -54.625  14.297  1.00  0.00     0.007 A 
HETATM   30  C   UNL     1     -45.931 -54.291  14.427  1.00  0.00     0.001 A 
HETATM   31  C   UNL     1     -46.496 -53.307  13.622  1.00  0.00     0.000 A 
HETATM   32  C   UNL     1     -45.705 -52.670  12.669  1.00  0.00     0.001 A 
HETATM   33  C   UNL     1     -44.347 -53.001  12.543  1.00  0.00     0.007 A 
ENDBRANCH  27  28
ENDBRANCH  26  27
ENDBRANCH   2  26
TORSDOF 8
ENDMDL
MODEL 2
REMARK VINA RESULT:      -6.9      2.482      3.714
REMARK  8 active torsions:
REMARK  status: ('A' for Active; 'I' for Inactive)
REMARK    1  A    between atoms: N_1  and  C_7 
REMARK    2  A    between atoms: N_2  and  C_9 
REMARK    3  A    between atoms: C_7  and  C_8 
REMARK       I    between atoms: C_8  and  N_10 
REMARK    4  A    between atoms: N_10  and  C_14 
REMARK    5  A    between atoms: N_10  and  C_17 
REMARK    6  A    between atoms: C_14  and  C_19 
REMARK    7  A    between atoms: C_17  and  C_18 
REMARK    8  A    between atoms: C_18  and  C_20 
ROOT
HETATM    1  C   UNL     1     -40.892 -49.688  13.804  1.00  0.00     0.238 C 
HETATM    2  N   UNL     1     -41.830 -50.513  13.155  1.00  0.00    -0.346 N 
HETATM    3  O   UNL     1     -39.806 -50.133  14.184  1.00  0.00    -0.272 OA
ENDROOT
BRANCH   1   4
HETATM    4  C   UNL     1     -41.294 -48.184  14.033  1.00  0.00     0.240 C 
BRANCH   4   5
HETATM    5  N   UNL     1     -40.886 -47.179  13.043  1.00  0.00    -0.255 N 
HETATM    6  C   UNL     1     -41.878 -46.667  12.219  1.00  0.00     0.334 C 
HETATM    7  N   UNL     1     -41.397 -45.903  11.150  1.00  0.00    -0.279 N 
HETATM    8  O   UNL     1     -43.076 -46.839  12.423  1.00  0.00    -0.246 OA
HETATM    9  C   UNL     1     -40.293 -45.114  11.320  1.00  0.00     0.146 C 
HETATM   10  C   UNL     1     -39.550 -45.231  12.417  1.00  0.00     0.200 C 
HETATM   11  C   UNL     1     -39.805 -46.365  13.360  1.00  0.00     0.292 C 
HETATM   12  F   UNL     1     -38.549 -44.379  12.723  1.00  0.00    -0.199 F 
HETATM   13  O   UNL     1     -39.121 -46.494  14.374  1.00  0.00    -0.264 OA
BRANCH   7  14
HETATM   14  C   UNL     1     -42.147 -46.000   9.919  1.00  0.00     0.232 C 
HETATM   15  O   UNL     1     -43.271 -45.104   9.875  1.00  0.00    -0.366 OA
HETATM   16  C   UNL     1     -44.157 -45.610   8.858  1.00  0.00     0.170 C 
HETATM   17  C   UNL     1     -43.678 -47.002   8.482  1.00  0.00     0.031 C 
HETATM   18  C   UNL     1     -42.735 -47.359   9.604  1.00  0.00     0.056 C 
ENDBRANCH   7  14
ENDBRANCH   4   5
ENDBRANCH   1   4
BRANCH   2  19
HETATM   19  C   UNL     1     -43.217 -50.078  12.926  1.00  0.00     0.164 C 
BRANCH  19  20
HETATM   20  C   UNL     1     -44.281 -50.645  13.840  1.00  0.00    -0.040 A 
HETATM   21  C   UNL     1     -45.525 -50.972  13.268  1.00  0.00     0.009 A 
HETATM   22  C   UNL     1     -46.554 -51.526  14.031  1.00  0.00     0.001 A 
HETATM   23  C   UNL     1     -46.350 -51.785  15.381  1.00  0.00     0.000 A 
HETATM   24  C   UNL     1     -45.105 -51.526  15.953  1.00  0.00     0.001 A 
HETATM   25  C   UNL     1     -44.070 -50.968  15.187  1.00  0.00     0.009 A 
ENDBRANCH  19  20
ENDBRANCH   2  19
BRANCH   2  26
HETATM   26  C   UNL     1     -41.409 -51.584  12.223  1.00  0.00     0.130 C 
BRANCH  26  27
HETATM   27  C   UNL     1     -41.115 -53.043  12.631  1.00  0.00     0.058 C 
BRANCH  27  28
HETATM   28  C   UNL     1     -42.314 -53.778  13.262  1.00  0.00    -0.057 A 
HETATM   29  C   UNL     1     -42.305 -54.316  14.560  1.00  0.00     0.007 A 
HETATM   30  C   UNL     1     -43.462 -54.879  15.125  1.00  0.00     0.001 A 
HETATM   31  C   UNL     1     -44.645 -54.940  14.396  1.00  0.00     0.000 A 
HETATM   32  C   UNL     1     -44.664 -54.457  13.090  1.00  0.00     0.001 A 
HETATM   33  C   UNL     1     -43.510 -53.891  12.528  1.00  0.00     0.007 A 
ENDBRANCH  27  28
ENDBRANCH  26  27
ENDBRANCH   2  26
TORSDOF 8
ENDMDL
MODEL 3
REMARK VINA RESULT:      -6.7      2.352      5.525
REMARK  8 active torsions:
REMARK  status: ('A' for Active; 'I' for Inactive)
REMARK    1  A    between atoms: N_1  and  C_7 
REMARK    2  A    between atoms: N_2  and  C_9 
REMARK    3  A    between atoms: C_7  and  C_8 
REMARK       I    between atoms: C_8  and  N_10 
REMARK    4  A    between atoms: N_10  and  C_14 
REMARK    5  A    between atoms: N_10  and  C_17 
REMARK    6  A    between atoms: C_14  and  C_19 
REMARK    7  A    between atoms: C_17  and  C_18 
REMARK    8  A    between atoms: C_18  and  C_20 
ROOT
HETATM    1  C   UNL     1     -40.751 -50.386  12.847  1.00  0.00     0.238 C 
HETATM    2  N   UNL     1     -41.968 -51.015  12.522  1.00  0.00    -0.346 N 
HETATM    3  O   UNL     1     -40.671 -49.158  12.934  1.00  0.00    -0.272 OA
ENDROOT
BRANCH   1   4
HETATM    4  C   UNL     1     -39.503 -51.315  13.081  1.00  0.00     0.240 C 
BRANCH   4   5
HETATM    5  N   UNL     1     -39.229 -51.813  14.435  1.00  0.00    -0.255 N 
HETATM    6  C   UNL     1     -39.101 -53.185  14.587  1.00  0.00     0.334 C 
HETATM    7  N   UNL     1     -39.081 -53.615  15.918  1.00  0.00    -0.279 N 
HETATM    8  O   UNL     1     -38.983 -53.959  13.641  1.00  0.00    -0.246 OA
HETATM    9  C   UNL     1     -38.471 -52.847  16.872  1.00  0.00     0.146 C 
HETATM   10  C   UNL     1     -38.092 -51.604  16.587  1.00  0.00     0.200 C 
HETATM   11  C   UNL     1     -38.519 -50.983  15.294  1.00  0.00     0.292 C 
HETATM   12  F   UNL     1     -37.345 -50.853  17.423  1.00  0.00    -0.199 F 
HETATM   13  O   UNL     1     -38.185 -49.832  15.019  1.00  0.00    -0.264 OA
BRANCH   7  14
HETATM   14  C   UNL     1     -39.710 -54.889  16.179  1.00  0.00     0.232 C 
HETATM   15  O   UNL     1     -40.740 -54.812  17.179  1.00  0.00    -0.366 OA
HETATM   16  C   UNL     1     -40.945 -56.155  17.659  1.00  0.00     0.170 C 
HETATM   17  C   UNL     1     -39.809 -57.012  17.127  1.00  0.00     0.031 C 
HETATM   18  C   UNL     1     -38.796 -55.994  16.662  1.00  0.00     0.056 C 
ENDBRANCH   7  14
ENDBRANCH   4   5
ENDBRANCH   1   4
BRANCH   2  19
HETATM   19  C   UNL     1     -42.032 -52.440  12.162  1.00  0.00     0.164 C 
BRANCH  19  20
HETATM   20  C   UNL     1     -42.932 -53.326  12.995  1.00  0.00    -0.040 A 
HETATM   21  C   UNL     1     -44.183 -53.678  12.453  1.00  0.00     0.009 A 
HETATM   22  C   UNL     1     -45.064 -54.514  13.141  1.00  0.00     0.001 A 
HETATM   23  C   UNL     1     -44.700 -55.034  14.377  1.00  0.00     0.000 A 
HETATM   24  C   UNL     1     -43.441 -54.748  14.902  1.00  0.00     0.001 A 
HETATM   25  C   UNL     1     -42.555 -53.906  14.213  1.00  0.00     0.009 A 
ENDBRANCH  19  20
ENDBRANCH   2  19
BRANCH   2  26
HETATM   26  C   UNL     1     -43.266 -50.491  13.006  1.00  0.00     0.130 C 
BRANCH  26  27
HETATM   27  C   UNL     1     -43.571 -50.099  14.466  1.00  0.00     0.058 C 
BRANCH  27  28
HETATM   28  C   UNL     1     -44.711 -50.909  15.115  1.00  0.00    -0.057 A 
HETATM   29  C   UNL     1     -45.948 -51.152  14.492  1.00  0.00     0.007 A 
HETATM   30  C   UNL     1     -46.910 -51.989  15.083  1.00  0.00     0.001 A 
HETATM   31  C   UNL     1     -46.668 -52.578  16.320  1.00  0.00     0.000 A 
HETATM   32  C   UNL     1     -45.469 -52.312  16.978  1.00  0.00     0.001 A 
HETATM   33  C   UNL     1     -44.507 -51.480  16.385  1.00  0.00     0.007 A 
ENDBRANCH  27  28
ENDBRANCH  26  27
ENDBRANCH   2  26
TORSDOF 8
ENDMDL
MODEL 4
REMARK VINA RESULT:      -6.4      2.582      3.083
REMARK  8 active torsions:
REMARK  status: ('A' for Active; 'I' for Inactive)
REMARK    1  A    between atoms: N_1  and  C_7 
REMARK    2  A    between atoms: N_2  and  C_9 
REMARK    3  A    between atoms: C_7  and  C_8 
REMARK       I    between atoms: C_8  and  N_10 
REMARK    4  A    between atoms: N_10  and  C_14 
REMARK    5  A    between atoms: N_10  and  C_17 
REMARK    6  A    between atoms: C_14  and  C_19 
REMARK    7  A    between atoms: C_17  and  C_18 
REMARK    8  A    between atoms: C_18  and  C_20 
ROOT
HETATM    1  C   UNL     1     -40.703 -51.126  15.116  1.00  0.00     0.238 C 
HETATM    2  N   UNL     1     -41.669 -51.323  14.111  1.00  0.00    -0.346 N 
HETATM    3  O   UNL     1     -39.986 -52.053  15.502  1.00  0.00    -0.272 OA
ENDROOT
BRANCH   1   4
HETATM    4  C   UNL     1     -40.590 -49.682  15.730  1.00  0.00     0.240 C 
BRANCH   4   5
HETATM    5  N   UNL     1     -39.657 -48.722  15.125  1.00  0.00    -0.255 N 
HETATM    6  C   UNL     1     -40.185 -47.513  14.700  1.00  0.00     0.334 C 
HETATM    7  N   UNL     1     -39.309 -46.746  13.925  1.00  0.00    -0.279 N 
HETATM    8  O   UNL     1     -41.311 -47.128  15.002  1.00  0.00    -0.246 OA
HETATM    9  C   UNL     1     -37.970 -46.749  14.206  1.00  0.00     0.146 C 
HETATM   10  C   UNL     1     -37.469 -47.636  15.062  1.00  0.00     0.200 C 
HETATM   11  C   UNL     1     -38.335 -48.753  15.554  1.00  0.00     0.292 C 
HETATM   12  F   UNL     1     -36.196 -47.592  15.506  1.00  0.00    -0.199 F 
HETATM   13  O   UNL     1     -37.885 -49.586  16.338  1.00  0.00    -0.264 OA
BRANCH   7  14
HETATM   14  C   UNL     1     -39.917 -45.971  12.868  1.00  0.00     0.232 C 
HETATM   15  O   UNL     1     -39.865 -46.626  11.590  1.00  0.00    -0.366 OA
HETATM   16  C   UNL     1     -40.065 -45.602  10.596  1.00  0.00     0.170 C 
HETATM   17  C   UNL     1     -39.954 -44.257  11.295  1.00  0.00     0.031 C 
HETATM   18  C   UNL     1     -39.316 -44.604  12.617  1.00  0.00     0.056 C 
ENDBRANCH   7  14
ENDBRANCH   4   5
ENDBRANCH   1   4
BRANCH   2  19
HETATM   19  C   UNL     1     -42.699 -50.315  13.818  1.00  0.00     0.164 C 
BRANCH  19  20
HETATM   20  C   UNL     1     -44.123 -50.643  14.212  1.00  0.00    -0.040 A 
HETATM   21  C   UNL     1     -45.009 -51.033  13.190  1.00  0.00     0.009 A 
HETATM   22  C   UNL     1     -46.332 -51.381  13.468  1.00  0.00     0.001 A 
HETATM   23  C   UNL     1     -46.789 -51.365  14.780  1.00  0.00     0.000 A 
HETATM   24  C   UNL     1     -45.910 -51.041  15.813  1.00  0.00     0.001 A 
HETATM   25  C   UNL     1     -44.580 -50.690  15.535  1.00  0.00     0.009 A 
ENDBRANCH  19  20
ENDBRANCH   2  19
BRANCH   2  26
HETATM   26  C   UNL     1     -41.428 -52.239  12.971  1.00  0.00     0.130 C 
BRANCH  26  27
HETATM   27  C   UNL     1     -41.733 -53.751  12.975  1.00  0.00     0.058 C 
BRANCH  27  28
HETATM   28  C   UNL     1     -43.007 -54.139  13.751  1.00  0.00    -0.057 A 
HETATM   29  C   UNL     1     -43.103 -54.120  15.153  1.00  0.00     0.007 A 
HETATM   30  C   UNL     1     -44.321 -54.378  15.804  1.00  0.00     0.001 A 
HETATM   31  C   UNL     1     -45.462 -54.686  15.070  1.00  0.00     0.000 A 
HETATM   32  C   UNL     1     -45.379 -54.758  13.682  1.00  0.00     0.001 A 
HETATM   33  C   UNL     1     -44.163 -54.497  13.032  1.00  0.00     0.007 A 
ENDBRANCH  27  28
ENDBRANCH  26  27
ENDBRANCH   2  26
TORSDOF 8
ENDMDL
MODEL 5
REMARK VINA RESULT:      -6.1      2.425      4.289
REMARK  8 active torsions:
REMARK  status: ('A' for Active; 'I' for Inactive)
REMARK    1  A    between atoms: N_1  and  C_7 
REMARK    2  A    between atoms: N_2  and  C_9 
REMARK    3  A    between atoms: C_7  and  C_8 
REMARK       I    between atoms: C_8  and  N_10 
REMARK    4  A    between atoms: N_10  and  C_14 
REMARK    5  A    between atoms: N_10  and  C_17 
REMARK    6  A    between atoms: C_14  and  C_19 
REMARK    7  A    between atoms: C_17  and  C_18 
REMARK    8  A    between atoms: C_18  and  C_20 
ROOT
HETATM    1  C   UNL     1     -40.933 -51.370  12.216  1.00  0.00     0.238 C 
HETATM    2  N   UNL     1     -42.240 -51.614  12.678  1.00  0.00    -0.346 N 
HETATM    3  O   UNL     1     -40.082 -52.263  12.210  1.00  0.00    -0.272 OA
ENDROOT
BRANCH   1   4
HETATM    4  C   UNL     1     -40.605 -49.912  11.722  1.00  0.00     0.240 C 
BRANCH   4   5
HETATM    5  N   UNL     1     -40.013 -48.957  12.667  1.00  0.00    -0.255 N 
HETATM    6  C   UNL     1     -38.648 -49.054  12.889  1.00  0.00     0.334 C 
HETATM    7  N   UNL     1     -38.185 -48.288  13.964  1.00  0.00    -0.279 N 
HETATM    8  O   UNL     1     -37.899 -49.727  12.186  1.00  0.00    -0.246 OA
HETATM    9  C   UNL     1     -38.748 -47.068  14.222  1.00  0.00     0.146 C 
HETATM   10  C   UNL     1     -39.867 -46.704  13.602  1.00  0.00     0.200 C 
HETATM   11  C   UNL     1     -40.615 -47.709  12.783  1.00  0.00     0.292 C 
HETATM   12  F   UNL     1     -40.384 -45.460  13.687  1.00  0.00    -0.199 F 
HETATM   13  O   UNL     1     -41.656 -47.392  12.210  1.00  0.00    -0.264 OA
BRANCH   7  14
HETATM   14  C   UNL     1     -37.099 -48.860  14.724  1.00  0.00     0.232 C 
HETATM   15  O   UNL     1     -37.487 -50.030  15.465  1.00  0.00    -0.366 OA
HETATM   16  C   UNL     1     -36.493 -50.212  16.492  1.00  0.00     0.170 C 
HETATM   17  C   UNL     1     -35.643 -48.953  16.538  1.00  0.00     0.031 C 
HETATM   18  C   UNL     1     -36.461 -47.955  15.756  1.00  0.00     0.056 C 
ENDBRANCH   7  14
ENDBRANCH   4   5
ENDBRANCH   1   4
BRANCH   2  19
HETATM   19  C   UNL     1     -43.188 -50.518  12.935  1.00  0.00     0.164 C 
BRANCH  19  20
HETATM   20  C   UNL     1     -44.350 -50.809  13.860  1.00  0.00    -0.040 A 
HETATM   21  C   UNL     1     -44.197 -50.479  15.221  1.00  0.00     0.009 A 
HETATM   22  C   UNL     1     -45.228 -50.686  16.138  1.00  0.00     0.001 A 
HETATM   23  C   UNL     1     -46.442 -51.208  15.708  1.00  0.00     0.000 A 
HETATM   24  C   UNL     1     -46.634 -51.482  14.355  1.00  0.00     0.001 A 
HETATM   25  C   UNL     1     -45.598 -51.275  13.431  1.00  0.00     0.009 A 
ENDBRANCH  19  20
ENDBRANCH   2  19
BRANCH   2  26
HETATM   26  C   UNL     1     -42.919 -52.909  12.441  1.00  0.00     0.130 C 
BRANCH  26  27
HETATM   27  C   UNL     1     -42.689 -54.190  13.270  1.00  0.00     0.058 C 
BRANCH  27  28
HETATM   28  C   UNL     1     -42.890 -54.007  14.788  1.00  0.00    -0.057 A 
HETATM   29  C   UNL     1     -41.924 -53.446  15.641  1.00  0.00     0.007 A 
HETATM   30  C   UNL     1     -42.202 -53.202  16.997  1.00  0.00     0.001 A 
HETATM   31  C   UNL     1     -43.441 -53.539  17.534  1.00  0.00     0.000 A 
HETATM   32  C   UNL     1     -44.395 -54.142  16.719  1.00  0.00     0.001 A 
HETATM   33  C   UNL     1     -44.118 -54.380  15.364  1.00  0.00     0.007 A 
ENDBRANCH  27  28
ENDBRANCH  26  27
ENDBRANCH   2  26
TORSDOF 8
ENDMDL
MODEL 6
REMARK VINA RESULT:      -6.1      2.103      4.942
REMARK  8 active torsions:
REMARK  status: ('A' for Active; 'I' for Inactive)
REMARK    1  A    between atoms: N_1  and  C_7 
REMARK    2  A    between atoms: N_2  and  C_9 
REMARK    3  A    between atoms: C_7  and  C_8 
REMARK       I    between atoms: C_8  and  N_10 
REMARK    4  A    between atoms: N_10  and  C_14 
REMARK    5  A    between atoms: N_10  and  C_17 
REMARK    6  A    between atoms: C_14  and  C_19 
REMARK    7  A    between atoms: C_17  and  C_18 
REMARK    8  A    between atoms: C_18  and  C_20 
ROOT
HETATM    1  C   UNL     1     -41.161 -50.056  12.307  1.00  0.00     0.238 C 
HETATM    2  N   UNL     1     -42.236 -50.966  12.302  1.00  0.00    -0.346 N 
HETATM    3  O   UNL     1     -41.354 -48.842  12.209  1.00  0.00    -0.272 OA
ENDROOT
BRANCH   1   4
HETATM    4  C   UNL     1     -39.712 -50.656  12.428  1.00  0.00     0.240 C 
BRANCH   4   5
HETATM    5  N   UNL     1     -39.064 -50.692  13.745  1.00  0.00    -0.255 N 
HETATM    6  C   UNL     1     -38.847 -51.941  14.307  1.00  0.00     0.334 C 
HETATM    7  N   UNL     1     -38.452 -51.905  15.649  1.00  0.00    -0.279 N 
HETATM    8  O   UNL     1     -38.959 -52.990  13.679  1.00  0.00    -0.246 OA
HETATM    9  C   UNL     1     -37.637 -50.900  16.091  1.00  0.00     0.146 C 
HETATM   10  C   UNL     1     -37.397 -49.845  15.318  1.00  0.00     0.200 C 
HETATM   11  C   UNL     1     -38.180 -49.665  14.055  1.00  0.00     0.292 C 
HETATM   12  F   UNL     1     -36.481 -48.901  15.623  1.00  0.00    -0.199 F 
HETATM   13  O   UNL     1     -37.978 -48.690  13.333  1.00  0.00    -0.264 OA
BRANCH   7  14
HETATM   14  C   UNL     1     -38.937 -52.984  16.478  1.00  0.00     0.232 C 
HETATM   15  O   UNL     1     -40.295 -52.791  16.910  1.00  0.00    -0.366 OA
HETATM   16  C   UNL     1     -40.486 -53.650  18.051  1.00  0.00     0.170 C 
HETATM   17  C   UNL     1     -39.119 -54.158  18.478  1.00  0.00     0.031 C 
HETATM   18  C   UNL     1     -38.167 -53.238  17.755  1.00  0.00     0.056 C 
ENDBRANCH   7  14
ENDBRANCH   4   5
ENDBRANCH   1   4
BRANCH   2  19
HETATM   19  C   UNL     1     -42.024 -52.414  12.158  1.00  0.00     0.164 C 
BRANCH  19  20
HETATM   20  C   UNL     1     -42.892 -53.329  12.994  1.00  0.00    -0.040 A 
HETATM   21  C   UNL     1     -42.417 -53.691  14.270  1.00  0.00     0.009 A 
HETATM   22  C   UNL     1     -43.166 -54.507  15.119  1.00  0.00     0.001 A 
HETATM   23  C   UNL     1     -44.416 -54.961  14.717  1.00  0.00     0.000 A 
HETATM   24  C   UNL     1     -44.930 -54.563  13.484  1.00  0.00     0.001 A 
HETATM   25  C   UNL     1     -44.179 -53.743  12.628  1.00  0.00     0.009 A 
ENDBRANCH  19  20
ENDBRANCH   2  19
BRANCH   2  26
HETATM   26  C   UNL     1     -43.531 -50.641  12.943  1.00  0.00     0.130 C 
BRANCH  26  27
HETATM   27  C   UNL     1     -43.702 -50.192  14.409  1.00  0.00     0.058 C 
BRANCH  27  28
HETATM   28  C   UNL     1     -44.828 -50.922  15.168  1.00  0.00    -0.057 A 
HETATM   29  C   UNL     1     -46.079 -51.227  14.604  1.00  0.00     0.007 A 
HETATM   30  C   UNL     1     -47.028 -51.990  15.305  1.00  0.00     0.001 A 
HETATM   31  C   UNL     1     -46.758 -52.443  16.593  1.00  0.00     0.000 A 
HETATM   32  C   UNL     1     -45.545 -52.111  17.190  1.00  0.00     0.001 A 
HETATM   33  C   UNL     1     -44.596 -51.352  16.488  1.00  0.00     0.007 A 
ENDBRANCH  27  28
ENDBRANCH  26  27
ENDBRANCH   2  26
TORSDOF 8
ENDMDL
MODEL 7
REMARK VINA RESULT:      -6.0      2.494      6.752
REMARK  8 active torsions:
REMARK  status: ('A' for Active; 'I' for Inactive)
REMARK    1  A    between atoms: N_1  and  C_7 
REMARK    2  A    between atoms: N_2  and  C_9 
REMARK    3  A    between atoms: C_7  and  C_8 
REMARK       I    between atoms: C_8  and  N_10 
REMARK    4  A    between atoms: N_10  and  C_14 
REMARK    5  A    between atoms: N_10  and  C_17 
REMARK    6  A    between atoms: C_14  and  C_19 
REMARK    7  A    between atoms: C_17  and  C_18 
REMARK    8  A    between atoms: C_18  and  C_20 
ROOT
HETATM    1  C   UNL     1     -38.755 -50.134  13.972  1.00  0.00     0.238 C 
HETATM    2  N   UNL     1     -39.103 -48.919  13.352  1.00  0.00    -0.346 N 
HETATM    3  O   UNL     1     -38.209 -50.153  15.078  1.00  0.00    -0.272 OA
ENDROOT
BRANCH   1   4
HETATM    4  C   UNL     1     -39.080 -51.459  13.187  1.00  0.00     0.240 C 
BRANCH   4   5
HETATM    5  N   UNL     1     -40.197 -52.298  13.639  1.00  0.00    -0.255 N 
HETATM    6  C   UNL     1     -41.253 -52.470  12.757  1.00  0.00     0.334 C 
HETATM    7  N   UNL     1     -42.382 -53.072  13.323  1.00  0.00    -0.279 N 
HETATM    8  O   UNL     1     -41.197 -52.154  11.572  1.00  0.00    -0.246 OA
HETATM    9  C   UNL     1     -42.230 -54.045  14.272  1.00  0.00     0.146 C 
HETATM   10  C   UNL     1     -41.036 -54.269  14.815  1.00  0.00     0.200 C 
HETATM   11  C   UNL     1     -39.912 -53.320  14.537  1.00  0.00     0.292 C 
HETATM   12  F   UNL     1     -40.783 -55.313  15.631  1.00  0.00    -0.199 F 
HETATM   13  O   UNL     1     -38.805 -53.507  15.038  1.00  0.00    -0.264 OA
BRANCH   7  14
HETATM   14  C   UNL     1     -43.657 -52.613  12.825  1.00  0.00     0.232 C 
HETATM   15  O   UNL     1     -44.148 -51.455  13.521  1.00  0.00    -0.366 OA
HETATM   16  C   UNL     1     -45.564 -51.391  13.261  1.00  0.00     0.170 C 
HETATM   17  C   UNL     1     -45.974 -52.707  12.621  1.00  0.00     0.031 C 
HETATM   18  C   UNL     1     -44.796 -53.608  12.898  1.00  0.00     0.056 C 
ENDBRANCH   7  14
ENDBRANCH   4   5
ENDBRANCH   1   4
BRANCH   2  19
HETATM   19  C   UNL     1     -39.513 -48.858  11.941  1.00  0.00     0.164 C 
BRANCH  19  20
HETATM   20  C   UNL     1     -40.913 -48.366  11.646  1.00  0.00    -0.040 A 
HETATM   21  C   UNL     1     -41.064 -47.394  10.638  1.00  0.00     0.009 A 
HETATM   22  C   UNL     1     -42.321 -46.906  10.281  1.00  0.00     0.001 A 
HETATM   23  C   UNL     1     -43.458 -47.397  10.911  1.00  0.00     0.000 A 
HETATM   24  C   UNL     1     -43.335 -48.404  11.868  1.00  0.00     0.001 A 
HETATM   25  C   UNL     1     -42.071 -48.895  12.229  1.00  0.00     0.009 A 
ENDBRANCH  19  20
ENDBRANCH   2  19
BRANCH   2  26
HETATM   26  C   UNL     1     -39.586 -47.759  14.136  1.00  0.00     0.130 C 
BRANCH  26  27
HETATM   27  C   UNL     1     -39.023 -46.326  14.031  1.00  0.00     0.058 C 
BRANCH  27  28
HETATM   28  C   UNL     1     -39.973 -45.321  13.350  1.00  0.00    -0.057 A 
HETATM   29  C   UNL     1     -39.568 -44.419  12.351  1.00  0.00     0.007 A 
HETATM   30  C   UNL     1     -40.497 -43.601  11.686  1.00  0.00     0.001 A 
HETATM   31  C   UNL     1     -41.846 -43.647  12.025  1.00  0.00     0.000 A 
HETATM   32  C   UNL     1     -42.262 -44.497  13.046  1.00  0.00     0.001 A 
HETATM   33  C   UNL     1     -41.334 -45.317  13.706  1.00  0.00     0.007 A 
ENDBRANCH  27  28
ENDBRANCH  26  27
ENDBRANCH   2  26
TORSDOF 8
ENDMDL
MODEL 8
REMARK VINA RESULT:      -5.8     15.966     17.797
REMARK  8 active torsions:
REMARK  status: ('A' for Active; 'I' for Inactive)
REMARK    1  A    between atoms: N_1  and  C_7 
REMARK    2  A    between atoms: N_2  and  C_9 
REMARK    3  A    between atoms: C_7  and  C_8 
REMARK       I    between atoms: C_8  and  N_10 
REMARK    4  A    between atoms: N_10  and  C_14 
REMARK    5  A    between atoms: N_10  and  C_17 
REMARK    6  A    between atoms: C_14  and  C_19 
REMARK    7  A    between atoms: C_17  and  C_18 
REMARK    8  A    between atoms: C_18  and  C_20 
ROOT
HETATM    1  C   UNL     1     -47.741 -51.753  -2.122  1.00  0.00     0.238 C 
HETATM    2  N   UNL     1     -48.762 -52.722  -2.157  1.00  0.00    -0.346 N 
HETATM    3  O   UNL     1     -46.971 -51.604  -3.073  1.00  0.00    -0.272 OA
ENDROOT
BRANCH   1   4
HETATM    4  C   UNL     1     -47.622 -50.883  -0.816  1.00  0.00     0.240 C 
BRANCH   4   5
HETATM    5  N   UNL     1     -48.234 -49.548  -0.791  1.00  0.00    -0.255 N 
HETATM    6  C   UNL     1     -49.190 -49.312   0.186  1.00  0.00     0.334 C 
HETATM    7  N   UNL     1     -49.903 -48.121   0.014  1.00  0.00    -0.279 N 
HETATM    8  O   UNL     1     -49.378 -50.063   1.139  1.00  0.00    -0.246 OA
HETATM    9  C   UNL     1     -49.270 -47.015  -0.485  1.00  0.00     0.146 C 
HETATM   10  C   UNL     1     -48.052 -47.122  -1.008  1.00  0.00     0.200 C 
HETATM   11  C   UNL     1     -47.465 -48.480  -1.236  1.00  0.00     0.292 C 
HETATM   12  F   UNL     1     -47.309 -46.053  -1.367  1.00  0.00    -0.199 F 
HETATM   13  O   UNL     1     -46.344 -48.596  -1.727  1.00  0.00    -0.264 OA
BRANCH   7  14
HETATM   14  C   UNL     1     -51.291 -48.154   0.412  1.00  0.00     0.232 C 
HETATM   15  O   UNL     1     -52.185 -47.738  -0.635  1.00  0.00    -0.366 OA
HETATM   16  C   UNL     1     -53.426 -47.382   0.005  1.00  0.00     0.170 C 
HETATM   17  C   UNL     1     -53.169 -47.318   1.501  1.00  0.00     0.031 C 
HETATM   18  C   UNL     1     -51.664 -47.286   1.594  1.00  0.00     0.056 C 
ENDBRANCH   7  14
ENDBRANCH   4   5
ENDBRANCH   1   4
BRANCH   2  19
HETATM   19  C   UNL     1     -49.520 -53.093  -0.952  1.00  0.00     0.164 C 
BRANCH  19  20
HETATM   20  C   UNL     1     -51.006 -52.809  -0.952  1.00  0.00    -0.040 A 
HETATM   21  C   UNL     1     -51.874 -53.873  -0.639  1.00  0.00     0.009 A 
HETATM   22  C   UNL     1     -53.257 -53.692  -0.588  1.00  0.00     0.001 A 
HETATM   23  C   UNL     1     -53.799 -52.435  -0.828  1.00  0.00     0.000 A 
HETATM   24  C   UNL     1     -52.953 -51.356  -1.078  1.00  0.00     0.001 A 
HETATM   25  C   UNL     1     -51.562 -51.536  -1.131  1.00  0.00     0.009 A 
ENDBRANCH  19  20
ENDBRANCH   2  19
BRANCH   2  26
HETATM   26  C   UNL     1     -49.491 -53.038  -3.407  1.00  0.00     0.130 C 
BRANCH  26  27
HETATM   27  C   UNL     1     -49.654 -54.452  -4.000  1.00  0.00     0.058 C 
BRANCH  27  28
HETATM   28  C   UNL     1     -51.089 -55.011  -3.920  1.00  0.00    -0.057 A 
HETATM   29  C   UNL     1     -51.399 -56.301  -3.457  1.00  0.00     0.007 A 
HETATM   30  C   UNL     1     -52.732 -56.719  -3.301  1.00  0.00     0.001 A 
HETATM   31  C   UNL     1     -53.781 -55.867  -3.630  1.00  0.00     0.000 A 
HETATM   32  C   UNL     1     -53.497 -54.602  -4.137  1.00  0.00     0.001 A 
HETATM   33  C   UNL     1     -52.166 -54.184  -4.288  1.00  0.00     0.007 A 
ENDBRANCH  27  28
ENDBRANCH  26  27
ENDBRANCH   2  26
TORSDOF 8
ENDMDL
MODEL 9
REMARK VINA RESULT:      -5.8      2.960      6.982
REMARK  8 active torsions:
REMARK  status: ('A' for Active; 'I' for Inactive)
REMARK    1  A    between atoms: N_1  and  C_7 
REMARK    2  A    between atoms: N_2  and  C_9 
REMARK    3  A    between atoms: C_7  and  C_8 
REMARK       I    between atoms: C_8  and  N_10 
REMARK    4  A    between atoms: N_10  and  C_14 
REMARK    5  A    between atoms: N_10  and  C_17 
REMARK    6  A    between atoms: C_14  and  C_19 
REMARK    7  A    between atoms: C_17  and  C_18 
REMARK    8  A    between atoms: C_18  and  C_20 
ROOT
HETATM    1  C   UNL     1     -40.902 -50.056  12.075  1.00  0.00     0.238 C 
HETATM    2  N   UNL     1     -39.869 -49.127  12.306  1.00  0.00    -0.346 N 
HETATM    3  O   UNL     1     -42.072 -49.688  11.941  1.00  0.00    -0.272 OA
ENDROOT
BRANCH   1   4
HETATM    4  C   UNL     1     -40.500 -51.575  12.009  1.00  0.00     0.240 C 
BRANCH   4   5
HETATM    5  N   UNL     1     -40.959 -52.480  13.070  1.00  0.00    -0.255 N 
HETATM    6  C   UNL     1     -42.206 -53.064  12.906  1.00  0.00     0.334 C 
HETATM    7  N   UNL     1     -42.688 -53.718  14.044  1.00  0.00    -0.279 N 
HETATM    8  O   UNL     1     -42.824 -53.040  11.845  1.00  0.00    -0.246 OA
HETATM    9  C   UNL     1     -41.819 -54.382  14.866  1.00  0.00     0.146 C 
HETATM   10  C   UNL     1     -40.506 -54.231  14.714  1.00  0.00     0.200 C 
HETATM   11  C   UNL     1     -39.991 -53.178  13.783  1.00  0.00     0.292 C 
HETATM   12  F   UNL     1     -39.598 -54.975  15.378  1.00  0.00    -0.199 F 
HETATM   13  O   UNL     1     -38.780 -53.018  13.638  1.00  0.00    -0.264 OA
BRANCH   7  14
HETATM   14  C   UNL     1     -44.115 -53.651  14.252  1.00  0.00     0.232 C 
HETATM   15  O   UNL     1     -44.470 -53.265  15.591  1.00  0.00    -0.366 OA
HETATM   16  C   UNL     1     -45.837 -53.677  15.787  1.00  0.00     0.170 C 
HETATM   17  C   UNL     1     -46.215 -54.583  14.627  1.00  0.00     0.031 C 
HETATM   18  C   UNL     1     -44.882 -54.935  14.014  1.00  0.00     0.056 C 
ENDBRANCH   7  14
ENDBRANCH   4   5
ENDBRANCH   1   4
BRANCH   2  19
HETATM   19  C   UNL     1     -38.523 -49.552  12.721  1.00  0.00     0.164 C 
BRANCH  19  20
HETATM   20  C   UNL     1     -38.099 -49.228  14.137  1.00  0.00    -0.040 A 
HETATM   21  C   UNL     1     -37.136 -48.216  14.313  1.00  0.00     0.009 A 
HETATM   22  C   UNL     1     -36.708 -47.833  15.585  1.00  0.00     0.001 A 
HETATM   23  C   UNL     1     -37.254 -48.440  16.710  1.00  0.00     0.000 A 
HETATM   24  C   UNL     1     -38.254 -49.400  16.558  1.00  0.00     0.001 A 
HETATM   25  C   UNL     1     -38.684 -49.787  15.280  1.00  0.00     0.009 A 
ENDBRANCH  19  20
ENDBRANCH   2  19
BRANCH   2  26
HETATM   26  C   UNL     1     -39.873 -47.788  11.672  1.00  0.00     0.130 C 
BRANCH  26  27
HETATM   27  C   UNL     1     -40.548 -46.534  12.263  1.00  0.00     0.058 C 
BRANCH  27  28
HETATM   28  C   UNL     1     -40.327 -46.349  13.778  1.00  0.00    -0.057 A 
HETATM   29  C   UNL     1     -39.411 -45.436  14.327  1.00  0.00     0.007 A 
HETATM   30  C   UNL     1     -39.329 -45.230  15.715  1.00  0.00     0.001 A 
HETATM   31  C   UNL     1     -40.141 -45.952  16.584  1.00  0.00     0.000 A 
HETATM   32  C   UNL     1     -41.022 -46.898  16.065  1.00  0.00     0.001 A 
HETATM   33  C   UNL     1     -41.106 -47.099  14.679  1.00  0.00     0.007 A 
ENDBRANCH  27  28
ENDBRANCH  26  27
ENDBRANCH   2  26
TORSDOF 8
ENDMDL
