MODEL 1
REMARK VINA RESULT:      -6.1      0.000      0.000
REMARK  6 active torsions:
REMARK  status: ('A' for Active; 'I' for Inactive)
REMARK    1  A    between atoms: C_2  and  C_4 
REMARK    2  A    between atoms: C_8  and  C_9 
REMARK    3  A    between atoms: C_9  and  C_10 
REMARK    4  A    between atoms: C_10  and  N_11 
REMARK    5  A    between atoms: N_11  and  C_12 
REMARK    6  A    between atoms: C_12  and  C_13 
ROOT
HETATM    1  C   UNL     1     -43.189 -49.328  13.058  1.00  0.00     0.117 C 
ENDROOT
BRANCH   1   2
HETATM    2  C   UNL     1     -42.927 -48.782  11.706  1.00  0.00     0.149 A 
HETATM    3  O   UNL     1     -41.676 -48.984  11.198  1.00  0.00    -0.223 OA
HETATM    4  N   UNL     1     -41.644 -48.351   9.957  1.00  0.00    -0.247 N 
HETATM    5  C   UNL     1     -42.874 -47.835   9.843  1.00  0.00     0.107 A 
ATOM      6  HN  UNL     1     -40.870 -48.294   9.294  1.00  0.00     0.196 HD
HETATM    7  N   UNL     1     -43.702 -48.068  10.917  1.00  0.00    -0.327 N 
ATOM      8  HN  UNL     1     -44.665 -47.767  11.064  1.00  0.00     0.169 HD
BRANCH   5   9
HETATM    9  C   UNL     1     -43.299 -47.063   8.639  1.00  0.00     0.047 C 
HETATM   10  C   UNL     1     -43.542 -47.982   7.442  1.00  0.00     0.017 C 
HETATM   11  C   UNL     1     -44.538 -46.214   8.927  1.00  0.00     0.017 C 
ENDBRANCH   5   9
ENDBRANCH   1   2
BRANCH   1  12
HETATM   12  C   UNL     1     -42.519 -50.685  13.293  1.00  0.00     0.277 C 
BRANCH  12  13
HETATM   13  N   UNL     1     -43.058 -51.758  12.448  1.00  0.00     0.084 N 
HETATM   14  H   UNL     1     -42.332 -52.145  11.846  1.00  0.00     0.315 HD
BRANCH  13  15
HETATM   15  C   UNL     1     -43.642 -52.823  13.268  1.00  0.00     0.274 C 
BRANCH  15  16
HETATM   16  C   UNL     1     -45.063 -53.209  12.803  1.00  0.00     0.014 C 
HETATM   17  C   UNL     1     -46.039 -52.019  12.756  1.00  0.00     0.006 C 
HETATM   18  C   UNL     1     -46.412 -51.500  14.144  1.00  0.00     0.000 C 
HETATM   19  C   UNL     1     -46.949 -52.612  15.042  1.00  0.00     0.000 C 
HETATM   20  C   UNL     1     -46.009 -53.812  15.101  1.00  0.00     0.000 C 
HETATM   21  C   UNL     1     -45.645 -54.315  13.704  1.00  0.00     0.006 C 
ENDBRANCH  15  16
ENDBRANCH  13  15
ENDBRANCH  12  13
ENDBRANCH   1  12
TORSDOF 6
ENDMDL
MODEL 2
REMARK VINA RESULT:      -5.8      1.035      1.382
REMARK  6 active torsions:
REMARK  status: ('A' for Active; 'I' for Inactive)
REMARK    1  A    between atoms: C_2  and  C_4 
REMARK    2  A    between atoms: C_8  and  C_9 
REMARK    3  A    between atoms: C_9  and  C_10 
REMARK    4  A    between atoms: C_10  and  N_11 
REMARK    5  A    between atoms: N_11  and  C_12 
REMARK    6  A    between atoms: C_12  and  C_13 
ROOT
HETATM    1  C   UNL     1     -41.472 -50.802  12.722  1.00  0.00     0.117 C 
ENDROOT
BRANCH   1   2
HETATM    2  C   UNL     1     -41.770 -49.724  11.750  1.00  0.00     0.149 A 
HETATM    3  O   UNL     1     -40.743 -49.331  10.941  1.00  0.00    -0.223 OA
HETATM    4  N   UNL     1     -41.233 -48.289  10.156  1.00  0.00    -0.247 N 
HETATM    5  C   UNL     1     -42.499 -48.162  10.569  1.00  0.00     0.107 A 
ATOM      6  HN  UNL     1     -40.744 -47.752   9.440  1.00  0.00     0.196 HD
HETATM    7  N   UNL     1     -42.872 -49.028  11.572  1.00  0.00    -0.327 N 
ATOM      8  HN  UNL     1     -43.769 -49.109  12.051  1.00  0.00     0.169 HD
BRANCH   5   9
HETATM    9  C   UNL     1     -43.425 -47.149   9.982  1.00  0.00     0.047 C 
HETATM   10  C   UNL     1     -42.835 -45.741  10.059  1.00  0.00     0.017 C 
HETATM   11  C   UNL     1     -43.797 -47.498   8.541  1.00  0.00     0.017 C 
ENDBRANCH   5   9
ENDBRANCH   1   2
BRANCH   1  12
HETATM   12  C   UNL     1     -41.551 -52.201  12.104  1.00  0.00     0.277 C 
BRANCH  12  13
HETATM   13  N   UNL     1     -42.920 -52.625  11.786  1.00  0.00     0.084 N 
HETATM   14  H   UNL     1     -42.920 -53.532  11.320  1.00  0.00     0.315 HD
BRANCH  13  15
HETATM   15  C   UNL     1     -43.739 -52.690  12.999  1.00  0.00     0.274 C 
BRANCH  15  16
HETATM   16  C   UNL     1     -45.159 -53.229  12.719  1.00  0.00     0.014 C 
HETATM   17  C   UNL     1     -46.219 -52.123  12.573  1.00  0.00     0.006 C 
HETATM   18  C   UNL     1     -46.526 -51.416  13.893  1.00  0.00     0.000 C 
HETATM   19  C   UNL     1     -46.914 -52.402  14.991  1.00  0.00     0.000 C 
HETATM   20  C   UNL     1     -45.888 -53.519  15.153  1.00  0.00     0.000 C 
HETATM   21  C   UNL     1     -45.591 -54.213  13.823  1.00  0.00     0.006 C 
ENDBRANCH  15  16
ENDBRANCH  13  15
ENDBRANCH  12  13
ENDBRANCH   1  12
TORSDOF 6
ENDMDL
MODEL 3
REMARK VINA RESULT:      -5.8      1.756      2.216
REMARK  6 active torsions:
REMARK  status: ('A' for Active; 'I' for Inactive)
REMARK    1  A    between atoms: C_2  and  C_4 
REMARK    2  A    between atoms: C_8  and  C_9 
REMARK    3  A    between atoms: C_9  and  C_10 
REMARK    4  A    between atoms: C_10  and  N_11 
REMARK    5  A    between atoms: N_11  and  C_12 
REMARK    6  A    between atoms: C_12  and  C_13 
ROOT
HETATM    1  C   UNL     1     -40.089 -49.342  11.543  1.00  0.00     0.117 C 
ENDROOT
BRANCH   1   2
HETATM    2  C   UNL     1     -41.350 -48.764  11.026  1.00  0.00     0.149 A 
HETATM    3  O   UNL     1     -42.441 -48.851  11.843  1.00  0.00    -0.223 OA
HETATM    4  N   UNL     1     -43.509 -48.295  11.140  1.00  0.00    -0.247 N 
HETATM    5  C   UNL     1     -42.955 -47.931   9.977  1.00  0.00     0.107 A 
ATOM      6  HN  UNL     1     -44.478 -48.191  11.439  1.00  0.00     0.196 HD
HETATM    7  N   UNL     1     -41.614 -48.218   9.858  1.00  0.00    -0.327 N 
ATOM      8  HN  UNL     1     -40.988 -48.049   9.071  1.00  0.00     0.169 HD
BRANCH   5   9
HETATM    9  C   UNL     1     -43.746 -47.271   8.898  1.00  0.00     0.047 C 
HETATM   10  C   UNL     1     -43.515 -47.942   7.544  1.00  0.00     0.017 C 
HETATM   11  C   UNL     1     -45.237 -47.238   9.235  1.00  0.00     0.017 C 
ENDBRANCH   5   9
ENDBRANCH   1   2
BRANCH   1  12
HETATM   12  C   UNL     1     -40.287 -50.706  12.211  1.00  0.00     0.277 C 
BRANCH  12  13
HETATM   13  N   UNL     1     -41.132 -51.621  11.435  1.00  0.00     0.084 N 
HETATM   14  H   UNL     1     -40.600 -52.057  10.682  1.00  0.00     0.315 HD
BRANCH  13  15
HETATM   15  C   UNL     1     -41.707 -52.657  12.298  1.00  0.00     0.274 C 
BRANCH  15  16
HETATM   16  C   UNL     1     -43.222 -52.457  12.523  1.00  0.00     0.014 C 
HETATM   17  C   UNL     1     -43.552 -51.536  13.711  1.00  0.00     0.006 C 
HETATM   18  C   UNL     1     -43.227 -52.170  15.063  1.00  0.00     0.000 C 
HETATM   19  C   UNL     1     -43.893 -53.534  15.227  1.00  0.00     0.000 C 
HETATM   20  C   UNL     1     -43.595 -54.468  14.059  1.00  0.00     0.000 C 
HETATM   21  C   UNL     1     -43.923 -53.816  12.715  1.00  0.00     0.006 C 
ENDBRANCH  15  16
ENDBRANCH  13  15
ENDBRANCH  12  13
ENDBRANCH   1  12
TORSDOF 6
ENDMDL
MODEL 4
REMARK VINA RESULT:      -5.7      3.147      4.182
REMARK  6 active torsions:
REMARK  status: ('A' for Active; 'I' for Inactive)
REMARK    1  A    between atoms: C_2  and  C_4 
REMARK    2  A    between atoms: C_8  and  C_9 
REMARK    3  A    between atoms: C_9  and  C_10 
REMARK    4  A    between atoms: C_10  and  N_11 
REMARK    5  A    between atoms: N_11  and  C_12 
REMARK    6  A    between atoms: C_12  and  C_13 
ROOT
HETATM    1  C   UNL     1     -41.348 -54.154  13.051  1.00  0.00     0.117 C 
ENDROOT
BRANCH   1   2
HETATM    2  C   UNL     1     -40.895 -52.808  12.630  1.00  0.00     0.149 A 
HETATM    3  O   UNL     1     -41.440 -52.314  11.479  1.00  0.00    -0.223 OA
HETATM    4  N   UNL     1     -40.839 -51.077  11.255  1.00  0.00    -0.247 N 
HETATM    5  C   UNL     1     -39.999 -50.951  12.289  1.00  0.00     0.107 A 
ATOM      6  HN  UNL     1     -41.001 -50.424  10.488  1.00  0.00     0.196 HD
HETATM    7  N   UNL     1     -39.992 -52.014  13.163  1.00  0.00    -0.327 N 
ATOM      8  HN  UNL     1     -39.433 -52.150  14.005  1.00  0.00     0.169 HD
BRANCH   5   9
HETATM    9  C   UNL     1     -39.137 -49.746  12.465  1.00  0.00     0.047 C 
HETATM   10  C   UNL     1     -37.721 -49.989  11.940  1.00  0.00     0.017 C 
HETATM   11  C   UNL     1     -39.753 -48.514  11.801  1.00  0.00     0.017 C 
ENDBRANCH   5   9
ENDBRANCH   1   2
BRANCH   1  12
HETATM   12  C   UNL     1     -42.827 -54.189  13.448  1.00  0.00     0.277 C 
BRANCH  12  13
HETATM   13  N   UNL     1     -43.720 -53.620  12.431  1.00  0.00     0.084 N 
HETATM   14  H   UNL     1     -43.841 -54.267  11.652  1.00  0.00     0.315 HD
BRANCH  13  15
HETATM   15  C   UNL     1     -45.025 -53.291  13.011  1.00  0.00     0.274 C 
BRANCH  15  16
HETATM   16  C   UNL     1     -45.331 -51.778  12.943  1.00  0.00     0.014 C 
HETATM   17  C   UNL     1     -44.185 -50.895  13.471  1.00  0.00     0.006 C 
HETATM   18  C   UNL     1     -44.003 -50.999  14.985  1.00  0.00     0.000 C 
HETATM   19  C   UNL     1     -45.302 -50.716  15.735  1.00  0.00     0.000 C 
HETATM   20  C   UNL     1     -46.460 -51.568  15.228  1.00  0.00     0.000 C 
HETATM   21  C   UNL     1     -46.626 -51.454  13.712  1.00  0.00     0.006 C 
ENDBRANCH  15  16
ENDBRANCH  13  15
ENDBRANCH  12  13
ENDBRANCH   1  12
TORSDOF 6
ENDMDL
MODEL 5
REMARK VINA RESULT:      -5.3      2.438      3.131
REMARK  6 active torsions:
REMARK  status: ('A' for Active; 'I' for Inactive)
REMARK    1  A    between atoms: C_2  and  C_4 
REMARK    2  A    between atoms: C_8  and  C_9 
REMARK    3  A    between atoms: C_9  and  C_10 
REMARK    4  A    between atoms: C_10  and  N_11 
REMARK    5  A    between atoms: N_11  and  C_12 
REMARK    6  A    between atoms: C_12  and  C_13 
ROOT
HETATM    1  C   UNL     1     -41.434 -49.622  12.308  1.00  0.00     0.117 C 
ENDROOT
BRANCH   1   2
HETATM    2  C   UNL     1     -41.883 -48.687  11.250  1.00  0.00     0.149 A 
HETATM    3  O   UNL     1     -40.964 -47.779  10.808  1.00  0.00    -0.223 OA
HETATM    4  N   UNL     1     -41.613 -46.985   9.864  1.00  0.00    -0.247 N 
HETATM    5  C   UNL     1     -42.850 -47.494   9.834  1.00  0.00     0.107 A 
ATOM      6  HN  UNL     1     -41.236 -46.204   9.328  1.00  0.00     0.196 HD
HETATM    7  N   UNL     1     -43.066 -48.547  10.692  1.00  0.00    -0.327 N 
ATOM      8  HN  UNL     1     -43.920 -49.081  10.853  1.00  0.00     0.169 HD
BRANCH   5   9
HETATM    9  C   UNL     1     -43.908 -46.945   8.935  1.00  0.00     0.047 C 
HETATM   10  C   UNL     1     -45.265 -47.597   9.205  1.00  0.00     0.017 C 
HETATM   11  C   UNL     1     -44.009 -45.424   9.051  1.00  0.00     0.017 C 
ENDBRANCH   5   9
ENDBRANCH   1   2
BRANCH   1  12
HETATM   12  C   UNL     1     -40.471 -50.693  11.789  1.00  0.00     0.277 C 
BRANCH  12  13
HETATM   13  N   UNL     1     -41.136 -51.949  11.419  1.00  0.00     0.084 N 
HETATM   14  H   UNL     1     -40.454 -52.696  11.291  1.00  0.00     0.315 HD
BRANCH  13  15
HETATM   15  C   UNL     1     -42.114 -52.339  12.439  1.00  0.00     0.274 C 
BRANCH  15  16
HETATM   16  C   UNL     1     -41.944 -53.809  12.882  1.00  0.00     0.014 C 
HETATM   17  C   UNL     1     -42.903 -54.225  14.011  1.00  0.00     0.006 C 
HETATM   18  C   UNL     1     -42.566 -53.568  15.350  1.00  0.00     0.000 C 
HETATM   19  C   UNL     1     -41.113 -53.806  15.751  1.00  0.00     0.000 C 
HETATM   20  C   UNL     1     -40.137 -53.413  14.648  1.00  0.00     0.000 C 
HETATM   21  C   UNL     1     -40.490 -54.077  13.316  1.00  0.00     0.006 C 
ENDBRANCH  15  16
ENDBRANCH  13  15
ENDBRANCH  12  13
ENDBRANCH   1  12
TORSDOF 6
ENDMDL
MODEL 6
REMARK VINA RESULT:      -5.3      2.336      6.008
REMARK  6 active torsions:
REMARK  status: ('A' for Active; 'I' for Inactive)
REMARK    1  A    between atoms: C_2  and  C_4 
REMARK    2  A    between atoms: C_8  and  C_9 
REMARK    3  A    between atoms: C_9  and  C_10 
REMARK    4  A    between atoms: C_10  and  N_11 
REMARK    5  A    between atoms: N_11  and  C_12 
REMARK    6  A    between atoms: C_12  and  C_13 
ROOT
HETATM    1  C   UNL     1     -41.163 -51.170  13.499  1.00  0.00     0.117 C 
ENDROOT
BRANCH   1   2
HETATM    2  C   UNL     1     -42.586 -51.501  13.258  1.00  0.00     0.149 A 
HETATM    3  O   UNL     1     -42.837 -52.487  12.347  1.00  0.00    -0.223 OA
HETATM    4  N   UNL     1     -44.224 -52.592  12.247  1.00  0.00    -0.247 N 
HETATM    5  C   UNL     1     -44.664 -51.663  13.104  1.00  0.00     0.107 A 
ATOM      6  HN  UNL     1     -44.770 -53.224  11.662  1.00  0.00     0.196 HD
HETATM    7  N   UNL     1     -43.677 -50.950  13.745  1.00  0.00    -0.327 N 
ATOM      8  HN  UNL     1     -43.767 -50.193  14.422  1.00  0.00     0.169 HD
BRANCH   5   9
HETATM    9  C   UNL     1     -46.120 -51.426  13.333  1.00  0.00     0.047 C 
HETATM   10  C   UNL     1     -46.944 -51.760  12.090  1.00  0.00     0.017 C 
HETATM   11  C   UNL     1     -46.632 -52.207  14.544  1.00  0.00     0.017 C 
ENDBRANCH   5   9
ENDBRANCH   1   2
BRANCH   1  12
HETATM   12  C   UNL     1     -40.293 -51.325  12.247  1.00  0.00     0.277 C 
BRANCH  12  13
HETATM   13  N   UNL     1     -40.763 -50.531  11.106  1.00  0.00     0.084 N 
HETATM   14  H   UNL     1     -41.761 -50.673  10.952  1.00  0.00     0.315 HD
BRANCH  13  15
HETATM   15  C   UNL     1     -40.491 -49.107  11.316  1.00  0.00     0.274 C 
BRANCH  15  16
HETATM   16  C   UNL     1     -41.581 -48.204  10.696  1.00  0.00     0.014 C 
HETATM   17  C   UNL     1     -41.163 -46.728  10.579  1.00  0.00     0.006 C 
HETATM   18  C   UNL     1     -41.064 -46.028  11.934  1.00  0.00     0.000 C 
HETATM   19  C   UNL     1     -42.351 -46.169  12.743  1.00  0.00     0.000 C 
HETATM   20  C   UNL     1     -42.799 -47.622  12.868  1.00  0.00     0.000 C 
HETATM   21  C   UNL     1     -42.889 -48.306  11.504  1.00  0.00     0.006 C 
ENDBRANCH  15  16
ENDBRANCH  13  15
ENDBRANCH  12  13
ENDBRANCH   1  12
TORSDOF 6
ENDMDL
MODEL 7
REMARK VINA RESULT:      -5.3      3.461      4.305
REMARK  6 active torsions:
REMARK  status: ('A' for Active; 'I' for Inactive)
REMARK    1  A    between atoms: C_2  and  C_4 
REMARK    2  A    between atoms: C_8  and  C_9 
REMARK    3  A    between atoms: C_9  and  C_10 
REMARK    4  A    between atoms: C_10  and  N_11 
REMARK    5  A    between atoms: N_11  and  C_12 
REMARK    6  A    between atoms: C_12  and  C_13 
ROOT
HETATM    1  C   UNL     1     -41.569 -53.926  13.278  1.00  0.00     0.117 C 
ENDROOT
BRANCH   1   2
HETATM    2  C   UNL     1     -40.936 -52.686  12.770  1.00  0.00     0.149 A 
HETATM    3  O   UNL     1     -41.428 -52.186  11.599  1.00  0.00    -0.223 OA
HETATM    4  N   UNL     1     -40.661 -51.064  11.293  1.00  0.00    -0.247 N 
HETATM    5  C   UNL     1     -39.790 -51.001  12.308  1.00  0.00     0.107 A 
ATOM      6  HN  UNL     1     -40.742 -50.440  10.490  1.00  0.00     0.196 HD
HETATM    7  N   UNL     1     -39.918 -52.002  13.244  1.00  0.00    -0.327 N 
ATOM      8  HN  UNL     1     -39.367 -52.168  14.086  1.00  0.00     0.169 HD
BRANCH   5   9
HETATM    9  C   UNL     1     -38.760 -49.925  12.401  1.00  0.00     0.047 C 
HETATM   10  C   UNL     1     -37.516 -50.269  11.583  1.00  0.00     0.017 C 
HETATM   11  C   UNL     1     -39.326 -48.569  11.976  1.00  0.00     0.017 C 
ENDBRANCH   5   9
ENDBRANCH   1   2
BRANCH   1  12
HETATM   12  C   UNL     1     -41.501 -54.050  14.803  1.00  0.00     0.277 C 
BRANCH  12  13
HETATM   13  N   UNL     1     -42.805 -54.302  15.429  1.00  0.00     0.084 N 
HETATM   14  H   UNL     1     -42.705 -54.434  16.435  1.00  0.00     0.315 HD
BRANCH  13  15
HETATM   15  C   UNL     1     -43.731 -53.198  15.162  1.00  0.00     0.274 C 
BRANCH  15  16
HETATM   16  C   UNL     1     -45.169 -53.693  14.891  1.00  0.00     0.014 C 
HETATM   17  C   UNL     1     -45.456 -53.963  13.403  1.00  0.00     0.006 C 
HETATM   18  C   UNL     1     -45.519 -52.685  12.568  1.00  0.00     0.000 C 
HETATM   19  C   UNL     1     -46.511 -51.678  13.141  1.00  0.00     0.000 C 
HETATM   20  C   UNL     1     -46.261 -51.396  14.619  1.00  0.00     0.000 C 
HETATM   21  C   UNL     1     -46.198 -52.685  15.439  1.00  0.00     0.006 C 
ENDBRANCH  15  16
ENDBRANCH  13  15
ENDBRANCH  12  13
ENDBRANCH   1  12
TORSDOF 6
ENDMDL
MODEL 8
REMARK VINA RESULT:      -5.2      3.373      6.992
REMARK  6 active torsions:
REMARK  status: ('A' for Active; 'I' for Inactive)
REMARK    1  A    between atoms: C_2  and  C_4 
REMARK    2  A    between atoms: C_8  and  C_9 
REMARK    3  A    between atoms: C_9  and  C_10 
REMARK    4  A    between atoms: C_10  and  N_11 
REMARK    5  A    between atoms: N_11  and  C_12 
REMARK    6  A    between atoms: C_12  and  C_13 
ROOT
HETATM    1  C   UNL     1     -41.531 -52.269  13.555  1.00  0.00     0.117 C 
ENDROOT
BRANCH   1   2
HETATM    2  C   UNL     1     -42.985 -52.490  13.380  1.00  0.00     0.149 A 
HETATM    3  O   UNL     1     -43.409 -52.792  12.118  1.00  0.00    -0.223 OA
HETATM    4  N   UNL     1     -44.797 -52.906  12.182  1.00  0.00    -0.247 N 
HETATM    5  C   UNL     1     -45.066 -52.664  13.470  1.00  0.00     0.107 A 
ATOM      6  HN  UNL     1     -45.450 -53.122  11.428  1.00  0.00     0.196 HD
HETATM    7  N   UNL     1     -43.967 -52.386  14.250  1.00  0.00    -0.327 N 
ATOM      8  HN  UNL     1     -43.925 -52.159  15.244  1.00  0.00     0.169 HD
BRANCH   5   9
HETATM    9  C   UNL     1     -46.459 -52.691  14.005  1.00  0.00     0.047 C 
HETATM   10  C   UNL     1     -46.691 -53.907  14.901  1.00  0.00     0.017 C 
HETATM   11  C   UNL     1     -46.798 -51.400  14.751  1.00  0.00     0.017 C 
ENDBRANCH   5   9
ENDBRANCH   1   2
BRANCH   1  12
HETATM   12  C   UNL     1     -40.719 -52.629  12.308  1.00  0.00     0.277 C 
BRANCH  12  13
HETATM   13  N   UNL     1     -40.648 -51.545  11.321  1.00  0.00     0.084 N 
HETATM   14  H   UNL     1     -41.443 -51.582  10.683  1.00  0.00     0.315 HD
BRANCH  13  15
HETATM   15  C   UNL     1     -40.606 -50.239  11.986  1.00  0.00     0.274 C 
BRANCH  15  16
HETATM   16  C   UNL     1     -39.359 -49.419  11.587  1.00  0.00     0.014 C 
HETATM   17  C   UNL     1     -38.036 -50.187  11.762  1.00  0.00     0.006 C 
HETATM   18  C   UNL     1     -37.671 -50.416  13.228  1.00  0.00     0.000 C 
HETATM   19  C   UNL     1     -37.654 -49.112  14.021  1.00  0.00     0.000 C 
HETATM   20  C   UNL     1     -38.948 -48.321  13.860  1.00  0.00     0.000 C 
HETATM   21  C   UNL     1     -39.300 -48.104  12.388  1.00  0.00     0.006 C 
ENDBRANCH  15  16
ENDBRANCH  13  15
ENDBRANCH  12  13
ENDBRANCH   1  12
TORSDOF 6
ENDMDL
MODEL 9
REMARK VINA RESULT:      -5.2      4.144      6.943
REMARK  6 active torsions:
REMARK  status: ('A' for Active; 'I' for Inactive)
REMARK    1  A    between atoms: C_2  and  C_4 
REMARK    2  A    between atoms: C_8  and  C_9 
REMARK    3  A    between atoms: C_9  and  C_10 
REMARK    4  A    between atoms: C_10  and  N_11 
REMARK    5  A    between atoms: N_11  and  C_12 
REMARK    6  A    between atoms: C_12  and  C_13 
ROOT
HETATM    1  C   UNL     1     -42.089 -54.335  14.520  1.00  0.00     0.117 C 
ENDROOT
BRANCH   1   2
HETATM    2  C   UNL     1     -43.268 -53.736  13.853  1.00  0.00     0.149 A 
HETATM    3  O   UNL     1     -43.112 -53.381  12.543  1.00  0.00    -0.223 OA
HETATM    4  N   UNL     1     -44.315 -52.802  12.144  1.00  0.00    -0.247 N 
HETATM    5  C   UNL     1     -45.069 -52.867  13.247  1.00  0.00     0.107 A 
ATOM      6  HN  UNL     1     -44.561 -52.420  11.230  1.00  0.00     0.196 HD
HETATM    7  N   UNL     1     -44.451 -53.429  14.340  1.00  0.00    -0.327 N 
ATOM      8  HN  UNL     1     -44.815 -53.572  15.282  1.00  0.00     0.169 HD
BRANCH   5   9
HETATM    9  C   UNL     1     -46.472 -52.358  13.277  1.00  0.00     0.047 C 
HETATM   10  C   UNL     1     -46.695 -51.400  14.447  1.00  0.00     0.017 C 
HETATM   11  C   UNL     1     -46.855 -51.692  11.955  1.00  0.00     0.017 C 
ENDBRANCH   5   9
ENDBRANCH   1   2
BRANCH   1  12
HETATM   12  C   UNL     1     -40.915 -53.360  14.648  1.00  0.00     0.277 C 
BRANCH  12  13
HETATM   13  N   UNL     1     -40.143 -53.207  13.408  1.00  0.00     0.084 N 
HETATM   14  H   UNL     1     -40.683 -53.524  12.603  1.00  0.00     0.315 HD
BRANCH  13  15
HETATM   15  C   UNL     1     -39.740 -51.811  13.216  1.00  0.00     0.274 C 
BRANCH  15  16
HETATM   16  C   UNL     1     -38.292 -51.550  13.687  1.00  0.00     0.014 C 
HETATM   17  C   UNL     1     -38.206 -50.692  14.963  1.00  0.00     0.006 C 
HETATM   18  C   UNL     1     -38.611 -49.237  14.729  1.00  0.00     0.000 C 
HETATM   19  C   UNL     1     -37.820 -48.602  13.589  1.00  0.00     0.000 C 
HETATM   20  C   UNL     1     -37.876 -49.434  12.312  1.00  0.00     0.000 C 
HETATM   21  C   UNL     1     -37.471 -50.887  12.565  1.00  0.00     0.006 C 
ENDBRANCH  15  16
ENDBRANCH  13  15
ENDBRANCH  12  13
ENDBRANCH   1  12
TORSDOF 6
ENDMDL
