MODEL 1
REMARK VINA RESULT:      -6.1      0.000      0.000
REMARK  5 active torsions:
REMARK  status: ('A' for Active; 'I' for Inactive)
REMARK    1  A    between atoms: C_2  and  O_3 
REMARK    2  A    between atoms: O_3  and  C_4 
REMARK    3  A    between atoms: C_4  and  C_5 
REMARK    4  A    between atoms: C_5  and  N_6 
REMARK    5  A    between atoms: C_7  and  N_19 
ROOT
HETATM    1  N   UNL     1     -41.837 -50.776  12.870  1.00  0.00    -0.172 N 
HETATM    2  C   UNL     1     -43.208 -50.521  12.888  1.00  0.00     0.684 A 
HETATM    3  N   UNL     1     -43.446 -49.303  12.419  1.00  0.00    -0.174 N 
ATOM      4  HN  UNL     1     -44.343 -48.821  12.388  1.00  0.00     0.186 HD
HETATM    5  C   UNL     1     -42.245 -48.828  11.987  1.00  0.00     0.160 A 
HETATM    6  N   UNL     1     -41.992 -47.621  11.360  1.00  0.00    -0.287 N 
HETATM    7  C   UNL     1     -43.040 -46.691  11.001  1.00  0.00     0.163 C 
HETATM    8  C   UNL     1     -40.683 -47.300  11.013  1.00  0.00     0.330 C 
HETATM    9  O   UNL     1     -40.361 -46.260  10.437  1.00  0.00    -0.246 OA
HETATM   10  N   UNL     1     -39.704 -48.219  11.325  1.00  0.00    -0.273 N 
HETATM   11  C   UNL     1     -39.892 -49.479  11.836  1.00  0.00     0.280 C 
HETATM   12  O   UNL     1     -38.972 -50.289  11.923  1.00  0.00    -0.265 OA
HETATM   13  C   UNL     1     -41.241 -49.722  12.223  1.00  0.00     0.164 A 
HETATM   14  H   UNL     1     -38.769 -47.985  11.034  1.00  0.00     0.173 HD
ENDROOT
BRANCH   2  15
HETATM   15  N   UNL     1     -44.167 -51.399  13.310  1.00  0.00    -0.217 N 
HETATM   16  C   UNL     1     -44.590 -52.564  12.551  1.00  0.00     0.141 C 
HETATM   17  C   UNL     1     -46.107 -52.708  12.583  1.00  0.00     0.024 C 
HETATM   18  C   UNL     1     -46.651 -52.759  14.013  1.00  0.00    -0.015 C 
HETATM   19  C   UNL     1     -46.300 -54.074  14.712  1.00  0.00     0.010 C 
HETATM   20  C   UNL     1     -46.156 -51.527  14.785  1.00  0.00     0.024 C 
HETATM   21  C   UNL     1     -44.640 -51.304  14.695  1.00  0.00     0.141 C 
ENDBRANCH   2  15
BRANCH   1  22
HETATM   22  C   UNL     1     -41.097 -51.884  13.449  1.00  0.00     0.174 C 
BRANCH  22  23
HETATM   23  C   UNL     1     -40.883 -53.073  12.513  1.00  0.00     0.188 C 
BRANCH  23  24
HETATM   24  O   UNL     1     -41.421 -54.254  13.110  1.00  0.00    -0.390 OA
BRANCH  24  25
HETATM   25  C   UNL     1     -41.663 -54.068  14.502  1.00  0.00     0.163 C 
HETATM   26  C   UNL     1     -42.821 -54.958  14.904  1.00  0.00     0.033 C 
ENDBRANCH  24  25
ENDBRANCH  23  24
ENDBRANCH  22  23
ENDBRANCH   1  22
TORSDOF 5
ENDMDL
MODEL 2
REMARK VINA RESULT:      -6.0      3.896      5.823
REMARK  5 active torsions:
REMARK  status: ('A' for Active; 'I' for Inactive)
REMARK    1  A    between atoms: C_2  and  O_3 
REMARK    2  A    between atoms: O_3  and  C_4 
REMARK    3  A    between atoms: C_4  and  C_5 
REMARK    4  A    between atoms: C_5  and  N_6 
REMARK    5  A    between atoms: C_7  and  N_19 
ROOT
HETATM    1  N   UNL     1     -42.549 -53.418  14.498  1.00  0.00    -0.172 N 
HETATM    2  C   UNL     1     -43.159 -53.561  15.745  1.00  0.00     0.684 A 
HETATM    3  N   UNL     1     -42.390 -54.295  16.541  1.00  0.00    -0.174 N 
ATOM      4  HN  UNL     1     -42.616 -54.625  17.478  1.00  0.00     0.186 HD
HETATM    5  C   UNL     1     -41.239 -54.516  15.848  1.00  0.00     0.160 A 
HETATM    6  N   UNL     1     -40.108 -55.181  16.286  1.00  0.00    -0.287 N 
HETATM    7  C   UNL     1     -39.971 -55.691  17.632  1.00  0.00     0.163 C 
HETATM    8  C   UNL     1     -39.032 -55.328  15.417  1.00  0.00     0.330 C 
HETATM    9  O   UNL     1     -37.976 -55.887  15.718  1.00  0.00    -0.246 OA
HETATM   10  N   UNL     1     -39.164 -54.798  14.151  1.00  0.00    -0.273 N 
HETATM   11  C   UNL     1     -40.202 -54.028  13.688  1.00  0.00     0.280 C 
HETATM   12  O   UNL     1     -40.154 -53.459  12.600  1.00  0.00    -0.265 OA
HETATM   13  C   UNL     1     -41.293 -53.964  14.601  1.00  0.00     0.164 A 
HETATM   14  H   UNL     1     -38.362 -54.882  13.549  1.00  0.00     0.173 HD
ENDROOT
BRANCH   2  15
HETATM   15  N   UNL     1     -44.359 -53.014  16.102  1.00  0.00    -0.217 N 
HETATM   16  C   UNL     1     -45.586 -53.778  16.251  1.00  0.00     0.141 C 
HETATM   17  C   UNL     1     -46.762 -53.038  15.626  1.00  0.00     0.024 C 
HETATM   18  C   UNL     1     -46.925 -51.626  16.195  1.00  0.00    -0.015 C 
HETATM   19  C   UNL     1     -47.432 -51.647  17.639  1.00  0.00     0.010 C 
HETATM   20  C   UNL     1     -45.599 -50.867  16.044  1.00  0.00     0.024 C 
HETATM   21  C   UNL     1     -44.380 -51.629  16.583  1.00  0.00     0.141 C 
ENDBRANCH   2  15
BRANCH   1  22
HETATM   22  C   UNL     1     -43.085 -52.865  13.267  1.00  0.00     0.174 C 
BRANCH  22  23
HETATM   23  C   UNL     1     -43.895 -53.846  12.421  1.00  0.00     0.188 C 
BRANCH  23  24
HETATM   24  O   UNL     1     -45.278 -53.493  12.470  1.00  0.00    -0.390 OA
BRANCH  24  25
HETATM   25  C   UNL     1     -45.448 -52.081  12.573  1.00  0.00     0.163 C 
HETATM   26  C   UNL     1     -46.837 -51.735  12.076  1.00  0.00     0.033 C 
ENDBRANCH  24  25
ENDBRANCH  23  24
ENDBRANCH  22  23
ENDBRANCH   1  22
TORSDOF 5
ENDMDL
MODEL 3
REMARK VINA RESULT:      -6.0      1.814      3.106
REMARK  5 active torsions:
REMARK  status: ('A' for Active; 'I' for Inactive)
REMARK    1  A    between atoms: C_2  and  O_3 
REMARK    2  A    between atoms: O_3  and  C_4 
REMARK    3  A    between atoms: C_4  and  C_5 
REMARK    4  A    between atoms: C_5  and  N_6 
REMARK    5  A    between atoms: C_7  and  N_19 
ROOT
HETATM    1  N   UNL     1     -41.068 -49.569  13.089  1.00  0.00    -0.172 N 
HETATM    2  C   UNL     1     -42.220 -50.170  12.579  1.00  0.00     0.684 A 
HETATM    3  N   UNL     1     -42.775 -49.378  11.670  1.00  0.00    -0.174 N 
ATOM      4  HN  UNL     1     -43.663 -49.523  11.190  1.00  0.00     0.186 HD
HETATM    5  C   UNL     1     -41.917 -48.333  11.509  1.00  0.00     0.160 A 
HETATM    6  N   UNL     1     -42.031 -47.278  10.622  1.00  0.00    -0.287 N 
HETATM    7  C   UNL     1     -43.098 -47.184   9.651  1.00  0.00     0.163 C 
HETATM    8  C   UNL     1     -41.056 -46.285  10.624  1.00  0.00     0.330 C 
HETATM    9  O   UNL     1     -41.060 -45.318   9.861  1.00  0.00    -0.246 OA
HETATM   10  N   UNL     1     -40.024 -46.415  11.528  1.00  0.00    -0.273 N 
HETATM   11  C   UNL     1     -39.783 -47.486  12.351  1.00  0.00     0.280 C 
HETATM   12  O   UNL     1     -38.745 -47.586  13.001  1.00  0.00    -0.265 OA
HETATM   13  C   UNL     1     -40.843 -48.437  12.346  1.00  0.00     0.164 A 
HETATM   14  H   UNL     1     -39.310 -45.706  11.489  1.00  0.00     0.173 HD
ENDROOT
BRANCH   2  15
HETATM   15  N   UNL     1     -42.697 -51.397  12.946  1.00  0.00    -0.217 N 
HETATM   16  C   UNL     1     -43.737 -51.597  13.941  1.00  0.00     0.141 C 
HETATM   17  C   UNL     1     -43.384 -52.758  14.864  1.00  0.00     0.024 C 
HETATM   18  C   UNL     1     -43.112 -54.049  14.089  1.00  0.00    -0.015 C 
HETATM   19  C   UNL     1     -44.391 -54.637  13.490  1.00  0.00     0.010 C 
HETATM   20  C   UNL     1     -42.031 -53.783  13.031  1.00  0.00     0.024 C 
HETATM   21  C   UNL     1     -42.315 -52.563  12.144  1.00  0.00     0.141 C 
ENDBRANCH   2  15
BRANCH   1  22
HETATM   22  C   UNL     1     -40.243 -49.965  14.217  1.00  0.00     0.174 C 
BRANCH  22  23
HETATM   23  C   UNL     1     -39.389 -51.210  13.983  1.00  0.00     0.188 C 
BRANCH  23  24
HETATM   24  O   UNL     1     -38.933 -51.229  12.629  1.00  0.00    -0.390 OA
BRANCH  24  25
HETATM   25  C   UNL     1     -37.558 -50.861  12.540  1.00  0.00     0.163 C 
HETATM   26  C   UNL     1     -37.339 -50.169  11.211  1.00  0.00     0.033 C 
ENDBRANCH  24  25
ENDBRANCH  23  24
ENDBRANCH  22  23
ENDBRANCH   1  22
TORSDOF 5
ENDMDL
MODEL 4
REMARK VINA RESULT:      -6.0      2.392      3.989
REMARK  5 active torsions:
REMARK  status: ('A' for Active; 'I' for Inactive)
REMARK    1  A    between atoms: C_2  and  O_3 
REMARK    2  A    between atoms: O_3  and  C_4 
REMARK    3  A    between atoms: C_4  and  C_5 
REMARK    4  A    between atoms: C_5  and  N_6 
REMARK    5  A    between atoms: C_7  and  N_19 
ROOT
HETATM    1  N   UNL     1     -40.975 -48.644  12.035  1.00  0.00    -0.172 N 
HETATM    2  C   UNL     1     -42.002 -49.583  12.140  1.00  0.00     0.684 A 
HETATM    3  N   UNL     1     -43.090 -49.129  11.531  1.00  0.00    -0.174 N 
ATOM      4  HN  UNL     1     -44.011 -49.566  11.514  1.00  0.00     0.186 HD
HETATM    5  C   UNL     1     -42.725 -47.961  10.934  1.00  0.00     0.160 A 
HETATM    6  N   UNL     1     -43.503 -47.148  10.129  1.00  0.00    -0.287 N 
HETATM    7  C   UNL     1     -44.853 -47.491   9.741  1.00  0.00     0.163 C 
HETATM    8  C   UNL     1     -42.955 -45.971   9.627  1.00  0.00     0.330 C 
HETATM    9  O   UNL     1     -43.559 -45.193   8.889  1.00  0.00    -0.246 OA
HETATM   10  N   UNL     1     -41.652 -45.683   9.974  1.00  0.00    -0.273 N 
HETATM   11  C   UNL     1     -40.787 -46.493  10.666  1.00  0.00     0.280 C 
HETATM   12  O   UNL     1     -39.595 -46.223  10.782  1.00  0.00    -0.265 OA
HETATM   13  C   UNL     1     -41.423 -47.650  11.200  1.00  0.00     0.164 A 
HETATM   14  H   UNL     1     -41.262 -44.847   9.572  1.00  0.00     0.173 HD
ENDROOT
BRANCH   2  15
HETATM   15  N   UNL     1     -41.899 -50.797  12.760  1.00  0.00    -0.217 N 
HETATM   16  C   UNL     1     -42.451 -51.085  14.073  1.00  0.00     0.141 C 
HETATM   17  C   UNL     1     -41.462 -51.888  14.910  1.00  0.00     0.024 C 
HETATM   18  C   UNL     1     -41.021 -53.174  14.207  1.00  0.00    -0.015 C 
HETATM   19  C   UNL     1     -42.145 -54.211  14.157  1.00  0.00     0.010 C 
HETATM   20  C   UNL     1     -40.475 -52.825  12.815  1.00  0.00     0.024 C 
HETATM   21  C   UNL     1     -41.412 -51.940  11.982  1.00  0.00     0.141 C 
ENDBRANCH   2  15
BRANCH   1  22
HETATM   22  C   UNL     1     -39.679 -48.617  12.692  1.00  0.00     0.174 C 
BRANCH  22  23
HETATM   23  C   UNL     1     -38.573 -49.378  11.964  1.00  0.00     0.188 C 
BRANCH  23  24
HETATM   24  O   UNL     1     -38.017 -50.364  12.835  1.00  0.00    -0.390 OA
BRANCH  24  25
HETATM   25  C   UNL     1     -38.345 -50.096  14.196  1.00  0.00     0.163 C 
HETATM   26  C   UNL     1     -37.061 -50.092  15.001  1.00  0.00     0.033 C 
ENDBRANCH  24  25
ENDBRANCH  23  24
ENDBRANCH  22  23
ENDBRANCH   1  22
TORSDOF 5
ENDMDL
MODEL 5
REMARK VINA RESULT:      -5.9      2.854      5.959
REMARK  5 active torsions:
REMARK  status: ('A' for Active; 'I' for Inactive)
REMARK    1  A    between atoms: C_2  and  O_3 
REMARK    2  A    between atoms: O_3  and  C_4 
REMARK    3  A    between atoms: C_4  and  C_5 
REMARK    4  A    between atoms: C_5  and  N_6 
REMARK    5  A    between atoms: C_7  and  N_19 
ROOT
HETATM    1  N   UNL     1     -41.450 -53.400  13.570  1.00  0.00    -0.172 N 
HETATM    2  C   UNL     1     -42.688 -53.664  14.158  1.00  0.00     0.684 A 
HETATM    3  N   UNL     1     -42.549 -54.580  15.108  1.00  0.00    -0.174 N 
ATOM      4  HN  UNL     1     -43.292 -55.021  15.649  1.00  0.00     0.186 HD
HETATM    5  C   UNL     1     -41.211 -54.810  15.213  1.00  0.00     0.160 A 
HETATM    6  N   UNL     1     -40.567 -55.641  16.111  1.00  0.00    -0.287 N 
HETATM    7  C   UNL     1     -41.266 -56.355  17.156  1.00  0.00     0.163 C 
HETATM    8  C   UNL     1     -39.183 -55.765  16.045  1.00  0.00     0.330 C 
HETATM    9  O   UNL     1     -38.518 -56.464  16.811  1.00  0.00    -0.246 OA
HETATM   10  N   UNL     1     -38.530 -55.043  15.070  1.00  0.00    -0.273 N 
HETATM   11  C   UNL     1     -39.085 -54.113  14.225  1.00  0.00     0.280 C 
HETATM   12  O   UNL     1     -38.395 -53.398  13.503  1.00  0.00    -0.265 OA
HETATM   13  C   UNL     1     -40.506 -54.077  14.301  1.00  0.00     0.164 A 
HETATM   14  H   UNL     1     -37.526 -55.117  15.061  1.00  0.00     0.173 HD
ENDROOT
BRANCH   2  15
HETATM   15  N   UNL     1     -43.866 -53.059  13.819  1.00  0.00    -0.217 N 
HETATM   16  C   UNL     1     -44.077 -51.621  13.850  1.00  0.00     0.141 C 
HETATM   17  C   UNL     1     -45.435 -51.289  14.457  1.00  0.00     0.024 C 
HETATM   18  C   UNL     1     -46.581 -51.995  13.729  1.00  0.00    -0.015 C 
HETATM   19  C   UNL     1     -46.823 -51.406  12.337  1.00  0.00     0.010 C 
HETATM   20  C   UNL     1     -46.302 -53.504  13.692  1.00  0.00     0.024 C 
HETATM   21  C   UNL     1     -44.904 -53.866  13.170  1.00  0.00     0.141 C 
ENDBRANCH   2  15
BRANCH   1  22
HETATM   22  C   UNL     1     -41.139 -52.621  12.384  1.00  0.00     0.174 C 
BRANCH  22  23
HETATM   23  C   UNL     1     -40.799 -51.155  12.649  1.00  0.00     0.188 C 
BRANCH  23  24
HETATM   24  O   UNL     1     -39.986 -50.653  11.586  1.00  0.00    -0.390 OA
BRANCH  24  25
HETATM   25  C   UNL     1     -39.016 -49.727  12.069  1.00  0.00     0.163 C 
HETATM   26  C   UNL     1     -37.640 -50.277  11.757  1.00  0.00     0.033 C 
ENDBRANCH  24  25
ENDBRANCH  23  24
ENDBRANCH  22  23
ENDBRANCH   1  22
TORSDOF 5
ENDMDL
MODEL 6
REMARK VINA RESULT:      -5.7      2.771      4.721
REMARK  5 active torsions:
REMARK  status: ('A' for Active; 'I' for Inactive)
REMARK    1  A    between atoms: C_2  and  O_3 
REMARK    2  A    between atoms: O_3  and  C_4 
REMARK    3  A    between atoms: C_4  and  C_5 
REMARK    4  A    between atoms: C_5  and  N_6 
REMARK    5  A    between atoms: C_7  and  N_19 
ROOT
HETATM    1  N   UNL     1     -40.763 -48.506  11.911  1.00  0.00    -0.172 N 
HETATM    2  C   UNL     1     -41.710 -49.521  12.059  1.00  0.00     0.684 A 
HETATM    3  N   UNL     1     -42.856 -49.151  11.502  1.00  0.00    -0.174 N 
ATOM      4  HN  UNL     1     -43.741 -49.657  11.526  1.00  0.00     0.186 HD
HETATM    5  C   UNL     1     -42.609 -47.959  10.893  1.00  0.00     0.160 A 
HETATM    6  N   UNL     1     -43.482 -47.207  10.127  1.00  0.00    -0.287 N 
HETATM    7  C   UNL     1     -44.818 -47.652   9.800  1.00  0.00     0.163 C 
HETATM    8  C   UNL     1     -43.049 -45.992   9.605  1.00  0.00     0.330 C 
HETATM    9  O   UNL     1     -43.744 -45.262   8.898  1.00  0.00    -0.246 OA
HETATM   10  N   UNL     1     -41.758 -45.605   9.893  1.00  0.00    -0.273 N 
HETATM   11  C   UNL     1     -40.803 -46.347  10.542  1.00  0.00     0.280 C 
HETATM   12  O   UNL     1     -39.630 -45.986  10.604  1.00  0.00    -0.265 OA
HETATM   13  C   UNL     1     -41.323 -47.549  11.101  1.00  0.00     0.164 A 
HETATM   14  H   UNL     1     -41.452 -44.742   9.477  1.00  0.00     0.173 HD
ENDROOT
BRANCH   2  15
HETATM   15  N   UNL     1     -41.486 -50.723  12.670  1.00  0.00    -0.217 N 
HETATM   16  C   UNL     1     -40.565 -51.729  12.168  1.00  0.00     0.141 C 
HETATM   17  C   UNL     1     -41.180 -53.120  12.265  1.00  0.00     0.024 C 
HETATM   18  C   UNL     1     -41.631 -53.453  13.689  1.00  0.00    -0.015 C 
HETATM   19  C   UNL     1     -40.443 -53.681  14.626  1.00  0.00     0.010 C 
HETATM   20  C   UNL     1     -42.577 -52.351  14.189  1.00  0.00     0.024 C 
HETATM   21  C   UNL     1     -42.021 -50.930  14.019  1.00  0.00     0.141 C 
ENDBRANCH   2  15
BRANCH   1  22
HETATM   22  C   UNL     1     -39.445 -48.380  12.508  1.00  0.00     0.174 C 
BRANCH  22  23
HETATM   23  C   UNL     1     -39.444 -48.074  14.005  1.00  0.00     0.188 C 
BRANCH  23  24
HETATM   24  O   UNL     1     -39.948 -46.755  14.224  1.00  0.00    -0.390 OA
BRANCH  24  25
HETATM   25  C   UNL     1     -38.936 -45.773  14.021  1.00  0.00     0.163 C 
HETATM   26  C   UNL     1     -39.612 -44.438  13.786  1.00  0.00     0.033 C 
ENDBRANCH  24  25
ENDBRANCH  23  24
ENDBRANCH  22  23
ENDBRANCH   1  22
TORSDOF 5
ENDMDL
MODEL 7
REMARK VINA RESULT:      -5.6      1.880      6.206
REMARK  5 active torsions:
REMARK  status: ('A' for Active; 'I' for Inactive)
REMARK    1  A    between atoms: C_2  and  O_3 
REMARK    2  A    between atoms: O_3  and  C_4 
REMARK    3  A    between atoms: C_4  and  C_5 
REMARK    4  A    between atoms: C_5  and  N_6 
REMARK    5  A    between atoms: C_7  and  N_19 
ROOT
HETATM    1  N   UNL     1     -41.527 -51.882  13.162  1.00  0.00    -0.172 N 
HETATM    2  C   UNL     1     -42.318 -50.812  12.739  1.00  0.00     0.684 A 
HETATM    3  N   UNL     1     -43.596 -51.169  12.743  1.00  0.00    -0.174 N 
ATOM      4  HN  UNL     1     -44.388 -50.620  12.410  1.00  0.00     0.186 HD
HETATM    5  C   UNL     1     -43.634 -52.419  13.284  1.00  0.00     0.160 A 
HETATM    6  N   UNL     1     -44.753 -53.187  13.552  1.00  0.00    -0.287 N 
HETATM    7  C   UNL     1     -46.101 -52.704  13.349  1.00  0.00     0.163 C 
HETATM    8  C   UNL     1     -44.586 -54.460  14.087  1.00  0.00     0.330 C 
HETATM    9  O   UNL     1     -45.518 -55.211  14.377  1.00  0.00    -0.246 OA
HETATM   10  N   UNL     1     -43.295 -54.885  14.315  1.00  0.00    -0.273 N 
HETATM   11  C   UNL     1     -42.149 -54.141  14.184  1.00  0.00     0.280 C 
HETATM   12  O   UNL     1     -41.058 -54.553  14.571  1.00  0.00    -0.265 OA
HETATM   13  C   UNL     1     -42.381 -52.872  13.579  1.00  0.00     0.164 A 
HETATM   14  H   UNL     1     -43.196 -55.794  14.735  1.00  0.00     0.173 HD
ENDROOT
BRANCH   2  15
HETATM   15  N   UNL     1     -41.850 -49.577  12.390  1.00  0.00    -0.217 N 
HETATM   16  C   UNL     1     -41.727 -48.464  13.316  1.00  0.00     0.141 C 
HETATM   17  C   UNL     1     -42.215 -47.171  12.675  1.00  0.00     0.024 C 
HETATM   18  C   UNL     1     -41.492 -46.870  11.360  1.00  0.00    -0.015 C 
HETATM   19  C   UNL     1     -40.037 -46.456  11.591  1.00  0.00     0.010 C 
HETATM   20  C   UNL     1     -41.621 -48.082  10.425  1.00  0.00     0.024 C 
HETATM   21  C   UNL     1     -41.223 -49.414  11.074  1.00  0.00     0.141 C 
ENDBRANCH   2  15
BRANCH   1  22
HETATM   22  C   UNL     1     -40.081 -52.023  13.144  1.00  0.00     0.174 C 
BRANCH  22  23
HETATM   23  C   UNL     1     -39.342 -51.199  14.196  1.00  0.00     0.188 C 
BRANCH  23  24
HETATM   24  O   UNL     1     -38.592 -50.166  13.555  1.00  0.00    -0.390 OA
BRANCH  24  25
HETATM   25  C   UNL     1     -37.603 -50.708  12.684  1.00  0.00     0.163 C 
HETATM   26  C   UNL     1     -37.543 -49.845  11.440  1.00  0.00     0.033 C 
ENDBRANCH  24  25
ENDBRANCH  23  24
ENDBRANCH  22  23
ENDBRANCH   1  22
TORSDOF 5
ENDMDL
MODEL 8
REMARK VINA RESULT:      -5.5      2.115      6.155
REMARK  5 active torsions:
REMARK  status: ('A' for Active; 'I' for Inactive)
REMARK    1  A    between atoms: C_2  and  O_3 
REMARK    2  A    between atoms: O_3  and  C_4 
REMARK    3  A    between atoms: C_4  and  C_5 
REMARK    4  A    between atoms: C_5  and  N_6 
REMARK    5  A    between atoms: C_7  and  N_19 
ROOT
HETATM    1  N   UNL     1     -41.087 -50.787  12.407  1.00  0.00    -0.172 N 
HETATM    2  C   UNL     1     -41.949 -49.693  12.483  1.00  0.00     0.684 A 
HETATM    3  N   UNL     1     -43.206 -50.114  12.540  1.00  0.00    -0.174 N 
ATOM      4  HN  UNL     1     -44.048 -49.539  12.524  1.00  0.00     0.186 HD
HETATM    5  C   UNL     1     -43.142 -51.472  12.627  1.00  0.00     0.160 A 
HETATM    6  N   UNL     1     -44.195 -52.357  12.770  1.00  0.00    -0.287 N 
HETATM    7  C   UNL     1     -45.566 -51.925  12.928  1.00  0.00     0.163 C 
HETATM    8  C   UNL     1     -43.929 -53.722  12.816  1.00  0.00     0.330 C 
HETATM    9  O   UNL     1     -44.795 -54.586  12.960  1.00  0.00    -0.246 OA
HETATM   10  N   UNL     1     -42.612 -54.113  12.707  1.00  0.00    -0.273 N 
HETATM   11  C   UNL     1     -41.511 -53.293  12.681  1.00  0.00     0.280 C 
HETATM   12  O   UNL     1     -40.368 -53.737  12.753  1.00  0.00    -0.265 OA
HETATM   13  C   UNL     1     -41.852 -51.914  12.578  1.00  0.00     0.164 A 
HETATM   14  H   UNL     1     -42.436 -55.101  12.779  1.00  0.00     0.173 HD
ENDROOT
BRANCH   2  15
HETATM   15  N   UNL     1     -41.560 -48.383  12.510  1.00  0.00    -0.217 N 
HETATM   16  C   UNL     1     -41.215 -47.615  11.327  1.00  0.00     0.141 C 
HETATM   17  C   UNL     1     -39.968 -46.773  11.573  1.00  0.00     0.024 C 
HETATM   18  C   UNL     1     -40.120 -45.861  12.793  1.00  0.00    -0.015 C 
HETATM   19  C   UNL     1     -41.099 -44.715  12.530  1.00  0.00     0.010 C 
HETATM   20  C   UNL     1     -40.514 -46.709  14.011  1.00  0.00     0.024 C 
HETATM   21  C   UNL     1     -41.712 -47.636  13.763  1.00  0.00     0.141 C 
ENDBRANCH   2  15
BRANCH   1  22
HETATM   22  C   UNL     1     -39.658 -50.819  12.145  1.00  0.00     0.174 C 
BRANCH  22  23
HETATM   23  C   UNL     1     -38.774 -50.652  13.380  1.00  0.00     0.188 C 
BRANCH  23  24
HETATM   24  O   UNL     1     -38.158 -49.364  13.357  1.00  0.00    -0.390 OA
BRANCH  24  25
HETATM   25  C   UNL     1     -37.594 -49.037  14.625  1.00  0.00     0.163 C 
HETATM   26  C   UNL     1     -37.045 -47.627  14.549  1.00  0.00     0.033 C 
ENDBRANCH  24  25
ENDBRANCH  23  24
ENDBRANCH  22  23
ENDBRANCH   1  22
TORSDOF 5
ENDMDL
MODEL 9
REMARK VINA RESULT:      -5.4      1.771      2.957
REMARK  5 active torsions:
REMARK  status: ('A' for Active; 'I' for Inactive)
REMARK    1  A    between atoms: C_2  and  O_3 
REMARK    2  A    between atoms: O_3  and  C_4 
REMARK    3  A    between atoms: C_4  and  C_5 
REMARK    4  A    between atoms: C_5  and  N_6 
REMARK    5  A    between atoms: C_7  and  N_19 
ROOT
HETATM    1  N   UNL     1     -42.776 -51.976  14.357  1.00  0.00    -0.172 N 
HETATM    2  C   UNL     1     -43.799 -51.031  14.446  1.00  0.00     0.684 A 
HETATM    3  N   UNL     1     -43.533 -50.005  13.648  1.00  0.00    -0.174 N 
ATOM      4  HN  UNL     1     -44.063 -49.137  13.567  1.00  0.00     0.186 HD
HETATM    5  C   UNL     1     -42.409 -50.347  12.960  1.00  0.00     0.160 A 
HETATM    6  N   UNL     1     -41.778 -49.623  11.963  1.00  0.00    -0.287 N 
HETATM    7  C   UNL     1     -42.302 -48.377  11.450  1.00  0.00     0.163 C 
HETATM    8  C   UNL     1     -40.616 -50.131  11.392  1.00  0.00     0.330 C 
HETATM    9  O   UNL     1     -39.994 -49.572  10.488  1.00  0.00    -0.246 OA
HETATM   10  N   UNL     1     -40.156 -51.341  11.865  1.00  0.00    -0.273 N 
HETATM   11  C   UNL     1     -40.788 -52.167  12.761  1.00  0.00     0.280 C 
HETATM   12  O   UNL     1     -40.383 -53.303  12.996  1.00  0.00    -0.265 OA
HETATM   13  C   UNL     1     -41.936 -51.566  13.351  1.00  0.00     0.164 A 
HETATM   14  H   UNL     1     -39.335 -51.710  11.414  1.00  0.00     0.173 HD
ENDROOT
BRANCH   2  15
HETATM   15  N   UNL     1     -44.917 -51.151  15.223  1.00  0.00    -0.217 N 
HETATM   16  C   UNL     1     -44.933 -50.923  16.658  1.00  0.00     0.141 C 
HETATM   17  C   UNL     1     -45.754 -51.996  17.365  1.00  0.00     0.024 C 
HETATM   18  C   UNL     1     -47.177 -52.094  16.810  1.00  0.00    -0.015 C 
HETATM   19  C   UNL     1     -48.027 -50.884  17.203  1.00  0.00     0.010 C 
HETATM   20  C   UNL     1     -47.111 -52.303  15.290  1.00  0.00     0.024 C 
HETATM   21  C   UNL     1     -46.217 -51.291  14.560  1.00  0.00     0.141 C 
ENDBRANCH   2  15
BRANCH   1  22
HETATM   22  C   UNL     1     -42.539 -53.158  15.168  1.00  0.00     0.174 C 
BRANCH  22  23
HETATM   23  C   UNL     1     -43.067 -54.462  14.572  1.00  0.00     0.188 C 
BRANCH  23  24
HETATM   24  O   UNL     1     -44.367 -54.736  15.096  1.00  0.00    -0.390 OA
BRANCH  24  25
HETATM   25  C   UNL     1     -45.301 -55.002  14.052  1.00  0.00     0.163 C 
HETATM   26  C   UNL     1     -44.805 -54.326  12.790  1.00  0.00     0.033 C 
ENDBRANCH  24  25
ENDBRANCH  23  24
ENDBRANCH  22  23
ENDBRANCH   1  22
TORSDOF 5
ENDMDL
