MODEL 1
REMARK VINA RESULT:      -5.3      0.000      0.000
REMARK  3 active torsions:
REMARK  status: ('A' for Active; 'I' for Inactive)
REMARK    1  A    between atoms: N_7  and  C_8 
REMARK    2  A    between atoms: C_8  and  C_9 
REMARK       I    between atoms: C_9  and  N_11 
REMARK    3  A    between atoms: N_11  and  C_12 
ROOT
HETATM    1  C   UNL     1     -41.083 -52.369  11.807  1.00  0.00     0.233 C 
ENDROOT
BRANCH   1   2
HETATM    2  N   UNL     1     -40.367 -51.198  12.289  1.00  0.00    -0.329 N 
HETATM    3  C   UNL     1     -40.151 -50.099  11.487  1.00  0.00     0.144 A 
HETATM    4  N   UNL     1     -40.560 -49.855  10.293  1.00  0.00    -0.379 N 
HETATM    5  S   UNL     1     -39.115 -48.933  12.336  1.00  0.00    -0.065 SA
HETATM    6  H   UNL     1     -40.183 -48.927  10.052  1.00  0.00     0.158 HD
ATOM      7  HN  UNL     1     -41.138 -50.456   9.706  1.00  0.00     0.158 HD
HETATM    8  C   UNL     1     -38.998 -50.013  13.710  1.00  0.00     0.070 A 
HETATM    9  C   UNL     1     -39.709 -51.130  13.510  1.00  0.00     0.101 A 
ENDBRANCH   1   2
BRANCH   1  10
HETATM   10  C   UNL     1     -42.216 -52.772  12.750  1.00  0.00     0.236 C 
HETATM   11  O   UNL     1     -42.102 -53.691  13.558  1.00  0.00    -0.272 OA
HETATM   12  N   UNL     1     -43.379 -52.047  12.571  1.00  0.00    -0.355 N 
HETATM   13  H   UNL     1     -43.226 -51.088  12.249  1.00  0.00     0.162 HD
BRANCH  12  14
HETATM   14  C   UNL     1     -44.558 -52.283  13.378  1.00  0.00     0.084 C 
HETATM   15  C   UNL     1     -45.839 -52.291  12.539  1.00  0.00     0.025 C 
HETATM   16  C   UNL     1     -46.905 -51.585  13.374  1.00  0.00     0.002 C 
HETATM   17  C   UNL     1     -46.263 -51.301  14.726  1.00  0.00     0.002 C 
HETATM   18  C   UNL     1     -44.780 -51.187  14.415  1.00  0.00     0.025 C 
ENDBRANCH  12  14
ENDBRANCH   1  10
TORSDOF 3
ENDMDL
MODEL 2
REMARK VINA RESULT:      -5.0      2.685      3.457
REMARK  3 active torsions:
REMARK  status: ('A' for Active; 'I' for Inactive)
REMARK    1  A    between atoms: N_7  and  C_8 
REMARK    2  A    between atoms: C_8  and  C_9 
REMARK       I    between atoms: C_9  and  N_11 
REMARK    3  A    between atoms: N_11  and  C_12 
ROOT
HETATM    1  C   UNL     1     -43.814 -53.768  12.414  1.00  0.00     0.233 C 
ENDROOT
BRANCH   1   2
HETATM    2  N   UNL     1     -42.531 -53.721  13.099  1.00  0.00    -0.329 N 
HETATM    3  C   UNL     1     -41.421 -53.145  12.520  1.00  0.00     0.144 A 
HETATM    4  N   UNL     1     -41.303 -52.518  11.405  1.00  0.00    -0.379 N 
HETATM    5  S   UNL     1     -40.003 -53.407  13.557  1.00  0.00    -0.065 SA
HETATM    6  H   UNL     1     -40.311 -52.247  11.340  1.00  0.00     0.158 HD
ATOM      7  HN  UNL     1     -42.039 -52.329  10.724  1.00  0.00     0.158 HD
HETATM    8  C   UNL     1     -40.981 -54.312  14.694  1.00  0.00     0.070 A 
HETATM    9  C   UNL     1     -42.258 -54.369  14.297  1.00  0.00     0.101 A 
ENDBRANCH   1   2
BRANCH   1  10
HETATM   10  C   UNL     1     -44.976 -53.941  13.393  1.00  0.00     0.236 C 
HETATM   11  O   UNL     1     -45.632 -54.978  13.455  1.00  0.00    -0.272 OA
HETATM   12  N   UNL     1     -45.243 -52.816  14.149  1.00  0.00    -0.355 N 
HETATM   13  H   UNL     1     -44.419 -52.241  14.346  1.00  0.00     0.162 HD
BRANCH  12  14
HETATM   14  C   UNL     1     -46.304 -52.793  15.135  1.00  0.00     0.084 C 
HETATM   15  C   UNL     1     -47.057 -51.459  15.141  1.00  0.00     0.025 C 
HETATM   16  C   UNL     1     -47.353 -51.139  16.605  1.00  0.00     0.002 C 
HETATM   17  C   UNL     1     -46.887 -52.349  17.404  1.00  0.00     0.002 C 
HETATM   18  C   UNL     1     -45.777 -52.948  16.557  1.00  0.00     0.025 C 
ENDBRANCH  12  14
ENDBRANCH   1  10
TORSDOF 3
ENDMDL
MODEL 3
REMARK VINA RESULT:      -4.9      1.626      1.855
REMARK  3 active torsions:
REMARK  status: ('A' for Active; 'I' for Inactive)
REMARK    1  A    between atoms: N_7  and  C_8 
REMARK    2  A    between atoms: C_8  and  C_9 
REMARK       I    between atoms: C_9  and  N_11 
REMARK    3  A    between atoms: N_11  and  C_12 
ROOT
HETATM    1  C   UNL     1     -41.484 -54.341  13.453  1.00  0.00     0.233 C 
ENDROOT
BRANCH   1   2
HETATM    2  N   UNL     1     -40.806 -53.054  13.454  1.00  0.00    -0.329 N 
HETATM    3  C   UNL     1     -40.691 -52.294  12.311  1.00  0.00     0.144 A 
HETATM    4  N   UNL     1     -41.174 -52.491  11.137  1.00  0.00    -0.379 N 
HETATM    5  S   UNL     1     -39.672 -50.876  12.636  1.00  0.00    -0.065 SA
HETATM    6  H   UNL     1     -40.860 -51.693  10.567  1.00  0.00     0.158 HD
ATOM      7  HN  UNL     1     -41.751 -53.275  10.832  1.00  0.00     0.158 HD
HETATM    8  C   UNL     1     -39.427 -51.410  14.286  1.00  0.00     0.070 A 
HETATM    9  C   UNL     1     -40.088 -52.548  14.530  1.00  0.00     0.101 A 
ENDBRANCH   1   2
BRANCH   1  10
HETATM   10  C   UNL     1     -42.849 -54.266  14.138  1.00  0.00     0.236 C 
HETATM   11  O   UNL     1     -43.238 -55.127  14.924  1.00  0.00    -0.272 OA
HETATM   12  N   UNL     1     -43.610 -53.179  13.752  1.00  0.00    -0.355 N 
HETATM   13  H   UNL     1     -43.060 -52.355  13.497  1.00  0.00     0.162 HD
BRANCH  12  14
HETATM   14  C   UNL     1     -44.929 -52.938  14.300  1.00  0.00     0.084 C 
HETATM   15  C   UNL     1     -45.938 -52.538  13.219  1.00  0.00     0.025 C 
HETATM   16  C   UNL     1     -46.822 -51.455  13.835  1.00  0.00     0.002 C 
HETATM   17  C   UNL     1     -46.398 -51.343  15.293  1.00  0.00     0.002 C 
HETATM   18  C   UNL     1     -44.943 -51.779  15.291  1.00  0.00     0.025 C 
ENDBRANCH  12  14
ENDBRANCH   1  10
TORSDOF 3
ENDMDL
MODEL 4
REMARK VINA RESULT:      -4.9      2.263      2.875
REMARK  3 active torsions:
REMARK  status: ('A' for Active; 'I' for Inactive)
REMARK    1  A    between atoms: N_7  and  C_8 
REMARK    2  A    between atoms: C_8  and  C_9 
REMARK       I    between atoms: C_9  and  N_11 
REMARK    3  A    between atoms: N_11  and  C_12 
ROOT
HETATM    1  C   UNL     1     -40.501 -50.394  13.265  1.00  0.00     0.233 C 
ENDROOT
BRANCH   1   2
HETATM    2  N   UNL     1     -41.276 -49.444  12.482  1.00  0.00    -0.329 N 
HETATM    3  C   UNL     1     -41.076 -49.288  11.128  1.00  0.00     0.144 A 
HETATM    4  N   UNL     1     -40.305 -49.933  10.327  1.00  0.00    -0.379 N 
HETATM    5  S   UNL     1     -42.069 -47.943  10.528  1.00  0.00    -0.065 SA
HETATM    6  H   UNL     1     -40.449 -49.511   9.399  1.00  0.00     0.158 HD
ATOM      7  HN  UNL     1     -39.680 -50.704  10.563  1.00  0.00     0.158 HD
HETATM    8  C   UNL     1     -42.668 -47.642  12.146  1.00  0.00     0.070 A 
HETATM    9  C   UNL     1     -42.153 -48.514  13.023  1.00  0.00     0.101 A 
ENDBRANCH   1   2
BRANCH   1  10
HETATM   10  C   UNL     1     -40.934 -51.837  13.001  1.00  0.00     0.236 C 
HETATM   11  O   UNL     1     -40.281 -52.599  12.291  1.00  0.00    -0.272 OA
HETATM   12  N   UNL     1     -42.139 -52.176  13.587  1.00  0.00    -0.355 N 
HETATM   13  H   UNL     1     -42.332 -51.680  14.460  1.00  0.00     0.162 HD
BRANCH  12  14
HETATM   14  C   UNL     1     -42.706 -53.502  13.452  1.00  0.00     0.084 C 
HETATM   15  C   UNL     1     -44.005 -53.493  12.640  1.00  0.00     0.025 C 
HETATM   16  C   UNL     1     -44.942 -54.493  13.317  1.00  0.00     0.002 C 
HETATM   17  C   UNL     1     -44.127 -55.154  14.420  1.00  0.00     0.002 C 
HETATM   18  C   UNL     1     -43.093 -54.107  14.797  1.00  0.00     0.025 C 
ENDBRANCH  12  14
ENDBRANCH   1  10
TORSDOF 3
ENDMDL
MODEL 5
REMARK VINA RESULT:      -4.8      2.110      2.303
REMARK  3 active torsions:
REMARK  status: ('A' for Active; 'I' for Inactive)
REMARK    1  A    between atoms: N_7  and  C_8 
REMARK    2  A    between atoms: C_8  and  C_9 
REMARK       I    between atoms: C_9  and  N_11 
REMARK    3  A    between atoms: N_11  and  C_12 
ROOT
HETATM    1  C   UNL     1     -41.174 -50.498  11.701  1.00  0.00     0.233 C 
ENDROOT
BRANCH   1   2
HETATM    2  N   UNL     1     -40.167 -49.846  12.525  1.00  0.00    -0.329 N 
HETATM    3  C   UNL     1     -38.878 -49.653  12.077  1.00  0.00     0.144 A 
HETATM    4  N   UNL     1     -38.357 -49.904  10.930  1.00  0.00    -0.379 N 
HETATM    5  S   UNL     1     -37.885 -48.982  13.386  1.00  0.00    -0.065 SA
HETATM    6  H   UNL     1     -37.371 -49.615  11.001  1.00  0.00     0.158 HD
ATOM      7  HN  UNL     1     -38.823 -50.306  10.116  1.00  0.00     0.158 HD
HETATM    8  C   UNL     1     -39.255 -49.035  14.476  1.00  0.00     0.070 A 
HETATM    9  C   UNL     1     -40.346 -49.505  13.859  1.00  0.00     0.101 A 
ENDBRANCH   1   2
BRANCH   1  10
HETATM   10  C   UNL     1     -41.382 -51.958  12.106  1.00  0.00     0.236 C 
HETATM   11  O   UNL     1     -40.465 -52.777  12.101  1.00  0.00    -0.272 OA
HETATM   12  N   UNL     1     -42.690 -52.270  12.421  1.00  0.00    -0.355 N 
HETATM   13  H   UNL     1     -43.219 -51.492  12.823  1.00  0.00     0.162 HD
BRANCH  12  14
HETATM   14  C   UNL     1     -43.078 -53.604  12.834  1.00  0.00     0.084 C 
HETATM   15  C   UNL     1     -44.560 -53.882  12.565  1.00  0.00     0.025 C 
HETATM   16  C   UNL     1     -45.069 -54.689  13.758  1.00  0.00     0.002 C 
HETATM   17  C   UNL     1     -43.851 -54.974  14.626  1.00  0.00     0.002 C 
HETATM   18  C   UNL     1     -42.909 -53.819  14.334  1.00  0.00     0.025 C 
ENDBRANCH  12  14
ENDBRANCH   1  10
TORSDOF 3
ENDMDL
MODEL 6
REMARK VINA RESULT:      -4.8      2.311      2.481
REMARK  3 active torsions:
REMARK  status: ('A' for Active; 'I' for Inactive)
REMARK    1  A    between atoms: N_7  and  C_8 
REMARK    2  A    between atoms: C_8  and  C_9 
REMARK       I    between atoms: C_9  and  N_11 
REMARK    3  A    between atoms: N_11  and  C_12 
ROOT
HETATM    1  C   UNL     1     -40.419 -54.147  13.436  1.00  0.00     0.233 C 
ENDROOT
BRANCH   1   2
HETATM    2  N   UNL     1     -40.266 -52.705  13.316  1.00  0.00    -0.329 N 
HETATM    3  C   UNL     1     -40.689 -52.022  12.197  1.00  0.00     0.144 A 
HETATM    4  N   UNL     1     -41.318 -52.446  11.160  1.00  0.00    -0.379 N 
HETATM    5  S   UNL     1     -40.203 -50.318  12.317  1.00  0.00    -0.065 SA
HETATM    6  H   UNL     1     -41.446 -51.623  10.554  1.00  0.00     0.158 HD
ATOM      7  HN  UNL     1     -41.627 -53.400  10.974  1.00  0.00     0.158 HD
HETATM    8  C   UNL     1     -39.422 -50.632  13.853  1.00  0.00     0.070 A 
HETATM    9  C   UNL     1     -39.558 -51.915  14.212  1.00  0.00     0.101 A 
ENDBRANCH   1   2
BRANCH   1  10
HETATM   10  C   UNL     1     -41.499 -54.522  14.451  1.00  0.00     0.236 C 
HETATM   11  O   UNL     1     -41.228 -54.905  15.587  1.00  0.00    -0.272 OA
HETATM   12  N   UNL     1     -42.786 -54.439  13.956  1.00  0.00    -0.355 N 
HETATM   13  H   UNL     1     -42.911 -53.721  13.238  1.00  0.00     0.162 HD
BRANCH  12  14
HETATM   14  C   UNL     1     -43.941 -54.750  14.774  1.00  0.00     0.084 C 
HETATM   15  C   UNL     1     -45.164 -55.119  13.929  1.00  0.00     0.025 C 
HETATM   16  C   UNL     1     -46.371 -54.490  14.622  1.00  0.00     0.002 C 
HETATM   17  C   UNL     1     -45.846 -53.885  15.917  1.00  0.00     0.002 C 
HETATM   18  C   UNL     1     -44.394 -53.561  15.613  1.00  0.00     0.025 C 
ENDBRANCH  12  14
ENDBRANCH   1  10
TORSDOF 3
ENDMDL
MODEL 7
REMARK VINA RESULT:      -4.7      2.180      2.595
REMARK  3 active torsions:
REMARK  status: ('A' for Active; 'I' for Inactive)
REMARK    1  A    between atoms: N_7  and  C_8 
REMARK    2  A    between atoms: C_8  and  C_9 
REMARK       I    between atoms: C_9  and  N_11 
REMARK    3  A    between atoms: N_11  and  C_12 
ROOT
HETATM    1  C   UNL     1     -40.487 -50.051  11.346  1.00  0.00     0.233 C 
ENDROOT
BRANCH   1   2
HETATM    2  N   UNL     1     -40.596 -48.601  11.384  1.00  0.00    -0.329 N 
HETATM    3  C   UNL     1     -41.481 -47.918  10.578  1.00  0.00     0.144 A 
HETATM    4  N   UNL     1     -42.368 -48.365   9.763  1.00  0.00    -0.379 N 
HETATM    5  S   UNL     1     -41.235 -46.170  10.767  1.00  0.00    -0.065 SA
HETATM    6  H   UNL     1     -42.819 -47.534   9.356  1.00  0.00     0.158 HD
ATOM      7  HN  UNL     1     -42.581 -49.342   9.560  1.00  0.00     0.158 HD
HETATM    8  C   UNL     1     -39.925 -46.458  11.893  1.00  0.00     0.070 A 
HETATM    9  C   UNL     1     -39.739 -47.769  12.094  1.00  0.00     0.101 A 
ENDBRANCH   1   2
BRANCH   1  10
HETATM   10  C   UNL     1     -41.274 -50.711  12.479  1.00  0.00     0.236 C 
HETATM   11  O   UNL     1     -40.816 -50.831  13.613  1.00  0.00    -0.272 OA
HETATM   12  N   UNL     1     -42.508 -51.199  12.094  1.00  0.00    -0.355 N 
HETATM   13  H   UNL     1     -42.946 -50.671  11.335  1.00  0.00     0.162 HD
BRANCH  12  14
HETATM   14  C   UNL     1     -43.397 -51.852  13.032  1.00  0.00     0.084 C 
HETATM   15  C   UNL     1     -44.029 -53.117  12.444  1.00  0.00     0.025 C 
HETATM   16  C   UNL     1     -45.476 -53.144  12.935  1.00  0.00     0.002 C 
HETATM   17  C   UNL     1     -45.616 -51.973  13.899  1.00  0.00     0.002 C 
HETATM   18  C   UNL     1     -44.581 -50.971  13.418  1.00  0.00     0.025 C 
ENDBRANCH  12  14
ENDBRANCH   1  10
TORSDOF 3
ENDMDL
MODEL 8
REMARK VINA RESULT:      -4.6      3.638      4.924
REMARK  3 active torsions:
REMARK  status: ('A' for Active; 'I' for Inactive)
REMARK    1  A    between atoms: N_7  and  C_8 
REMARK    2  A    between atoms: C_8  and  C_9 
REMARK       I    between atoms: C_9  and  N_11 
REMARK    3  A    between atoms: N_11  and  C_12 
ROOT
HETATM    1  C   UNL     1     -42.699 -48.146  12.006  1.00  0.00     0.233 C 
ENDROOT
BRANCH   1   2
HETATM    2  N   UNL     1     -43.214 -47.598  10.761  1.00  0.00    -0.329 N 
HETATM    3  C   UNL     1     -42.470 -46.735   9.986  1.00  0.00     0.144 A 
HETATM    4  N   UNL     1     -41.259 -46.331  10.131  1.00  0.00    -0.379 N 
HETATM    5  S   UNL     1     -43.459 -46.141   8.636  1.00  0.00    -0.065 SA
HETATM    6  H   UNL     1     -41.079 -45.695   9.341  1.00  0.00     0.158 HD
ATOM      7  HN  UNL     1     -40.609 -46.588  10.875  1.00  0.00     0.158 HD
HETATM    8  C   UNL     1     -44.833 -47.059   9.215  1.00  0.00     0.070 A 
HETATM    9  C   UNL     1     -44.522 -47.752  10.319  1.00  0.00     0.101 A 
ENDBRANCH   1   2
BRANCH   1  10
HETATM   10  C   UNL     1     -41.926 -49.445  11.780  1.00  0.00     0.236 C 
HETATM   11  O   UNL     1     -40.895 -49.487  11.112  1.00  0.00    -0.272 OA
HETATM   12  N   UNL     1     -42.520 -50.557  12.346  1.00  0.00    -0.355 N 
HETATM   13  H   UNL     1     -43.051 -50.357  13.197  1.00  0.00     0.162 HD
BRANCH  12  14
HETATM   14  C   UNL     1     -41.929 -51.875  12.241  1.00  0.00     0.084 C 
HETATM   15  C   UNL     1     -42.957 -52.987  12.465  1.00  0.00     0.025 C 
HETATM   16  C   UNL     1     -42.248 -54.073  13.273  1.00  0.00     0.002 C 
HETATM   17  C   UNL     1     -40.795 -53.632  13.388  1.00  0.00     0.002 C 
HETATM   18  C   UNL     1     -40.859 -52.117  13.301  1.00  0.00     0.025 C 
ENDBRANCH  12  14
ENDBRANCH   1  10
TORSDOF 3
ENDMDL
MODEL 9
REMARK VINA RESULT:      -4.5      3.833      6.142
REMARK  3 active torsions:
REMARK  status: ('A' for Active; 'I' for Inactive)
REMARK    1  A    between atoms: N_7  and  C_8 
REMARK    2  A    between atoms: C_8  and  C_9 
REMARK       I    between atoms: C_9  and  N_11 
REMARK    3  A    between atoms: N_11  and  C_12 
ROOT
HETATM    1  C   UNL     1     -40.270 -50.069  11.247  1.00  0.00     0.233 C 
ENDROOT
BRANCH   1   2
HETATM    2  N   UNL     1     -41.338 -50.718  11.993  1.00  0.00    -0.329 N 
HETATM    3  C   UNL     1     -41.524 -52.083  11.953  1.00  0.00     0.144 A 
HETATM    4  N   UNL     1     -40.825 -52.995  11.378  1.00  0.00    -0.379 N 
HETATM    5  S   UNL     1     -43.001 -52.510  12.840  1.00  0.00    -0.065 SA
HETATM    6  H   UNL     1     -41.299 -53.885  11.588  1.00  0.00     0.158 HD
ATOM      7  HN  UNL     1     -39.976 -52.865  10.828  1.00  0.00     0.158 HD
HETATM    8  C   UNL     1     -43.306 -50.820  13.182  1.00  0.00     0.070 A 
HETATM    9  C   UNL     1     -42.343 -50.042  12.671  1.00  0.00     0.101 A 
ENDBRANCH   1   2
BRANCH   1  10
HETATM   10  C   UNL     1     -39.900 -48.713  11.847  1.00  0.00     0.236 C 
HETATM   11  O   UNL     1     -39.328 -48.608  12.931  1.00  0.00    -0.272 OA
HETATM   12  N   UNL     1     -40.312 -47.634  11.089  1.00  0.00    -0.355 N 
HETATM   13  H   UNL     1     -40.340 -47.818  10.083  1.00  0.00     0.162 HD
BRANCH  12  14
HETATM   14  C   UNL     1     -40.045 -46.269  11.496  1.00  0.00     0.084 C 
HETATM   15  C   UNL     1     -41.241 -45.637  12.214  1.00  0.00     0.025 C 
HETATM   16  C   UNL     1     -41.313 -44.188  11.737  1.00  0.00     0.002 C 
HETATM   17  C   UNL     1     -40.087 -43.971  10.859  1.00  0.00     0.002 C 
HETATM   18  C   UNL     1     -39.778 -45.352  10.307  1.00  0.00     0.025 C 
ENDBRANCH  12  14
ENDBRANCH   1  10
TORSDOF 3
ENDMDL
