MODEL 1
REMARK VINA RESULT:      -6.9      0.000      0.000
REMARK  6 active torsions:
REMARK  status: ('A' for Active; 'I' for Inactive)
REMARK       I    between atoms: N_1  and  C_2 
REMARK    1  A    between atoms: C_2  and  C_4 
REMARK    2  A    between atoms: C_4  and  C_5 
REMARK    3  A    between atoms: N_14  and  C_15 
REMARK    4  A    between atoms: C_15  and  C_16 
REMARK    5  A    between atoms: C_16  and  O_17 
REMARK    6  A    between atoms: C_16  and  C_18 
ROOT
HETATM    1  C   UNL     1     -39.298 -48.926  12.117  1.00  0.00     0.093 A 
HETATM    2  N   UNL     1     -39.464 -47.850  11.369  1.00  0.00    -0.344 N 
ATOM      3  HN  UNL     1     -38.735 -47.249  10.987  1.00  0.00     0.167 HD
HETATM    4  C   UNL     1     -40.817 -47.706  11.213  1.00  0.00     0.060 A 
HETATM    5  C   UNL     1     -41.530 -46.715  10.521  1.00  0.00     0.032 A 
HETATM    6  C   UNL     1     -42.929 -46.772  10.509  1.00  0.00     0.002 A 
HETATM    7  C   UNL     1     -43.604 -47.798  11.171  1.00  0.00     0.002 A 
HETATM    8  C   UNL     1     -42.907 -48.799  11.860  1.00  0.00     0.032 A 
HETATM    9  C   UNL     1     -41.507 -48.727  11.861  1.00  0.00     0.062 A 
HETATM   10  N   UNL     1     -40.513 -49.510  12.411  1.00  0.00    -0.332 N 
ENDROOT
BRANCH  10  11
HETATM   11  C   UNL     1     -40.722 -50.780  13.095  1.00  0.00     0.167 C 
BRANCH  11  12
HETATM   12  C   UNL     1     -41.215 -51.904  12.167  1.00  0.00     0.169 C 
BRANCH  12  13
HETATM   13  O   UNL     1     -40.107 -52.682  11.710  1.00  0.00    -0.389 OA
HETATM   14  H   UNL     1     -39.309 -52.131  11.772  1.00  0.00     0.210 HD
ENDBRANCH  12  13
BRANCH  12  15
HETATM   15  C   UNL     1     -42.223 -52.852  12.796  1.00  0.00    -0.028 A 
HETATM   16  C   UNL     1     -41.800 -53.693  13.842  1.00  0.00     0.010 A 
HETATM   17  C   UNL     1     -42.686 -54.578  14.461  1.00  0.00     0.001 A 
HETATM   18  C   UNL     1     -44.010 -54.636  14.046  1.00  0.00     0.000 A 
HETATM   19  C   UNL     1     -44.455 -53.802  13.024  1.00  0.00     0.001 A 
HETATM   20  C   UNL     1     -43.571 -52.911  12.405  1.00  0.00     0.010 A 
ENDBRANCH  12  15
ENDBRANCH  11  12
ENDBRANCH  10  11
BRANCH   1  21
HETATM   21  C   UNL     1     -37.973 -49.429  12.580  1.00  0.00     0.179 C 
BRANCH  21  22
HETATM   22  C   UNL     1     -37.457 -50.462  11.606  1.00  0.00     0.222 C 
HETATM   23  N   UNL     1     -37.257 -50.027  10.328  1.00  0.00    -0.370 N 
HETATM   24  H   UNL     1     -37.008 -50.722   9.637  1.00  0.00     0.159 HD
HETATM   25  H   UNL     1     -37.739 -49.193  10.004  1.00  0.00     0.159 HD
HETATM   26  O   UNL     1     -37.207 -51.619  11.931  1.00  0.00    -0.273 OA
ENDBRANCH  21  22
ENDBRANCH   1  21
TORSDOF 6
ENDMDL
MODEL 2
REMARK VINA RESULT:      -6.6      3.054      5.493
REMARK  6 active torsions:
REMARK  status: ('A' for Active; 'I' for Inactive)
REMARK       I    between atoms: N_1  and  C_2 
REMARK    1  A    between atoms: C_2  and  C_4 
REMARK    2  A    between atoms: C_4  and  C_5 
REMARK    3  A    between atoms: N_14  and  C_15 
REMARK    4  A    between atoms: C_15  and  C_16 
REMARK    5  A    between atoms: C_16  and  O_17 
REMARK    6  A    between atoms: C_16  and  C_18 
ROOT
HETATM    1  C   UNL     1     -41.474 -52.109  12.619  1.00  0.00     0.093 A 
HETATM    2  N   UNL     1     -42.628 -52.199  11.984  1.00  0.00    -0.344 N 
ATOM      3  HN  UNL     1     -42.901 -51.709  11.133  1.00  0.00     0.167 HD
HETATM    4  C   UNL     1     -43.385 -53.087  12.703  1.00  0.00     0.060 A 
HETATM    5  C   UNL     1     -44.698 -53.525  12.471  1.00  0.00     0.032 A 
HETATM    6  C   UNL     1     -45.271 -54.441  13.361  1.00  0.00     0.002 A 
HETATM    7  C   UNL     1     -44.550 -54.912  14.459  1.00  0.00     0.002 A 
HETATM    8  C   UNL     1     -43.236 -54.490  14.700  1.00  0.00     0.032 A 
HETATM    9  C   UNL     1     -42.677 -53.574  13.798  1.00  0.00     0.062 A 
HETATM   10  N   UNL     1     -41.448 -52.953  13.710  1.00  0.00    -0.332 N 
ENDROOT
BRANCH  10  11
HETATM   11  C   UNL     1     -40.302 -53.227  14.568  1.00  0.00     0.167 C 
BRANCH  11  12
HETATM   12  C   UNL     1     -39.685 -54.618  14.342  1.00  0.00     0.169 C 
BRANCH  12  13
HETATM   13  O   UNL     1     -38.477 -54.501  13.587  1.00  0.00    -0.389 OA
HETATM   14  H   UNL     1     -37.962 -55.314  13.721  1.00  0.00     0.210 HD
ENDBRANCH  12  13
BRANCH  12  15
HETATM   15  C   UNL     1     -39.365 -55.387  15.614  1.00  0.00    -0.028 A 
HETATM   16  C   UNL     1     -38.026 -55.470  16.038  1.00  0.00     0.010 A 
HETATM   17  C   UNL     1     -37.678 -56.157  17.203  1.00  0.00     0.001 A 
HETATM   18  C   UNL     1     -38.662 -56.770  17.967  1.00  0.00     0.000 A 
HETATM   19  C   UNL     1     -39.997 -56.686  17.577  1.00  0.00     0.001 A 
HETATM   20  C   UNL     1     -40.349 -55.995  16.412  1.00  0.00     0.010 A 
ENDBRANCH  12  15
ENDBRANCH  11  12
ENDBRANCH  10  11
BRANCH   1  21
HETATM   21  C   UNL     1     -40.360 -51.207  12.209  1.00  0.00     0.179 C 
BRANCH  21  22
HETATM   22  C   UNL     1     -40.920 -50.024  11.454  1.00  0.00     0.222 C 
HETATM   23  N   UNL     1     -40.393 -49.807  10.214  1.00  0.00    -0.370 N 
HETATM   24  H   UNL     1     -40.679 -48.965   9.732  1.00  0.00     0.159 HD
HETATM   25  H   UNL     1     -39.482 -50.195   9.984  1.00  0.00     0.159 HD
HETATM   26  O   UNL     1     -41.806 -49.305  11.905  1.00  0.00    -0.273 OA
ENDBRANCH  21  22
ENDBRANCH   1  21
TORSDOF 6
ENDMDL
MODEL 3
REMARK VINA RESULT:      -6.6      3.664      6.396
REMARK  6 active torsions:
REMARK  status: ('A' for Active; 'I' for Inactive)
REMARK       I    between atoms: N_1  and  C_2 
REMARK    1  A    between atoms: C_2  and  C_4 
REMARK    2  A    between atoms: C_4  and  C_5 
REMARK    3  A    between atoms: N_14  and  C_15 
REMARK    4  A    between atoms: C_15  and  C_16 
REMARK    5  A    between atoms: C_16  and  O_17 
REMARK    6  A    between atoms: C_16  and  C_18 
ROOT
HETATM    1  C   UNL     1     -42.534 -53.902  13.911  1.00  0.00     0.093 A 
HETATM    2  N   UNL     1     -41.830 -54.583  14.797  1.00  0.00    -0.344 N 
ATOM      3  HN  UNL     1     -42.019 -55.526  15.138  1.00  0.00     0.167 HD
HETATM    4  C   UNL     1     -40.795 -53.765  15.166  1.00  0.00     0.060 A 
HETATM    5  C   UNL     1     -39.767 -53.998  16.092  1.00  0.00     0.032 A 
HETATM    6  C   UNL     1     -38.816 -52.995  16.311  1.00  0.00     0.002 A 
HETATM    7  C   UNL     1     -38.886 -51.785  15.619  1.00  0.00     0.002 A 
HETATM    8  C   UNL     1     -39.902 -51.540  14.686  1.00  0.00     0.032 A 
HETATM    9  C   UNL     1     -40.845 -52.556  14.478  1.00  0.00     0.062 A 
HETATM   10  N   UNL     1     -41.951 -52.676  13.663  1.00  0.00    -0.332 N 
ENDROOT
BRANCH  10  11
HETATM   11  C   UNL     1     -42.361 -51.710  12.651  1.00  0.00     0.167 C 
BRANCH  11  12
HETATM   12  C   UNL     1     -43.145 -50.516  13.223  1.00  0.00     0.169 C 
BRANCH  12  13
HETATM   13  O   UNL     1     -43.385 -49.551  12.196  1.00  0.00    -0.389 OA
HETATM   14  H   UNL     1     -43.630 -50.032  11.388  1.00  0.00     0.210 HD
ENDBRANCH  12  13
BRANCH  12  15
HETATM   15  C   UNL     1     -44.483 -50.873  13.849  1.00  0.00    -0.028 A 
HETATM   16  C   UNL     1     -44.618 -50.804  15.248  1.00  0.00     0.010 A 
HETATM   17  C   UNL     1     -45.827 -51.114  15.874  1.00  0.00     0.001 A 
HETATM   18  C   UNL     1     -46.924 -51.495  15.113  1.00  0.00     0.000 A 
HETATM   19  C   UNL     1     -46.820 -51.555  13.725  1.00  0.00     0.001 A 
HETATM   20  C   UNL     1     -45.610 -51.240  13.095  1.00  0.00     0.010 A 
ENDBRANCH  12  15
ENDBRANCH  11  12
ENDBRANCH  10  11
BRANCH   1  21
HETATM   21  C   UNL     1     -43.789 -54.397  13.277  1.00  0.00     0.179 C 
BRANCH  21  22
HETATM   22  C   UNL     1     -44.813 -54.692  14.348  1.00  0.00     0.222 C 
HETATM   23  N   UNL     1     -46.028 -55.130  13.905  1.00  0.00    -0.370 N 
HETATM   24  H   UNL     1     -46.759 -55.239  14.595  1.00  0.00     0.159 HD
HETATM   25  H   UNL     1     -46.308 -54.938  12.947  1.00  0.00     0.159 HD
HETATM   26  O   UNL     1     -44.579 -54.571  15.547  1.00  0.00    -0.273 OA
ENDBRANCH  21  22
ENDBRANCH   1  21
TORSDOF 6
ENDMDL
MODEL 4
REMARK VINA RESULT:      -6.5      4.442      7.885
REMARK  6 active torsions:
REMARK  status: ('A' for Active; 'I' for Inactive)
REMARK       I    between atoms: N_1  and  C_2 
REMARK    1  A    between atoms: C_2  and  C_4 
REMARK    2  A    between atoms: C_4  and  C_5 
REMARK    3  A    between atoms: N_14  and  C_15 
REMARK    4  A    between atoms: C_15  and  C_16 
REMARK    5  A    between atoms: C_16  and  O_17 
REMARK    6  A    between atoms: C_16  and  C_18 
ROOT
HETATM    1  C   UNL     1     -42.294 -47.832  10.596  1.00  0.00     0.093 A 
HETATM    2  N   UNL     1     -41.464 -48.843  10.421  1.00  0.00    -0.344 N 
ATOM      3  HN  UNL     1     -41.552 -49.600   9.744  1.00  0.00     0.167 HD
HETATM    4  C   UNL     1     -40.459 -48.668  11.335  1.00  0.00     0.060 A 
HETATM    5  C   UNL     1     -39.333 -49.470  11.581  1.00  0.00     0.032 A 
HETATM    6  C   UNL     1     -38.439 -49.088  12.587  1.00  0.00     0.002 A 
HETATM    7  C   UNL     1     -38.659 -47.929  13.332  1.00  0.00     0.002 A 
HETATM    8  C   UNL     1     -39.774 -47.114  13.094  1.00  0.00     0.032 A 
HETATM    9  C   UNL     1     -40.659 -47.511  12.081  1.00  0.00     0.062 A 
HETATM   10  N   UNL     1     -41.826 -46.978  11.574  1.00  0.00    -0.332 N 
ENDROOT
BRANCH  10  11
HETATM   11  C   UNL     1     -42.397 -45.691  11.948  1.00  0.00     0.167 C 
BRANCH  11  12
HETATM   12  C   UNL     1     -42.066 -44.561  10.957  1.00  0.00     0.169 C 
BRANCH  12  13
HETATM   13  O   UNL     1     -43.261 -44.102  10.322  1.00  0.00    -0.389 OA
HETATM   14  H   UNL     1     -44.016 -44.525  10.764  1.00  0.00     0.210 HD
ENDBRANCH  12  13
BRANCH  12  15
HETATM   15  C   UNL     1     -41.374 -43.356  11.573  1.00  0.00    -0.028 A 
HETATM   16  C   UNL     1     -40.321 -43.570  12.482  1.00  0.00     0.010 A 
HETATM   17  C   UNL     1     -39.646 -42.499  13.072  1.00  0.00     0.001 A 
HETATM   18  C   UNL     1     -40.009 -41.195  12.761  1.00  0.00     0.000 A 
HETATM   19  C   UNL     1     -41.036 -40.958  11.851  1.00  0.00     0.001 A 
HETATM   20  C   UNL     1     -41.712 -42.030  11.255  1.00  0.00     0.010 A 
ENDBRANCH  12  15
ENDBRANCH  11  12
ENDBRANCH  10  11
BRANCH   1  21
HETATM   21  C   UNL     1     -43.566 -47.650   9.840  1.00  0.00     0.179 C 
BRANCH  21  22
HETATM   22  C   UNL     1     -43.256 -47.177   8.438  1.00  0.00     0.222 C 
HETATM   23  N   UNL     1     -43.103 -48.158   7.501  1.00  0.00    -0.370 N 
HETATM   24  H   UNL     1     -42.797 -47.872   6.580  1.00  0.00     0.159 HD
HETATM   25  H   UNL     1     -42.878 -49.103   7.800  1.00  0.00     0.159 HD
HETATM   26  O   UNL     1     -43.165 -45.991   8.139  1.00  0.00    -0.273 OA
ENDBRANCH  21  22
ENDBRANCH   1  21
TORSDOF 6
ENDMDL
MODEL 5
REMARK VINA RESULT:      -6.5      1.455      5.491
REMARK  6 active torsions:
REMARK  status: ('A' for Active; 'I' for Inactive)
REMARK       I    between atoms: N_1  and  C_2 
REMARK    1  A    between atoms: C_2  and  C_4 
REMARK    2  A    between atoms: C_4  and  C_5 
REMARK    3  A    between atoms: N_14  and  C_15 
REMARK    4  A    between atoms: C_15  and  C_16 
REMARK    5  A    between atoms: C_16  and  O_17 
REMARK    6  A    between atoms: C_16  and  C_18 
ROOT
HETATM    1  C   UNL     1     -39.388 -51.216  13.130  1.00  0.00     0.093 A 
HETATM    2  N   UNL     1     -39.425 -52.497  13.449  1.00  0.00    -0.344 N 
ATOM      3  HN  UNL     1     -38.635 -53.090  13.701  1.00  0.00     0.167 HD
HETATM    4  C   UNL     1     -40.742 -52.866  13.372  1.00  0.00     0.060 A 
HETATM    5  C   UNL     1     -41.326 -54.123  13.595  1.00  0.00     0.032 A 
HETATM    6  C   UNL     1     -42.710 -54.261  13.444  1.00  0.00     0.002 A 
HETATM    7  C   UNL     1     -43.498 -53.169  13.079  1.00  0.00     0.002 A 
HETATM    8  C   UNL     1     -42.931 -51.906  12.859  1.00  0.00     0.032 A 
HETATM    9  C   UNL     1     -41.543 -51.786  13.016  1.00  0.00     0.062 A 
HETATM   10  N   UNL     1     -40.659 -50.734  12.892  1.00  0.00    -0.332 N 
ENDROOT
BRANCH  10  11
HETATM   11  C   UNL     1     -41.029 -49.346  12.649  1.00  0.00     0.167 C 
BRANCH  11  12
HETATM   12  C   UNL     1     -40.604 -48.830  11.263  1.00  0.00     0.169 C 
BRANCH  12  13
HETATM   13  O   UNL     1     -40.594 -49.907  10.322  1.00  0.00    -0.389 OA
HETATM   14  H   UNL     1     -40.200 -50.680  10.759  1.00  0.00     0.210 HD
ENDBRANCH  12  13
BRANCH  12  15
HETATM   15  C   UNL     1     -41.484 -47.727  10.697  1.00  0.00    -0.028 A 
HETATM   16  C   UNL     1     -41.163 -46.388  10.988  1.00  0.00     0.010 A 
HETATM   17  C   UNL     1     -41.933 -45.335  10.489  1.00  0.00     0.001 A 
HETATM   18  C   UNL     1     -43.034 -45.602   9.686  1.00  0.00     0.000 A 
HETATM   19  C   UNL     1     -43.361 -46.918   9.370  1.00  0.00     0.001 A 
HETATM   20  C   UNL     1     -42.589 -47.975   9.866  1.00  0.00     0.010 A 
ENDBRANCH  12  15
ENDBRANCH  11  12
ENDBRANCH  10  11
BRANCH   1  21
HETATM   21  C   UNL     1     -38.137 -50.411  13.037  1.00  0.00     0.179 C 
BRANCH  21  22
HETATM   22  C   UNL     1     -37.321 -50.881  11.855  1.00  0.00     0.222 C 
HETATM   23  N   UNL     1     -37.381 -50.096  10.740  1.00  0.00    -0.370 N 
HETATM   24  H   UNL     1     -36.925 -50.442   9.907  1.00  0.00     0.159 HD
HETATM   25  H   UNL     1     -38.167 -49.462  10.619  1.00  0.00     0.159 HD
HETATM   26  O   UNL     1     -36.625 -51.892  11.885  1.00  0.00    -0.273 OA
ENDBRANCH  21  22
ENDBRANCH   1  21
TORSDOF 6
ENDMDL
MODEL 6
REMARK VINA RESULT:      -6.5      2.464      4.758
REMARK  6 active torsions:
REMARK  status: ('A' for Active; 'I' for Inactive)
REMARK       I    between atoms: N_1  and  C_2 
REMARK    1  A    between atoms: C_2  and  C_4 
REMARK    2  A    between atoms: C_4  and  C_5 
REMARK    3  A    between atoms: N_14  and  C_15 
REMARK    4  A    between atoms: C_15  and  C_16 
REMARK    5  A    between atoms: C_16  and  O_17 
REMARK    6  A    between atoms: C_16  and  C_18 
ROOT
HETATM    1  C   UNL     1     -39.646 -51.383  13.313  1.00  0.00     0.093 A 
HETATM    2  N   UNL     1     -39.014 -52.047  14.263  1.00  0.00    -0.344 N 
ATOM      3  HN  UNL     1     -38.075 -51.868  14.617  1.00  0.00     0.167 HD
HETATM    4  C   UNL     1     -39.879 -53.025  14.677  1.00  0.00     0.060 A 
HETATM    5  C   UNL     1     -39.695 -54.017  15.653  1.00  0.00     0.032 A 
HETATM    6  C   UNL     1     -40.732 -54.924  15.898  1.00  0.00     0.002 A 
HETATM    7  C   UNL     1     -41.929 -54.845  15.185  1.00  0.00     0.002 A 
HETATM    8  C   UNL     1     -42.131 -53.856  14.213  1.00  0.00     0.032 A 
HETATM    9  C   UNL     1     -41.082 -52.955  13.982  1.00  0.00     0.062 A 
HETATM   10  N   UNL     1     -40.920 -51.880  13.132  1.00  0.00    -0.332 N 
ENDROOT
BRANCH  10  11
HETATM   11  C   UNL     1     -41.956 -51.321  12.273  1.00  0.00     0.167 C 
BRANCH  11  12
HETATM   12  C   UNL     1     -42.760 -50.190  12.936  1.00  0.00     0.169 C 
BRANCH  12  13
HETATM   13  O   UNL     1     -43.147 -49.224  11.956  1.00  0.00    -0.389 OA
HETATM   14  H   UNL     1     -43.959 -49.543  11.527  1.00  0.00     0.210 HD
ENDBRANCH  12  13
BRANCH  12  15
HETATM   15  C   UNL     1     -44.016 -50.642  13.664  1.00  0.00    -0.028 A 
HETATM   16  C   UNL     1     -44.068 -50.523  15.065  1.00  0.00     0.010 A 
HETATM   17  C   UNL     1     -45.199 -50.917  15.782  1.00  0.00     0.001 A 
HETATM   18  C   UNL     1     -46.301 -51.433  15.112  1.00  0.00     0.000 A 
HETATM   19  C   UNL     1     -46.279 -51.544  13.724  1.00  0.00     0.001 A 
HETATM   20  C   UNL     1     -45.148 -51.146  13.002  1.00  0.00     0.010 A 
ENDBRANCH  12  15
ENDBRANCH  11  12
ENDBRANCH  10  11
BRANCH   1  21
HETATM   21  C   UNL     1     -39.052 -50.254  12.541  1.00  0.00     0.179 C 
BRANCH  21  22
HETATM   22  C   UNL     1     -37.781 -50.717  11.867  1.00  0.00     0.222 C 
HETATM   23  N   UNL     1     -37.488 -50.120  10.675  1.00  0.00    -0.370 N 
HETATM   24  H   UNL     1     -36.698 -50.483  10.159  1.00  0.00     0.159 HD
HETATM   25  H   UNL     1     -38.231 -49.672  10.146  1.00  0.00     0.159 HD
HETATM   26  O   UNL     1     -37.036 -51.560  12.357  1.00  0.00    -0.273 OA
ENDBRANCH  21  22
ENDBRANCH   1  21
TORSDOF 6
ENDMDL
MODEL 7
REMARK VINA RESULT:      -6.5      2.719      4.381
REMARK  6 active torsions:
REMARK  status: ('A' for Active; 'I' for Inactive)
REMARK       I    between atoms: N_1  and  C_2 
REMARK    1  A    between atoms: C_2  and  C_4 
REMARK    2  A    between atoms: C_4  and  C_5 
REMARK    3  A    between atoms: N_14  and  C_15 
REMARK    4  A    between atoms: C_15  and  C_16 
REMARK    5  A    between atoms: C_16  and  O_17 
REMARK    6  A    between atoms: C_16  and  C_18 
ROOT
HETATM    1  C   UNL     1     -41.318 -49.005  11.621  1.00  0.00     0.093 A 
HETATM    2  N   UNL     1     -40.167 -48.846  10.995  1.00  0.00    -0.344 N 
ATOM      3  HN  UNL     1     -39.985 -48.257  10.183  1.00  0.00     0.167 HD
HETATM    4  C   UNL     1     -39.266 -49.635  11.659  1.00  0.00     0.060 A 
HETATM    5  C   UNL     1     -37.904 -49.845  11.392  1.00  0.00     0.032 A 
HETATM    6  C   UNL     1     -37.180 -50.716  12.214  1.00  0.00     0.002 A 
HETATM    7  C   UNL     1     -37.800 -51.364  13.283  1.00  0.00     0.002 A 
HETATM    8  C   UNL     1     -39.157 -51.159  13.567  1.00  0.00     0.032 A 
HETATM    9  C   UNL     1     -39.866 -50.283  12.734  1.00  0.00     0.062 A 
HETATM   10  N   UNL     1     -41.174 -49.845  12.706  1.00  0.00    -0.332 N 
ENDROOT
BRANCH  10  11
HETATM   11  C   UNL     1     -42.186 -50.147  13.710  1.00  0.00     0.167 C 
BRANCH  11  12
HETATM   12  C   UNL     1     -43.030 -51.390  13.377  1.00  0.00     0.169 C 
BRANCH  12  13
HETATM   13  O   UNL     1     -42.370 -52.569  13.844  1.00  0.00    -0.389 OA
HETATM   14  H   UNL     1     -42.020 -52.383  14.731  1.00  0.00     0.210 HD
ENDBRANCH  12  13
BRANCH  12  15
HETATM   15  C   UNL     1     -44.434 -51.380  13.959  1.00  0.00    -0.028 A 
HETATM   16  C   UNL     1     -44.594 -51.153  15.339  1.00  0.00     0.010 A 
HETATM   17  C   UNL     1     -45.862 -51.126  15.925  1.00  0.00     0.001 A 
HETATM   18  C   UNL     1     -46.992 -51.323  15.142  1.00  0.00     0.000 A 
HETATM   19  C   UNL     1     -46.859 -51.533  13.771  1.00  0.00     0.001 A 
HETATM   20  C   UNL     1     -45.590 -51.556  13.181  1.00  0.00     0.010 A 
ENDBRANCH  12  15
ENDBRANCH  11  12
ENDBRANCH  10  11
BRANCH   1  21
HETATM   21  C   UNL     1     -42.597 -48.364  11.201  1.00  0.00     0.179 C 
BRANCH  21  22
HETATM   22  C   UNL     1     -42.341 -47.451  10.023  1.00  0.00     0.222 C 
HETATM   23  N   UNL     1     -42.788 -47.901   8.814  1.00  0.00    -0.370 N 
HETATM   24  H   UNL     1     -42.541 -47.357   7.999  1.00  0.00     0.159 HD
HETATM   25  H   UNL     1     -42.957 -48.895   8.684  1.00  0.00     0.159 HD
HETATM   26  O   UNL     1     -41.787 -46.362  10.132  1.00  0.00    -0.273 OA
ENDBRANCH  21  22
ENDBRANCH   1  21
TORSDOF 6
ENDMDL
MODEL 8
REMARK VINA RESULT:      -6.4      2.341      5.180
REMARK  6 active torsions:
REMARK  status: ('A' for Active; 'I' for Inactive)
REMARK       I    between atoms: N_1  and  C_2 
REMARK    1  A    between atoms: C_2  and  C_4 
REMARK    2  A    between atoms: C_4  and  C_5 
REMARK    3  A    between atoms: N_14  and  C_15 
REMARK    4  A    between atoms: C_15  and  C_16 
REMARK    5  A    between atoms: C_16  and  O_17 
REMARK    6  A    between atoms: C_16  and  C_18 
ROOT
HETATM    1  C   UNL     1     -42.377 -50.655  12.715  1.00  0.00     0.093 A 
HETATM    2  N   UNL     1     -43.639 -50.338  12.942  1.00  0.00    -0.344 N 
ATOM      3  HN  UNL     1     -44.041 -49.402  12.976  1.00  0.00     0.167 HD
HETATM    4  C   UNL     1     -44.298 -51.525  13.124  1.00  0.00     0.060 A 
HETATM    5  C   UNL     1     -45.652 -51.754  13.412  1.00  0.00     0.032 A 
HETATM    6  C   UNL     1     -46.097 -53.072  13.566  1.00  0.00     0.002 A 
HETATM    7  C   UNL     1     -45.211 -54.141  13.433  1.00  0.00     0.002 A 
HETATM    8  C   UNL     1     -43.858 -53.931  13.137  1.00  0.00     0.032 A 
HETATM    9  C   UNL     1     -43.430 -52.604  12.986  1.00  0.00     0.062 A 
HETATM   10  N   UNL     1     -42.211 -52.024  12.699  1.00  0.00    -0.332 N 
ENDROOT
BRANCH  10  11
HETATM   11  C   UNL     1     -40.996 -52.747  12.346  1.00  0.00     0.167 C 
BRANCH  11  12
HETATM   12  C   UNL     1     -40.193 -53.231  13.566  1.00  0.00     0.169 C 
BRANCH  12  13
HETATM   13  O   UNL     1     -39.398 -54.364  13.210  1.00  0.00    -0.389 OA
HETATM   14  H   UNL     1     -38.466 -54.134  13.361  1.00  0.00     0.210 HD
ENDBRANCH  12  13
BRANCH  12  15
HETATM   15  C   UNL     1     -39.271 -52.189  14.176  1.00  0.00    -0.028 A 
HETATM   16  C   UNL     1     -38.352 -51.525  13.342  1.00  0.00     0.010 A 
HETATM   17  C   UNL     1     -37.487 -50.553  13.850  1.00  0.00     0.001 A 
HETATM   18  C   UNL     1     -37.527 -50.224  15.198  1.00  0.00     0.000 A 
HETATM   19  C   UNL     1     -38.440 -50.855  16.040  1.00  0.00     0.001 A 
HETATM   20  C   UNL     1     -39.311 -51.827  15.533  1.00  0.00     0.010 A 
ENDBRANCH  12  15
ENDBRANCH  11  12
ENDBRANCH  10  11
BRANCH   1  21
HETATM   21  C   UNL     1     -41.287 -49.659  12.510  1.00  0.00     0.179 C 
BRANCH  21  22
HETATM   22  C   UNL     1     -41.275 -49.213  11.066  1.00  0.00     0.222 C 
HETATM   23  N   UNL     1     -40.346 -49.814  10.266  1.00  0.00    -0.370 N 
HETATM   24  H   UNL     1     -40.252 -49.461   9.323  1.00  0.00     0.159 HD
HETATM   25  H   UNL     1     -39.532 -50.252  10.689  1.00  0.00     0.159 HD
HETATM   26  O   UNL     1     -42.056 -48.379  10.620  1.00  0.00    -0.273 OA
ENDBRANCH  21  22
ENDBRANCH   1  21
TORSDOF 6
ENDMDL
MODEL 9
REMARK VINA RESULT:      -6.4      3.071      5.257
REMARK  6 active torsions:
REMARK  status: ('A' for Active; 'I' for Inactive)
REMARK       I    between atoms: N_1  and  C_2 
REMARK    1  A    between atoms: C_2  and  C_4 
REMARK    2  A    between atoms: C_4  and  C_5 
REMARK    3  A    between atoms: N_14  and  C_15 
REMARK    4  A    between atoms: C_15  and  C_16 
REMARK    5  A    between atoms: C_16  and  O_17 
REMARK    6  A    between atoms: C_16  and  C_18 
ROOT
HETATM    1  C   UNL     1     -41.968 -47.044  10.221  1.00  0.00     0.093 A 
HETATM    2  N   UNL     1     -41.468 -45.826  10.131  1.00  0.00    -0.344 N 
ATOM      3  HN  UNL     1     -41.651 -45.138   9.400  1.00  0.00     0.167 HD
HETATM    4  C   UNL     1     -40.651 -45.673  11.219  1.00  0.00     0.060 A 
HETATM    5  C   UNL     1     -39.864 -44.572  11.592  1.00  0.00     0.032 A 
HETATM    6  C   UNL     1     -39.095 -44.655  12.758  1.00  0.00     0.002 A 
HETATM    7  C   UNL     1     -39.109 -45.811  13.538  1.00  0.00     0.002 A 
HETATM    8  C   UNL     1     -39.894 -46.916  13.184  1.00  0.00     0.032 A 
HETATM    9  C   UNL     1     -40.660 -46.816  12.014  1.00  0.00     0.062 A 
HETATM   10  N   UNL     1     -41.530 -47.670  11.369  1.00  0.00    -0.332 N 
ENDROOT
BRANCH  10  11
HETATM   11  C   UNL     1     -41.972 -48.963  11.876  1.00  0.00     0.167 C 
BRANCH  11  12
HETATM   12  C   UNL     1     -41.029 -50.122  11.512  1.00  0.00     0.169 C 
BRANCH  12  13
HETATM   13  O   UNL     1     -40.490 -49.921  10.203  1.00  0.00    -0.389 OA
HETATM   14  H   UNL     1     -39.760 -49.284  10.276  1.00  0.00     0.210 HD
ENDBRANCH  12  13
BRANCH  12  15
HETATM   15  C   UNL     1     -39.865 -50.321  12.469  1.00  0.00    -0.028 A 
HETATM   16  C   UNL     1     -38.552 -50.227  11.970  1.00  0.00     0.010 A 
HETATM   17  C   UNL     1     -37.447 -50.394  12.807  1.00  0.00     0.001 A 
HETATM   18  C   UNL     1     -37.633 -50.652  14.158  1.00  0.00     0.000 A 
HETATM   19  C   UNL     1     -38.923 -50.732  14.679  1.00  0.00     0.001 A 
HETATM   20  C   UNL     1     -40.032 -50.561  13.843  1.00  0.00     0.010 A 
ENDBRANCH  12  15
ENDBRANCH  11  12
ENDBRANCH  10  11
BRANCH   1  21
HETATM   21  C   UNL     1     -42.878 -47.654   9.209  1.00  0.00     0.179 C 
BRANCH  21  22
HETATM   22  C   UNL     1     -43.916 -46.639   8.787  1.00  0.00     0.222 C 
HETATM   23  N   UNL     1     -45.199 -47.098   8.709  1.00  0.00    -0.370 N 
HETATM   24  H   UNL     1     -45.893 -46.466   8.333  1.00  0.00     0.159 HD
HETATM   25  H   UNL     1     -45.366 -48.096   8.608  1.00  0.00     0.159 HD
HETATM   26  O   UNL     1     -43.643 -45.468   8.546  1.00  0.00    -0.273 OA
ENDBRANCH  21  22
ENDBRANCH   1  21
TORSDOF 6
ENDMDL
