MODEL 1
REMARK VINA RESULT:      -6.0      0.000      0.000
REMARK  4 active torsions:
REMARK  status: ('A' for Active; 'I' for Inactive)
REMARK    1  A    between atoms: N_1  and  C_2 
REMARK    2  A    between atoms: C_5  and  S_6 
REMARK    3  A    between atoms: S_6  and  C_7 
REMARK    4  A    between atoms: C_7  and  C_8 
ROOT
HETATM    1  C   UNL     1     -41.207 -46.472  10.248  1.00  0.00     0.102 A 
HETATM    2  N   UNL     1     -40.446 -47.465  10.754  1.00  0.00    -0.326 N 
ATOM      3  HN  UNL     1     -39.436 -47.365  10.864  1.00  0.00     0.169 HD
HETATM    4  C   UNL     1     -41.086 -48.594  11.106  1.00  0.00     0.145 A 
HETATM    5  N   UNL     1     -42.413 -48.787  10.985  1.00  0.00    -0.345 N 
ATOM      6  HN  UNL     1     -42.850 -49.666  11.263  1.00  0.00     0.167 HD
HETATM    7  C   UNL     1     -43.134 -47.781  10.486  1.00  0.00     0.116 A 
HETATM    8  C   UNL     1     -42.584 -46.585  10.096  1.00  0.00     0.098 A 
HETATM    9  C   UNL     1     -43.409 -45.563   9.545  1.00  0.00     0.104 C 
HETATM   10  N   UNL     1     -44.106 -44.770   9.067  1.00  0.00    -0.191 NA
ENDROOT
BRANCH   1  11
HETATM   11  N   UNL     1     -40.540 -45.287   9.926  1.00  0.00    -0.287 NA
HETATM   12  H   UNL     1     -39.734 -45.177  10.539  1.00  0.00     0.125 HD
HETATM   13  H   UNL     1     -40.290 -45.196   8.947  1.00  0.00     0.125 HD
ENDBRANCH   1  11
BRANCH   4  14
HETATM   14  S   UNL     1     -40.213 -50.062  11.547  1.00  0.00    -0.091 SA
BRANCH  14  15
HETATM   15  C   UNL     1     -41.502 -51.204  12.143  1.00  0.00     0.114 C 
BRANCH  15  16
HETATM   16  C   UNL     1     -40.909 -52.628  12.341  1.00  0.00     0.131 C 
HETATM   17  C   UNL     1     -41.902 -53.616  12.976  1.00  0.00     0.033 C 
HETATM   18  C   UNL     1     -41.620 -53.911  14.436  1.00  0.00     0.004 C 
HETATM   19  C   UNL     1     -40.187 -54.373  14.539  1.00  0.00     0.026 C 
HETATM   20  C   UNL     1     -39.242 -53.282  14.071  1.00  0.00     0.168 C 
HETATM   21  O   UNL     1     -39.605 -52.534  12.919  1.00  0.00    -0.385 OA
ENDBRANCH  15  16
ENDBRANCH  14  15
ENDBRANCH   4  14
TORSDOF 4
ENDMDL
MODEL 2
REMARK VINA RESULT:      -5.9      5.276      7.336
REMARK  4 active torsions:
REMARK  status: ('A' for Active; 'I' for Inactive)
REMARK    1  A    between atoms: N_1  and  C_2 
REMARK    2  A    between atoms: C_5  and  S_6 
REMARK    3  A    between atoms: S_6  and  C_7 
REMARK    4  A    between atoms: C_7  and  C_8 
ROOT
HETATM    1  C   UNL     1     -41.987 -52.975  12.104  1.00  0.00     0.102 A 
HETATM    2  N   UNL     1     -43.281 -52.690  11.849  1.00  0.00    -0.326 N 
ATOM      3  HN  UNL     1     -43.558 -52.114  11.054  1.00  0.00     0.169 HD
HETATM    4  C   UNL     1     -44.188 -53.204  12.699  1.00  0.00     0.145 A 
HETATM    5  N   UNL     1     -43.887 -53.969  13.765  1.00  0.00    -0.345 N 
ATOM      6  HN  UNL     1     -44.614 -54.330  14.382  1.00  0.00     0.167 HD
HETATM    7  C   UNL     1     -42.598 -54.234  13.982  1.00  0.00     0.116 A 
HETATM    8  C   UNL     1     -41.589 -53.762  13.179  1.00  0.00     0.098 A 
HETATM    9  C   UNL     1     -40.230 -54.061  13.484  1.00  0.00     0.104 C 
HETATM   10  N   UNL     1     -39.135 -54.294  13.786  1.00  0.00    -0.191 NA
ENDROOT
BRANCH   1  11
HETATM   11  N   UNL     1     -41.054 -52.474  11.192  1.00  0.00    -0.287 NA
HETATM   12  H   UNL     1     -41.542 -52.132  10.366  1.00  0.00     0.125 HD
HETATM   13  H   UNL     1     -40.419 -51.782  11.576  1.00  0.00     0.125 HD
ENDBRANCH   1  11
BRANCH   4  14
HETATM   14  S   UNL     1     -45.886 -52.725  12.651  1.00  0.00    -0.091 SA
BRANCH  14  15
HETATM   15  C   UNL     1     -46.085 -51.592  14.064  1.00  0.00     0.114 C 
BRANCH  15  16
HETATM   16  C   UNL     1     -46.856 -52.300  15.215  1.00  0.00     0.131 C 
HETATM   17  C   UNL     1     -47.429 -51.320  16.253  1.00  0.00     0.033 C 
HETATM   18  C   UNL     1     -46.653 -51.287  17.555  1.00  0.00     0.004 C 
HETATM   19  C   UNL     1     -46.566 -52.703  18.070  1.00  0.00     0.026 C 
HETATM   20  C   UNL     1     -45.824 -53.584  17.083  1.00  0.00     0.168 C 
HETATM   21  O   UNL     1     -46.093 -53.409  15.699  1.00  0.00    -0.385 OA
ENDBRANCH  15  16
ENDBRANCH  14  15
ENDBRANCH   4  14
TORSDOF 4
ENDMDL
MODEL 3
REMARK VINA RESULT:      -5.8      4.555      6.556
REMARK  4 active torsions:
REMARK  status: ('A' for Active; 'I' for Inactive)
REMARK    1  A    between atoms: N_1  and  C_2 
REMARK    2  A    between atoms: C_5  and  S_6 
REMARK    3  A    between atoms: S_6  and  C_7 
REMARK    4  A    between atoms: C_7  and  C_8 
ROOT
HETATM    1  C   UNL     1     -41.147 -51.809  11.972  1.00  0.00     0.102 A 
HETATM    2  N   UNL     1     -42.359 -52.375  11.793  1.00  0.00    -0.326 N 
ATOM      3  HN  UNL     1     -42.927 -52.178  10.968  1.00  0.00     0.169 HD
HETATM    4  C   UNL     1     -42.781 -53.212  12.757  1.00  0.00     0.145 A 
HETATM    5  N   UNL     1     -42.080 -53.511  13.867  1.00  0.00    -0.345 N 
ATOM      6  HN  UNL     1     -42.449 -54.150  14.572  1.00  0.00     0.167 HD
HETATM    7  C   UNL     1     -40.884 -52.938  14.007  1.00  0.00     0.116 A 
HETATM    8  C   UNL     1     -40.355 -52.069  13.085  1.00  0.00     0.098 A 
HETATM    9  C   UNL     1     -39.083 -51.470  13.311  1.00  0.00     0.104 C 
HETATM   10  N   UNL     1     -38.062 -50.974  13.548  1.00  0.00    -0.191 NA
ENDROOT
BRANCH   1  11
HETATM   11  N   UNL     1     -40.697 -50.976  10.945  1.00  0.00    -0.287 NA
HETATM   12  H   UNL     1     -41.496 -50.514  10.512  1.00  0.00     0.125 HD
HETATM   13  H   UNL     1     -39.978 -50.315  11.222  1.00  0.00     0.125 HD
ENDBRANCH   1  11
BRANCH   4  14
HETATM   14  S   UNL     1     -44.432 -53.833  12.795  1.00  0.00    -0.091 SA
BRANCH  14  15
HETATM   15  C   UNL     1     -44.682 -54.371  14.518  1.00  0.00     0.114 C 
BRANCH  15  16
HETATM   16  C   UNL     1     -46.071 -53.896  15.032  1.00  0.00     0.131 C 
HETATM   17  C   UNL     1     -46.730 -52.849  14.117  1.00  0.00     0.033 C 
HETATM   18  C   UNL     1     -46.675 -51.437  14.666  1.00  0.00     0.004 C 
HETATM   19  C   UNL     1     -47.272 -51.463  16.053  1.00  0.00     0.026 C 
HETATM   20  C   UNL     1     -46.465 -52.372  16.961  1.00  0.00     0.168 C 
HETATM   21  O   UNL     1     -45.997 -53.603  16.429  1.00  0.00    -0.385 OA
ENDBRANCH  15  16
ENDBRANCH  14  15
ENDBRANCH   4  14
TORSDOF 4
ENDMDL
MODEL 4
REMARK VINA RESULT:      -5.8      4.391      6.182
REMARK  4 active torsions:
REMARK  status: ('A' for Active; 'I' for Inactive)
REMARK    1  A    between atoms: N_1  and  C_2 
REMARK    2  A    between atoms: C_5  and  S_6 
REMARK    3  A    between atoms: S_6  and  C_7 
REMARK    4  A    between atoms: C_7  and  C_8 
ROOT
HETATM    1  C   UNL     1     -41.566 -52.528  11.959  1.00  0.00     0.102 A 
HETATM    2  N   UNL     1     -42.759 -53.126  12.163  1.00  0.00    -0.326 N 
ATOM      3  HN  UNL     1     -42.897 -54.121  11.986  1.00  0.00     0.169 HD
HETATM    4  C   UNL     1     -43.755 -52.343  12.611  1.00  0.00     0.145 A 
HETATM    5  N   UNL     1     -43.636 -51.025  12.862  1.00  0.00    -0.345 N 
ATOM      6  HN  UNL     1     -44.427 -50.474  13.196  1.00  0.00     0.167 HD
HETATM    7  C   UNL     1     -42.441 -50.470  12.654  1.00  0.00     0.116 A 
HETATM    8  C   UNL     1     -41.354 -51.175  12.199  1.00  0.00     0.098 A 
HETATM    9  C   UNL     1     -40.114 -50.513  11.972  1.00  0.00     0.104 C 
HETATM   10  N   UNL     1     -39.132 -49.933  11.764  1.00  0.00    -0.191 NA
ENDROOT
BRANCH   1  11
HETATM   11  N   UNL     1     -40.524 -53.357  11.536  1.00  0.00    -0.287 NA
HETATM   12  H   UNL     1     -40.859 -54.319  11.485  1.00  0.00     0.125 HD
HETATM   13  H   UNL     1     -40.075 -53.064  10.674  1.00  0.00     0.125 HD
ENDBRANCH   1  11
BRANCH   4  14
HETATM   14  S   UNL     1     -45.424 -52.912  12.690  1.00  0.00    -0.091 SA
BRANCH  14  15
HETATM   15  C   UNL     1     -45.388 -54.278  13.896  1.00  0.00     0.114 C 
BRANCH  15  16
HETATM   16  C   UNL     1     -46.418 -54.018  15.032  1.00  0.00     0.131 C 
HETATM   17  C   UNL     1     -47.022 -52.603  14.991  1.00  0.00     0.033 C 
HETATM   18  C   UNL     1     -46.468 -51.671  16.051  1.00  0.00     0.004 C 
HETATM   19  C   UNL     1     -46.646 -52.346  17.389  1.00  0.00     0.026 C 
HETATM   20  C   UNL     1     -45.872 -53.650  17.434  1.00  0.00     0.168 C 
HETATM   21  O   UNL     1     -45.891 -54.477  16.279  1.00  0.00    -0.385 OA
ENDBRANCH  15  16
ENDBRANCH  14  15
ENDBRANCH   4  14
TORSDOF 4
ENDMDL
MODEL 5
REMARK VINA RESULT:      -5.7      1.722      2.301
REMARK  4 active torsions:
REMARK  status: ('A' for Active; 'I' for Inactive)
REMARK    1  A    between atoms: N_1  and  C_2 
REMARK    2  A    between atoms: C_5  and  S_6 
REMARK    3  A    between atoms: S_6  and  C_7 
REMARK    4  A    between atoms: C_7  and  C_8 
ROOT
HETATM    1  C   UNL     1     -43.055 -46.912   9.334  1.00  0.00     0.102 A 
HETATM    2  N   UNL     1     -41.867 -47.189   9.913  1.00  0.00    -0.326 N 
ATOM      3  HN  UNL     1     -40.989 -46.835   9.532  1.00  0.00     0.169 HD
HETATM    4  C   UNL     1     -41.902 -47.955  11.018  1.00  0.00     0.145 A 
HETATM    5  N   UNL     1     -43.026 -48.451  11.568  1.00  0.00    -0.345 N 
ATOM      6  HN  UNL     1     -42.996 -49.033  12.405  1.00  0.00     0.167 HD
HETATM    7  C   UNL     1     -44.181 -48.152  10.971  1.00  0.00     0.116 A 
HETATM    8  C   UNL     1     -44.263 -47.378   9.840  1.00  0.00     0.098 A 
HETATM    9  C   UNL     1     -45.528 -47.121   9.238  1.00  0.00     0.104 C 
HETATM   10  N   UNL     1     -46.571 -46.964   8.756  1.00  0.00    -0.191 NA
ENDROOT
BRANCH   1  11
HETATM   11  N   UNL     1     -43.015 -46.080   8.212  1.00  0.00    -0.287 NA
HETATM   12  H   UNL     1     -42.594 -46.584   7.434  1.00  0.00     0.125 HD
HETATM   13  H   UNL     1     -43.908 -45.667   7.962  1.00  0.00     0.125 HD
ENDBRANCH   1  11
BRANCH   4  14
HETATM   14  S   UNL     1     -40.432 -48.607  11.744  1.00  0.00    -0.091 SA
BRANCH  14  15
HETATM   15  C   UNL     1     -40.518 -50.400  11.426  1.00  0.00     0.114 C 
BRANCH  15  16
HETATM   16  C   UNL     1     -41.107 -51.137  12.663  1.00  0.00     0.131 C 
HETATM   17  C   UNL     1     -40.256 -52.336  13.116  1.00  0.00     0.033 C 
HETATM   18  C   UNL     1     -40.848 -53.681  12.742  1.00  0.00     0.004 C 
HETATM   19  C   UNL     1     -42.257 -53.724  13.281  1.00  0.00     0.026 C 
HETATM   20  C   UNL     1     -43.100 -52.629  12.655  1.00  0.00     0.168 C 
HETATM   21  O   UNL     1     -42.508 -51.350  12.479  1.00  0.00    -0.385 OA
ENDBRANCH  15  16
ENDBRANCH  14  15
ENDBRANCH   4  14
TORSDOF 4
ENDMDL
MODEL 6
REMARK VINA RESULT:      -5.6      3.424      7.333
REMARK  4 active torsions:
REMARK  status: ('A' for Active; 'I' for Inactive)
REMARK    1  A    between atoms: N_1  and  C_2 
REMARK    2  A    between atoms: C_5  and  S_6 
REMARK    3  A    between atoms: S_6  and  C_7 
REMARK    4  A    between atoms: C_7  and  C_8 
ROOT
HETATM    1  C   UNL     1     -41.303 -52.183  11.857  1.00  0.00     0.102 A 
HETATM    2  N   UNL     1     -40.720 -51.059  11.390  1.00  0.00    -0.326 N 
ATOM      3  HN  UNL     1     -39.844 -51.087  10.868  1.00  0.00     0.169 HD
HETATM    4  C   UNL     1     -41.353 -49.902  11.650  1.00  0.00     0.145 A 
HETATM    5  N   UNL     1     -42.508 -49.800  12.333  1.00  0.00    -0.345 N 
ATOM      6  HN  UNL     1     -42.945 -48.895  12.507  1.00  0.00     0.167 HD
HETATM    7  C   UNL     1     -43.058 -50.933  12.774  1.00  0.00     0.116 A 
HETATM    8  C   UNL     1     -42.499 -52.169  12.566  1.00  0.00     0.098 A 
HETATM    9  C   UNL     1     -43.126 -53.337  13.088  1.00  0.00     0.104 C 
HETATM   10  N   UNL     1     -43.645 -54.259  13.561  1.00  0.00    -0.191 NA
ENDROOT
BRANCH   1  11
HETATM   11  N   UNL     1     -40.663 -53.386  11.546  1.00  0.00    -0.287 NA
HETATM   12  H   UNL     1     -40.186 -53.737  12.375  1.00  0.00     0.125 HD
HETATM   13  H   UNL     1     -41.264 -54.087  11.125  1.00  0.00     0.125 HD
ENDBRANCH   1  11
BRANCH   4  14
HETATM   14  S   UNL     1     -40.602 -48.337  11.328  1.00  0.00    -0.091 SA
BRANCH  14  15
HETATM   15  C   UNL     1     -41.994 -47.231  10.931  1.00  0.00     0.114 C 
BRANCH  15  16
HETATM   16  C   UNL     1     -41.467 -45.903  10.317  1.00  0.00     0.131 C 
HETATM   17  C   UNL     1     -39.985 -45.635  10.635  1.00  0.00     0.033 C 
HETATM   18  C   UNL     1     -39.770 -44.572  11.694  1.00  0.00     0.004 C 
HETATM   19  C   UNL     1     -40.508 -43.332  11.252  1.00  0.00     0.026 C 
HETATM   20  C   UNL     1     -41.995 -43.611  11.136  1.00  0.00     0.168 C 
HETATM   21  O   UNL     1     -42.399 -44.849  10.568  1.00  0.00    -0.385 OA
ENDBRANCH  15  16
ENDBRANCH  14  15
ENDBRANCH   4  14
TORSDOF 4
ENDMDL
MODEL 7
REMARK VINA RESULT:      -5.6      3.535      4.962
REMARK  4 active torsions:
REMARK  status: ('A' for Active; 'I' for Inactive)
REMARK    1  A    between atoms: N_1  and  C_2 
REMARK    2  A    between atoms: C_5  and  S_6 
REMARK    3  A    between atoms: S_6  and  C_7 
REMARK    4  A    between atoms: C_7  and  C_8 
ROOT
HETATM    1  C   UNL     1     -40.692 -50.488  11.611  1.00  0.00     0.102 A 
HETATM    2  N   UNL     1     -41.162 -51.753  11.629  1.00  0.00    -0.326 N 
ATOM      3  HN  UNL     1     -41.301 -52.286  10.771  1.00  0.00     0.169 HD
HETATM    4  C   UNL     1     -41.438 -52.275  12.838  1.00  0.00     0.145 A 
HETATM    5  N   UNL     1     -41.277 -51.623  14.005  1.00  0.00    -0.345 N 
ATOM      6  HN  UNL     1     -41.507 -52.064  14.895  1.00  0.00     0.167 HD
HETATM    7  C   UNL     1     -40.804 -50.377  13.948  1.00  0.00     0.116 A 
HETATM    8  C   UNL     1     -40.489 -49.746  12.770  1.00  0.00     0.098 A 
HETATM    9  C   UNL     1     -40.015 -48.403  12.780  1.00  0.00     0.104 C 
HETATM   10  N   UNL     1     -39.668 -47.298  12.826  1.00  0.00    -0.191 NA
ENDROOT
BRANCH   1  11
HETATM   11  N   UNL     1     -40.366 -49.969  10.356  1.00  0.00    -0.287 NA
HETATM   12  H   UNL     1     -40.294 -48.954  10.420  1.00  0.00     0.125 HD
HETATM   13  H   UNL     1     -39.544 -50.383   9.929  1.00  0.00     0.125 HD
ENDBRANCH   1  11
BRANCH   4  14
HETATM   14  S   UNL     1     -42.286 -53.812  13.017  1.00  0.00    -0.091 SA
BRANCH  14  15
HETATM   15  C   UNL     1     -44.014 -53.438  12.574  1.00  0.00     0.114 C 
BRANCH  15  16
HETATM   16  C   UNL     1     -44.890 -53.350  13.856  1.00  0.00     0.131 C 
HETATM   17  C   UNL     1     -46.318 -52.848  13.581  1.00  0.00     0.033 C 
HETATM   18  C   UNL     1     -46.553 -51.411  14.005  1.00  0.00     0.004 C 
HETATM   19  C   UNL     1     -46.160 -51.295  15.458  1.00  0.00     0.026 C 
HETATM   20  C   UNL     1     -44.689 -51.623  15.639  1.00  0.00     0.168 C 
HETATM   21  O   UNL     1     -44.154 -52.714  14.903  1.00  0.00    -0.385 OA
ENDBRANCH  15  16
ENDBRANCH  14  15
ENDBRANCH   4  14
TORSDOF 4
ENDMDL
MODEL 8
REMARK VINA RESULT:      -5.6      1.690      2.773
REMARK  4 active torsions:
REMARK  status: ('A' for Active; 'I' for Inactive)
REMARK    1  A    between atoms: N_1  and  C_2 
REMARK    2  A    between atoms: C_5  and  S_6 
REMARK    3  A    between atoms: S_6  and  C_7 
REMARK    4  A    between atoms: C_7  and  C_8 
ROOT
HETATM    1  C   UNL     1     -43.093 -47.838  10.555  1.00  0.00     0.102 A 
HETATM    2  N   UNL     1     -42.461 -48.933  11.026  1.00  0.00    -0.326 N 
ATOM      3  HN  UNL     1     -42.955 -49.812  11.181  1.00  0.00     0.169 HD
HETATM    4  C   UNL     1     -41.147 -48.806  11.279  1.00  0.00     0.145 A 
HETATM    5  N   UNL     1     -40.440 -47.675  11.096  1.00  0.00    -0.345 N 
ATOM      6  HN  UNL     1     -39.444 -47.630  11.309  1.00  0.00     0.167 HD
HETATM    7  C   UNL     1     -41.097 -46.614  10.624  1.00  0.00     0.116 A 
HETATM    8  C   UNL     1     -42.438 -46.632  10.330  1.00  0.00     0.098 A 
HETATM    9  C   UNL     1     -43.084 -45.454   9.856  1.00  0.00     0.104 C 
HETATM   10  N   UNL     1     -43.582 -44.467   9.507  1.00  0.00    -0.191 NA
ENDROOT
BRANCH   1  11
HETATM   11  N   UNL     1     -44.449 -47.990  10.252  1.00  0.00    -0.287 NA
HETATM   12  H   UNL     1     -44.774 -48.887  10.609  1.00  0.00     0.125 HD
HETATM   13  H   UNL     1     -45.038 -47.221  10.557  1.00  0.00     0.125 HD
ENDBRANCH   1  11
BRANCH   4  14
HETATM   14  S   UNL     1     -40.236 -50.059  12.124  1.00  0.00    -0.091 SA
BRANCH  14  15
HETATM   15  C   UNL     1     -41.159 -51.597  11.802  1.00  0.00     0.114 C 
BRANCH  15  16
HETATM   16  C   UNL     1     -42.064 -51.945  13.018  1.00  0.00     0.131 C 
HETATM   17  C   UNL     1     -42.573 -53.396  12.999  1.00  0.00     0.033 C 
HETATM   18  C   UNL     1     -44.030 -53.527  12.600  1.00  0.00     0.004 C 
HETATM   19  C   UNL     1     -44.835 -52.635  13.512  1.00  0.00     0.026 C 
HETATM   20  C   UNL     1     -44.413 -51.187  13.349  1.00  0.00     0.168 C 
HETATM   21  O   UNL     1     -43.026 -50.907  13.220  1.00  0.00    -0.385 OA
ENDBRANCH  15  16
ENDBRANCH  14  15
ENDBRANCH   4  14
TORSDOF 4
ENDMDL
MODEL 9
REMARK VINA RESULT:      -5.6      4.390      6.734
REMARK  4 active torsions:
REMARK  status: ('A' for Active; 'I' for Inactive)
REMARK    1  A    between atoms: N_1  and  C_2 
REMARK    2  A    between atoms: C_5  and  S_6 
REMARK    3  A    between atoms: S_6  and  C_7 
REMARK    4  A    between atoms: C_7  and  C_8 
ROOT
HETATM    1  C   UNL     1     -44.677 -53.265  12.613  1.00  0.00     0.102 A 
HETATM    2  N   UNL     1     -43.524 -52.749  12.139  1.00  0.00    -0.326 N 
ATOM      3  HN  UNL     1     -43.502 -52.155  11.309  1.00  0.00     0.169 HD
HETATM    4  C   UNL     1     -42.404 -53.056  12.817  1.00  0.00     0.145 A 
HETATM    5  N   UNL     1     -42.366 -53.833  13.916  1.00  0.00    -0.345 N 
ATOM      6  HN  UNL     1     -41.488 -54.040  14.390  1.00  0.00     0.167 HD
HETATM    7  C   UNL     1     -43.526 -54.320  14.359  1.00  0.00     0.116 A 
HETATM    8  C   UNL     1     -44.729 -54.070  13.746  1.00  0.00     0.098 A 
HETATM    9  C   UNL     1     -45.928 -54.645  14.256  1.00  0.00     0.104 C 
HETATM   10  N   UNL     1     -46.876 -55.161  14.678  1.00  0.00    -0.191 NA
ENDROOT
BRANCH   1  11
HETATM   11  N   UNL     1     -45.841 -52.904  11.930  1.00  0.00    -0.287 NA
HETATM   12  H   UNL     1     -46.248 -52.080  12.370  1.00  0.00     0.125 HD
HETATM   13  H   UNL     1     -45.723 -52.784  10.929  1.00  0.00     0.125 HD
ENDBRANCH   1  11
BRANCH   4  14
HETATM   14  S   UNL     1     -40.800 -52.670  12.190  1.00  0.00    -0.091 SA
BRANCH  14  15
HETATM   15  C   UNL     1     -39.726 -52.636  13.662  1.00  0.00     0.114 C 
BRANCH  15  16
HETATM   16  C   UNL     1     -38.800 -51.387  13.622  1.00  0.00     0.131 C 
HETATM   17  C   UNL     1     -39.566 -50.072  13.397  1.00  0.00     0.033 C 
HETATM   18  C   UNL     1     -39.427 -49.518  11.992  1.00  0.00     0.004 C 
HETATM   19  C   UNL     1     -37.953 -49.397  11.694  1.00  0.00     0.026 C 
HETATM   20  C   UNL     1     -37.285 -50.758  11.749  1.00  0.00     0.168 C 
HETATM   21  O   UNL     1     -37.670 -51.648  12.788  1.00  0.00    -0.385 OA
ENDBRANCH  15  16
ENDBRANCH  14  15
ENDBRANCH   4  14
TORSDOF 4
ENDMDL
