MODEL 1
REMARK VINA RESULT:      -6.1      0.000      0.000
REMARK  5 active torsions:
REMARK  status: ('A' for Active; 'I' for Inactive)
REMARK    1  A    between atoms: N_2  and  C_4 
REMARK    2  A    between atoms: C_4  and  C_5 
REMARK    3  A    between atoms: C_5  and  N_6 
REMARK       I    between atoms: N_6  and  C_7 
REMARK    4  A    between atoms: C_7  and  C_9 
REMARK    5  A    between atoms: C_9  and  C_10 
ROOT
HETATM    1  N   UNL     1     -42.527 -51.796  12.033  1.00  0.00    -0.358 N 
HETATM    2  C   UNL     1     -41.156 -51.705  11.960  1.00  0.00     0.222 C 
HETATM    3  O   UNL     1     -40.405 -52.642  12.214  1.00  0.00    -0.273 OA
HETATM    4  H   UNL     1     -43.098 -51.041  11.677  1.00  0.00     0.162 HD
ENDROOT
BRANCH   1   5
HETATM    5  C   UNL     1     -43.193 -53.015  12.459  1.00  0.00     0.164 C 
BRANCH   5   6
HETATM    6  C   UNL     1     -44.131 -52.892  13.723  1.00  0.00     0.174 C 
HETATM    7  C   UNL     1     -44.335 -51.350  13.945  1.00  0.00     0.043 C 
HETATM    8  C   UNL     1     -45.435 -50.970  14.938  1.00  0.00     0.003 C 
HETATM    9  C   UNL     1     -46.767 -51.637  14.611  1.00  0.00     0.000 C 
HETATM   10  C   UNL     1     -46.609 -53.140  14.438  1.00  0.00     0.003 C 
HETATM   11  C   UNL     1     -45.550 -53.450  13.381  1.00  0.00     0.043 C 
BRANCH   6  12
HETATM   12  N   UNL     1     -43.593 -53.550  14.966  1.00  0.00     0.091 N 
HETATM   13  C   UNL     1     -43.390 -54.998  14.878  1.00  0.00     0.310 C 
HETATM   14  C   UNL     1     -42.380 -52.941  15.516  1.00  0.00     0.310 C 
ENDBRANCH   6  12
ENDBRANCH   5   6
ENDBRANCH   1   5
BRANCH   2  15
HETATM   15  C   UNL     1     -40.626 -50.348  11.540  1.00  0.00     0.146 C 
BRANCH  15  16
HETATM   16  C   UNL     1     -39.648 -49.818  12.520  1.00  0.00     0.006 A 
HETATM   17  C   UNL     1     -38.240 -49.643  12.375  1.00  0.00     0.038 A 
HETATM   18  C   UNL     1     -37.364 -49.931  11.213  1.00  0.00     0.071 C 
HETATM   19  N   UNL     1     -37.697 -49.138  13.488  1.00  0.00    -0.265 N 
HETATM   20  O   UNL     1     -38.733 -48.979  14.381  1.00  0.00    -0.242 OA
ATOM     21  HN  UNL     1     -36.715 -48.915  13.644  1.00  0.00     0.194 HD
HETATM   22  C   UNL     1     -39.897 -49.385  13.806  1.00  0.00     0.081 A 
HETATM   23  C   UNL     1     -41.107 -49.283  14.642  1.00  0.00     0.079 C 
ENDBRANCH  15  16
ENDBRANCH   2  15
TORSDOF 5
ENDMDL
MODEL 2
REMARK VINA RESULT:      -6.1      3.896      4.711
REMARK  5 active torsions:
REMARK  status: ('A' for Active; 'I' for Inactive)
REMARK    1  A    between atoms: N_2  and  C_4 
REMARK    2  A    between atoms: C_4  and  C_5 
REMARK    3  A    between atoms: C_5  and  N_6 
REMARK       I    between atoms: N_6  and  C_7 
REMARK    4  A    between atoms: C_7  and  C_9 
REMARK    5  A    between atoms: C_9  and  C_10 
ROOT
HETATM    1  N   UNL     1     -42.681 -49.729  12.339  1.00  0.00    -0.358 N 
HETATM    2  C   UNL     1     -42.714 -48.415  11.930  1.00  0.00     0.222 C 
HETATM    3  O   UNL     1     -42.878 -47.474  12.700  1.00  0.00    -0.273 OA
HETATM    4  H   UNL     1     -42.401 -50.449  11.688  1.00  0.00     0.162 HD
ENDROOT
BRANCH   1   5
HETATM    5  C   UNL     1     -42.877 -50.102  13.729  1.00  0.00     0.164 C 
BRANCH   5   6
HETATM    6  C   UNL     1     -44.002 -51.175  14.011  1.00  0.00     0.174 C 
HETATM    7  C   UNL     1     -44.614 -50.782  15.404  1.00  0.00     0.043 C 
HETATM    8  C   UNL     1     -45.914 -51.498  15.773  1.00  0.00     0.003 C 
HETATM    9  C   UNL     1     -46.971 -51.381  14.680  1.00  0.00     0.000 C 
HETATM   10  C   UNL     1     -46.421 -51.801  13.326  1.00  0.00     0.003 C 
HETATM   11  C   UNL     1     -45.166 -50.997  12.984  1.00  0.00     0.043 C 
BRANCH   6  12
HETATM   12  N   UNL     1     -43.517 -52.600  14.017  1.00  0.00     0.091 N 
HETATM   13  C   UNL     1     -43.058 -53.117  12.725  1.00  0.00     0.310 C 
HETATM   14  C   UNL     1     -42.505 -52.909  15.029  1.00  0.00     0.310 C 
ENDBRANCH   6  12
ENDBRANCH   5   6
ENDBRANCH   1   5
BRANCH   2  15
HETATM   15  C   UNL     1     -42.534 -48.206  10.439  1.00  0.00     0.146 C 
BRANCH  15  16
HETATM   16  C   UNL     1     -43.115 -46.915   9.996  1.00  0.00     0.006 A 
HETATM   17  C   UNL     1     -44.372 -46.667   9.370  1.00  0.00     0.038 A 
HETATM   18  C   UNL     1     -45.448 -47.617   8.994  1.00  0.00     0.071 C 
HETATM   19  N   UNL     1     -44.539 -45.364   9.118  1.00  0.00    -0.265 N 
HETATM   20  O   UNL     1     -43.397 -44.738   9.567  1.00  0.00    -0.242 OA
ATOM     21  HN  UNL     1     -45.348 -44.923   8.682  1.00  0.00     0.194 HD
HETATM   22  C   UNL     1     -42.547 -45.662  10.089  1.00  0.00     0.081 A 
HETATM   23  C   UNL     1     -41.267 -45.148  10.611  1.00  0.00     0.079 C 
ENDBRANCH  15  16
ENDBRANCH   2  15
TORSDOF 5
ENDMDL
MODEL 3
REMARK VINA RESULT:      -6.0      3.656      4.865
REMARK  5 active torsions:
REMARK  status: ('A' for Active; 'I' for Inactive)
REMARK    1  A    between atoms: N_2  and  C_4 
REMARK    2  A    between atoms: C_4  and  C_5 
REMARK    3  A    between atoms: C_5  and  N_6 
REMARK       I    between atoms: N_6  and  C_7 
REMARK    4  A    between atoms: C_7  and  C_9 
REMARK    5  A    between atoms: C_9  and  C_10 
ROOT
HETATM    1  N   UNL     1     -43.403 -50.005  12.551  1.00  0.00    -0.358 N 
HETATM    2  C   UNL     1     -42.925 -48.735  12.322  1.00  0.00     0.222 C 
HETATM    3  O   UNL     1     -42.983 -47.834  13.154  1.00  0.00    -0.273 OA
HETATM    4  H   UNL     1     -43.202 -50.742  11.889  1.00  0.00     0.162 HD
ENDROOT
BRANCH   1   5
HETATM    5  C   UNL     1     -44.055 -50.364  13.799  1.00  0.00     0.164 C 
BRANCH   5   6
HETATM    6  C   UNL     1     -44.537 -51.863  13.927  1.00  0.00     0.174 C 
HETATM    7  C   UNL     1     -43.764 -52.648  12.807  1.00  0.00     0.043 C 
HETATM    8  C   UNL     1     -43.842 -54.173  12.904  1.00  0.00     0.003 C 
HETATM    9  C   UNL     1     -43.441 -54.688  14.282  1.00  0.00     0.000 C 
HETATM   10  C   UNL     1     -44.209 -53.978  15.387  1.00  0.00     0.003 C 
HETATM   11  C   UNL     1     -44.030 -52.464  15.277  1.00  0.00     0.043 C 
BRANCH   6  12
HETATM   12  N   UNL     1     -46.024 -52.053  13.792  1.00  0.00     0.091 N 
HETATM   13  C   UNL     1     -46.841 -51.397  14.816  1.00  0.00     0.310 C 
HETATM   14  C   UNL     1     -46.576 -51.726  12.476  1.00  0.00     0.310 C 
ENDBRANCH   6  12
ENDBRANCH   5   6
ENDBRANCH   1   5
BRANCH   2  15
HETATM   15  C   UNL     1     -42.313 -48.519  10.952  1.00  0.00     0.146 C 
BRANCH  15  16
HETATM   16  C   UNL     1     -42.709 -47.210  10.379  1.00  0.00     0.006 A 
HETATM   17  C   UNL     1     -43.955 -46.827   9.799  1.00  0.00     0.038 A 
HETATM   18  C   UNL     1     -45.197 -47.617   9.614  1.00  0.00     0.071 C 
HETATM   19  N   UNL     1     -43.927 -45.555   9.389  1.00  0.00    -0.265 N 
HETATM   20  O   UNL     1     -42.667 -45.084   9.685  1.00  0.00    -0.242 OA
ATOM     21  HN  UNL     1     -44.686 -45.037   8.946  1.00  0.00     0.194 HD
HETATM   22  C   UNL     1     -41.940 -46.070  10.274  1.00  0.00     0.081 A 
HETATM   23  C   UNL     1     -40.556 -45.724  10.649  1.00  0.00     0.079 C 
ENDBRANCH  15  16
ENDBRANCH   2  15
TORSDOF 5
ENDMDL
MODEL 4
REMARK VINA RESULT:      -5.9      2.272      6.526
REMARK  5 active torsions:
REMARK  status: ('A' for Active; 'I' for Inactive)
REMARK    1  A    between atoms: N_2  and  C_4 
REMARK    2  A    between atoms: C_4  and  C_5 
REMARK    3  A    between atoms: C_5  and  N_6 
REMARK       I    between atoms: N_6  and  C_7 
REMARK    4  A    between atoms: C_7  and  C_9 
REMARK    5  A    between atoms: C_9  and  C_10 
ROOT
HETATM    1  N   UNL     1     -42.110 -51.013  12.034  1.00  0.00    -0.358 N 
HETATM    2  C   UNL     1     -43.059 -51.665  12.788  1.00  0.00     0.222 C 
HETATM    3  O   UNL     1     -43.673 -51.130  13.706  1.00  0.00    -0.273 OA
HETATM    4  H   UNL     1     -41.741 -51.456  11.204  1.00  0.00     0.162 HD
ENDROOT
BRANCH   1   5
HETATM    5  C   UNL     1     -41.735 -49.635  12.300  1.00  0.00     0.164 C 
BRANCH   5   6
HETATM    6  C   UNL     1     -40.200 -49.367  12.556  1.00  0.00     0.174 C 
HETATM    7  C   UNL     1     -39.849 -50.163  13.864  1.00  0.00     0.043 C 
HETATM    8  C   UNL     1     -38.356 -50.296  14.168  1.00  0.00     0.003 C 
HETATM    9  C   UNL     1     -37.570 -50.851  12.986  1.00  0.00     0.000 C 
HETATM   10  C   UNL     1     -37.853 -50.068  11.713  1.00  0.00     0.003 C 
HETATM   11  C   UNL     1     -39.354 -50.036  11.426  1.00  0.00     0.043 C 
BRANCH   6  12
HETATM   12  N   UNL     1     -39.836 -47.913  12.694  1.00  0.00     0.091 N 
HETATM   13  C   UNL     1     -40.031 -47.095  11.494  1.00  0.00     0.310 C 
HETATM   14  C   UNL     1     -40.449 -47.224  13.832  1.00  0.00     0.310 C 
ENDBRANCH   6  12
ENDBRANCH   5   6
ENDBRANCH   1   5
BRANCH   2  15
HETATM   15  C   UNL     1     -43.298 -53.112  12.404  1.00  0.00     0.146 C 
BRANCH  15  16
HETATM   16  C   UNL     1     -43.159 -54.016  13.572  1.00  0.00     0.006 A 
HETATM   17  C   UNL     1     -41.986 -54.344  14.315  1.00  0.00     0.038 A 
HETATM   18  C   UNL     1     -40.590 -53.875  14.138  1.00  0.00     0.071 C 
HETATM   19  N   UNL     1     -42.263 -55.202  15.303  1.00  0.00    -0.265 N 
HETATM   20  O   UNL     1     -43.615 -55.455  15.222  1.00  0.00    -0.242 OA
ATOM     21  HN  UNL     1     -41.607 -55.590  15.979  1.00  0.00     0.194 HD
HETATM   22  C   UNL     1     -44.149 -54.750  14.190  1.00  0.00     0.081 A 
HETATM   23  C   UNL     1     -45.597 -54.918  13.967  1.00  0.00     0.079 C 
ENDBRANCH  15  16
ENDBRANCH   2  15
TORSDOF 5
ENDMDL
MODEL 5
REMARK VINA RESULT:      -5.9      2.190      7.019
REMARK  5 active torsions:
REMARK  status: ('A' for Active; 'I' for Inactive)
REMARK    1  A    between atoms: N_2  and  C_4 
REMARK    2  A    between atoms: C_4  and  C_5 
REMARK    3  A    between atoms: C_5  and  N_6 
REMARK       I    between atoms: N_6  and  C_7 
REMARK    4  A    between atoms: C_7  and  C_9 
REMARK    5  A    between atoms: C_9  and  C_10 
ROOT
HETATM    1  N   UNL     1     -42.103 -50.841  12.016  1.00  0.00    -0.358 N 
HETATM    2  C   UNL     1     -42.866 -51.546  12.919  1.00  0.00     0.222 C 
HETATM    3  O   UNL     1     -43.279 -51.065  13.970  1.00  0.00    -0.273 OA
HETATM    4  H   UNL     1     -41.912 -51.238  11.106  1.00  0.00     0.162 HD
ENDROOT
BRANCH   1   5
HETATM    5  C   UNL     1     -41.693 -49.470  12.265  1.00  0.00     0.164 C 
BRANCH   5   6
HETATM    6  C   UNL     1     -40.144 -49.228  12.454  1.00  0.00     0.174 C 
HETATM    7  C   UNL     1     -39.752 -50.026  13.750  1.00  0.00     0.043 C 
HETATM    8  C   UNL     1     -38.250 -50.184  13.991  1.00  0.00     0.003 C 
HETATM    9  C   UNL     1     -37.524 -50.757  12.779  1.00  0.00     0.000 C 
HETATM   10  C   UNL     1     -37.847 -49.974  11.516  1.00  0.00     0.003 C 
HETATM   11  C   UNL     1     -39.358 -49.916  11.292  1.00  0.00     0.043 C 
BRANCH   6  12
HETATM   12  N   UNL     1     -39.749 -47.780  12.571  1.00  0.00     0.091 N 
HETATM   13  C   UNL     1     -40.035 -46.950  11.399  1.00  0.00     0.310 C 
HETATM   14  C   UNL     1     -40.251 -47.093  13.763  1.00  0.00     0.310 C 
ENDBRANCH   6  12
ENDBRANCH   5   6
ENDBRANCH   1   5
BRANCH   2  15
HETATM   15  C   UNL     1     -43.166 -52.978  12.523  1.00  0.00     0.146 C 
BRANCH  15  16
HETATM   16  C   UNL     1     -44.302 -53.531  13.299  1.00  0.00     0.006 A 
HETATM   17  C   UNL     1     -45.692 -53.228  13.192  1.00  0.00     0.038 A 
HETATM   18  C   UNL     1     -46.390 -52.291  12.278  1.00  0.00     0.071 C 
HETATM   19  N   UNL     1     -46.411 -53.933  14.072  1.00  0.00    -0.265 N 
HETATM   20  O   UNL     1     -45.510 -54.703  14.773  1.00  0.00    -0.242 OA
ATOM     21  HN  UNL     1     -47.422 -53.907  14.198  1.00  0.00     0.194 HD
HETATM   22  C   UNL     1     -44.252 -54.463  14.315  1.00  0.00     0.081 A 
HETATM   23  C   UNL     1     -43.165 -55.212  14.972  1.00  0.00     0.079 C 
ENDBRANCH  15  16
ENDBRANCH   2  15
TORSDOF 5
ENDMDL
MODEL 6
REMARK VINA RESULT:      -5.7      2.469      6.048
REMARK  5 active torsions:
REMARK  status: ('A' for Active; 'I' for Inactive)
REMARK    1  A    between atoms: N_2  and  C_4 
REMARK    2  A    between atoms: C_4  and  C_5 
REMARK    3  A    between atoms: C_5  and  N_6 
REMARK       I    between atoms: N_6  and  C_7 
REMARK    4  A    between atoms: C_7  and  C_9 
REMARK    5  A    between atoms: C_9  and  C_10 
ROOT
HETATM    1  N   UNL     1     -42.924 -52.625  12.077  1.00  0.00    -0.358 N 
HETATM    2  C   UNL     1     -43.262 -53.677  12.897  1.00  0.00     0.222 C 
HETATM    3  O   UNL     1     -42.441 -54.306  13.557  1.00  0.00    -0.273 OA
HETATM    4  H   UNL     1     -43.652 -52.054  11.670  1.00  0.00     0.162 HD
ENDROOT
BRANCH   1   5
HETATM    5  C   UNL     1     -41.545 -52.202  11.902  1.00  0.00     0.164 C 
BRANCH   5   6
HETATM    6  C   UNL     1     -41.166 -50.791  12.502  1.00  0.00     0.174 C 
HETATM    7  C   UNL     1     -40.487 -50.005  11.323  1.00  0.00     0.043 C 
HETATM    8  C   UNL     1     -40.283 -48.509  11.566  1.00  0.00     0.003 C 
HETATM    9  C   UNL     1     -41.569 -47.810  11.994  1.00  0.00     0.000 C 
HETATM   10  C   UNL     1     -42.226 -48.523  13.167  1.00  0.00     0.003 C 
HETATM   11  C   UNL     1     -42.469 -49.994  12.832  1.00  0.00     0.043 C 
BRANCH   6  12
HETATM   12  N   UNL     1     -40.264 -50.847  13.705  1.00  0.00     0.091 N 
HETATM   13  C   UNL     1     -40.842 -51.464  14.901  1.00  0.00     0.310 C 
HETATM   14  C   UNL     1     -38.945 -51.439  13.467  1.00  0.00     0.310 C 
ENDBRANCH   6  12
ENDBRANCH   5   6
ENDBRANCH   1   5
BRANCH   2  15
HETATM   15  C   UNL     1     -44.740 -54.012  12.931  1.00  0.00     0.146 C 
BRANCH  15  16
HETATM   16  C   UNL     1     -45.523 -52.956  13.617  1.00  0.00     0.006 A 
HETATM   17  C   UNL     1     -45.561 -52.629  15.005  1.00  0.00     0.038 A 
HETATM   18  C   UNL     1     -44.831 -53.239  16.143  1.00  0.00     0.071 C 
HETATM   19  N   UNL     1     -46.395 -51.610  15.239  1.00  0.00    -0.265 N 
HETATM   20  O   UNL     1     -46.921 -51.256  14.016  1.00  0.00    -0.242 OA
ATOM     21  HN  UNL     1     -46.600 -51.181  16.141  1.00  0.00     0.194 HD
HETATM   22  C   UNL     1     -46.403 -52.059  13.049  1.00  0.00     0.081 A 
HETATM   23  C   UNL     1     -46.875 -51.809  11.674  1.00  0.00     0.079 C 
ENDBRANCH  15  16
ENDBRANCH   2  15
TORSDOF 5
ENDMDL
MODEL 7
REMARK VINA RESULT:      -5.6      1.697      1.926
REMARK  5 active torsions:
REMARK  status: ('A' for Active; 'I' for Inactive)
REMARK    1  A    between atoms: N_2  and  C_4 
REMARK    2  A    between atoms: C_4  and  C_5 
REMARK    3  A    between atoms: C_5  and  N_6 
REMARK       I    between atoms: N_6  and  C_7 
REMARK    4  A    between atoms: C_7  and  C_9 
REMARK    5  A    between atoms: C_9  and  C_10 
ROOT
HETATM    1  N   UNL     1     -41.350 -51.680  11.755  1.00  0.00    -0.358 N 
HETATM    2  C   UNL     1     -40.117 -51.159  12.075  1.00  0.00     0.222 C 
HETATM    3  O   UNL     1     -39.330 -51.713  12.837  1.00  0.00    -0.273 OA
HETATM    4  H   UNL     1     -41.895 -51.257  11.016  1.00  0.00     0.162 HD
ENDROOT
BRANCH   1   5
HETATM    5  C   UNL     1     -41.831 -52.922  12.335  1.00  0.00     0.164 C 
BRANCH   5   6
HETATM    6  C   UNL     1     -43.124 -52.817  13.235  1.00  0.00     0.174 C 
HETATM    7  C   UNL     1     -43.498 -51.291  13.254  1.00  0.00     0.043 C 
HETATM    8  C   UNL     1     -44.878 -50.962  13.826  1.00  0.00     0.003 C 
HETATM    9  C   UNL     1     -45.989 -51.769  13.162  1.00  0.00     0.000 C 
HETATM   10  C   UNL     1     -45.677 -53.257  13.171  1.00  0.00     0.003 C 
HETATM   11  C   UNL     1     -44.320 -53.525  12.520  1.00  0.00     0.043 C 
BRANCH   6  12
HETATM   12  N   UNL     1     -42.956 -53.350  14.632  1.00  0.00     0.091 N 
HETATM   13  C   UNL     1     -42.752 -54.797  14.738  1.00  0.00     0.310 C 
HETATM   14  C   UNL     1     -41.936 -52.675  15.437  1.00  0.00     0.310 C 
ENDBRANCH   6  12
ENDBRANCH   5   6
ENDBRANCH   1   5
BRANCH   2  15
HETATM   15  C   UNL     1     -39.791 -49.834  11.414  1.00  0.00     0.146 C 
BRANCH  15  16
HETATM   16  C   UNL     1     -40.156 -48.688  12.282  1.00  0.00     0.006 A 
HETATM   17  C   UNL     1     -39.380 -48.048  13.294  1.00  0.00     0.038 A 
HETATM   18  C   UNL     1     -38.000 -48.338  13.755  1.00  0.00     0.071 C 
HETATM   19  N   UNL     1     -40.059 -47.047  13.864  1.00  0.00    -0.265 N 
HETATM   20  O   UNL     1     -41.288 -47.016  13.244  1.00  0.00    -0.242 OA
ATOM     21  HN  UNL     1     -39.732 -46.430  14.607  1.00  0.00     0.194 HD
HETATM   22  C   UNL     1     -41.348 -47.995  12.302  1.00  0.00     0.081 A 
HETATM   23  C   UNL     1     -42.611 -48.097  11.548  1.00  0.00     0.079 C 
ENDBRANCH  15  16
ENDBRANCH   2  15
TORSDOF 5
ENDMDL
MODEL 8
REMARK VINA RESULT:      -5.6      2.012      2.616
REMARK  5 active torsions:
REMARK  status: ('A' for Active; 'I' for Inactive)
REMARK    1  A    between atoms: N_2  and  C_4 
REMARK    2  A    between atoms: C_4  and  C_5 
REMARK    3  A    between atoms: C_5  and  N_6 
REMARK       I    between atoms: N_6  and  C_7 
REMARK    4  A    between atoms: C_7  and  C_9 
REMARK    5  A    between atoms: C_9  and  C_10 
ROOT
HETATM    1  N   UNL     1     -42.470 -50.500  15.107  1.00  0.00    -0.358 N 
HETATM    2  C   UNL     1     -41.117 -50.524  14.857  1.00  0.00     0.222 C 
HETATM    3  O   UNL     1     -40.396 -51.473  15.148  1.00  0.00    -0.273 OA
HETATM    4  H   UNL     1     -43.037 -49.758  14.719  1.00  0.00     0.162 HD
ENDROOT
BRANCH   1   5
HETATM    5  C   UNL     1     -43.145 -51.597  15.777  1.00  0.00     0.164 C 
BRANCH   5   6
HETATM    6  C   UNL     1     -44.374 -52.231  15.015  1.00  0.00     0.174 C 
HETATM    7  C   UNL     1     -45.575 -51.250  15.270  1.00  0.00     0.043 C 
HETATM    8  C   UNL     1     -46.812 -51.491  14.404  1.00  0.00     0.003 C 
HETATM    9  C   UNL     1     -46.479 -51.540  12.917  1.00  0.00     0.000 C 
HETATM   10  C   UNL     1     -45.350 -52.519  12.632  1.00  0.00     0.003 C 
HETATM   11  C   UNL     1     -44.120 -52.179  13.474  1.00  0.00     0.043 C 
BRANCH   6  12
HETATM   12  N   UNL     1     -44.720 -53.632  15.444  1.00  0.00     0.091 N 
HETATM   13  C   UNL     1     -43.695 -54.645  15.181  1.00  0.00     0.310 C 
HETATM   14  C   UNL     1     -45.161 -53.765  16.834  1.00  0.00     0.310 C 
ENDBRANCH   6  12
ENDBRANCH   5   6
ENDBRANCH   1   5
BRANCH   2  15
HETATM   15  C   UNL     1     -40.567 -49.279  14.188  1.00  0.00     0.146 C 
BRANCH  15  16
HETATM   16  C   UNL     1     -40.653 -49.372  12.711  1.00  0.00     0.006 A 
HETATM   17  C   UNL     1     -39.688 -49.874  11.788  1.00  0.00     0.038 A 
HETATM   18  C   UNL     1     -38.344 -50.448  12.041  1.00  0.00     0.071 C 
HETATM   19  N   UNL     1     -40.132 -49.788  10.529  1.00  0.00    -0.265 N 
HETATM   20  O   UNL     1     -41.386 -49.224  10.602  1.00  0.00    -0.242 OA
ATOM     21  HN  UNL     1     -39.640 -50.080   9.685  1.00  0.00     0.194 HD
HETATM   22  C   UNL     1     -41.697 -48.974  11.902  1.00  0.00     0.081 A 
HETATM   23  C   UNL     1     -43.015 -48.361  12.150  1.00  0.00     0.079 C 
ENDBRANCH  15  16
ENDBRANCH   2  15
TORSDOF 5
ENDMDL
MODEL 9
REMARK VINA RESULT:      -5.5      3.378      3.853
REMARK  5 active torsions:
REMARK  status: ('A' for Active; 'I' for Inactive)
REMARK    1  A    between atoms: N_2  and  C_4 
REMARK    2  A    between atoms: C_4  and  C_5 
REMARK    3  A    between atoms: C_5  and  N_6 
REMARK       I    between atoms: N_6  and  C_7 
REMARK    4  A    between atoms: C_7  and  C_9 
REMARK    5  A    between atoms: C_9  and  C_10 
ROOT
HETATM    1  N   UNL     1     -43.220 -49.758  12.499  1.00  0.00    -0.358 N 
HETATM    2  C   UNL     1     -42.511 -48.666  12.946  1.00  0.00     0.222 C 
HETATM    3  O   UNL     1     -41.449 -48.756  13.554  1.00  0.00    -0.273 OA
HETATM    4  H   UNL     1     -44.010 -49.623  11.883  1.00  0.00     0.162 HD
ENDROOT
BRANCH   1   5
HETATM    5  C   UNL     1     -42.773 -51.117  12.752  1.00  0.00     0.164 C 
BRANCH   5   6
HETATM    6  C   UNL     1     -43.732 -52.015  13.628  1.00  0.00     0.174 C 
HETATM    7  C   UNL     1     -44.906 -51.067  14.068  1.00  0.00     0.043 C 
HETATM    8  C   UNL     1     -46.114 -51.768  14.691  1.00  0.00     0.003 C 
HETATM    9  C   UNL     1     -46.648 -52.894  13.813  1.00  0.00     0.000 C 
HETATM   10  C   UNL     1     -45.541 -53.857  13.409  1.00  0.00     0.003 C 
HETATM   11  C   UNL     1     -44.399 -53.105  12.728  1.00  0.00     0.043 C 
BRANCH   6  12
HETATM   12  N   UNL     1     -43.073 -52.651  14.822  1.00  0.00     0.091 N 
HETATM   13  C   UNL     1     -42.047 -53.652  14.521  1.00  0.00     0.310 C 
HETATM   14  C   UNL     1     -42.533 -51.711  15.808  1.00  0.00     0.310 C 
ENDBRANCH   6  12
ENDBRANCH   5   6
ENDBRANCH   1   5
BRANCH   2  15
HETATM   15  C   UNL     1     -43.141 -47.323  12.633  1.00  0.00     0.146 C 
BRANCH  15  16
HETATM   16  C   UNL     1     -42.813 -46.874  11.259  1.00  0.00     0.006 A 
HETATM   17  C   UNL     1     -41.635 -46.223  10.786  1.00  0.00     0.038 A 
HETATM   18  C   UNL     1     -40.414 -45.820  11.526  1.00  0.00     0.071 C 
HETATM   19  N   UNL     1     -41.713 -45.973   9.475  1.00  0.00    -0.265 N 
HETATM   20  O   UNL     1     -42.939 -46.449   9.066  1.00  0.00    -0.242 OA
ATOM     21  HN  UNL     1     -41.006 -45.522   8.894  1.00  0.00     0.194 HD
HETATM   22  C   UNL     1     -43.596 -46.985  10.129  1.00  0.00     0.081 A 
HETATM   23  C   UNL     1     -44.937 -47.535   9.855  1.00  0.00     0.079 C 
ENDBRANCH  15  16
ENDBRANCH   2  15
TORSDOF 5
ENDMDL
