MODEL 1
REMARK VINA RESULT:      -6.2      0.000      0.000
REMARK  5 active torsions:
REMARK  status: ('A' for Active; 'I' for Inactive)
REMARK    1  A    between atoms: C_2  and  C_3 
REMARK    2  A    between atoms: C_2  and  N_10 
REMARK    3  A    between atoms: C_3  and  N_4 
REMARK       I    between atoms: N_10  and  C_11 
REMARK       I    between atoms: C_11  and  N_13 
REMARK    4  A    between atoms: N_13  and  C_14 
REMARK    5  A    between atoms: C_14  and  C_16 
ROOT
HETATM    1  N   UNL     1     -41.983 -48.383  10.182  1.00  0.00    -0.337 N 
HETATM    2  C   UNL     1     -42.018 -49.073  11.364  1.00  0.00     0.316 C 
HETATM    3  O   UNL     1     -42.714 -48.747  12.316  1.00  0.00    -0.247 OA
HETATM    4  N   UNL     1     -41.172 -50.152  11.353  1.00  0.00    -0.336 N 
HETATM    5  H   UNL     1     -41.179 -48.540   9.591  1.00  0.00     0.164 HD
HETATM    6  H   UNL     1     -41.000 -50.582  10.454  1.00  0.00     0.164 HD
ENDROOT
BRANCH   1   7
HETATM    7  C   UNL     1     -42.784 -47.168   9.980  1.00  0.00     0.102 C 
HETATM    8  C   UNL     1     -41.914 -45.938  10.240  1.00  0.00     0.034 C 
BRANCH   7   9
HETATM    9  C   UNL     1     -43.411 -47.166   8.575  1.00  0.00     0.172 C 
BRANCH   9  10
HETATM   10  N   UNL     1     -44.762 -47.692   8.537  1.00  0.00    -0.302 N 
HETATM   11  C   UNL     1     -45.746 -47.498   9.461  1.00  0.00     0.111 A 
HETATM   12  C   UNL     1     -46.833 -48.216   9.018  1.00  0.00     0.037 A 
HETATM   13  C   UNL     1     -46.399 -48.815   7.822  1.00  0.00     0.108 A 
HETATM   14  N   UNL     1     -45.135 -48.506   7.524  1.00  0.00    -0.310 N 
ATOM     15  HN  UNL     1     -44.582 -48.811   6.723  1.00  0.00     0.186 HD
ENDBRANCH   9  10
ENDBRANCH   7   9
ENDBRANCH   1   7
BRANCH   4  16
HETATM   16  C   UNL     1     -41.085 -51.050  12.505  1.00  0.00     0.111 C 
HETATM   17  C   UNL     1     -41.385 -52.488  12.071  1.00  0.00     0.035 C 
BRANCH  16  18
HETATM   18  C   UNL     1     -39.710 -50.972  13.197  1.00  0.00     0.143 C 
HETATM   19  C   UNL     1     -39.262 -49.570  13.608  1.00  0.00     0.036 C 
HETATM   20  C   UNL     1     -37.776 -49.540  13.302  1.00  0.00     0.029 C 
HETATM   21  C   UNL     1     -37.442 -50.964  12.919  1.00  0.00     0.168 C 
HETATM   22  O   UNL     1     -38.653 -51.485  12.362  1.00  0.00    -0.384 OA
ENDBRANCH  16  18
ENDBRANCH   4  16
TORSDOF 5
ENDMDL
MODEL 2
REMARK VINA RESULT:      -6.0      1.089      2.087
REMARK  5 active torsions:
REMARK  status: ('A' for Active; 'I' for Inactive)
REMARK    1  A    between atoms: C_2  and  C_3 
REMARK    2  A    between atoms: C_2  and  N_10 
REMARK    3  A    between atoms: C_3  and  N_4 
REMARK       I    between atoms: N_10  and  C_11 
REMARK       I    between atoms: C_11  and  N_13 
REMARK    4  A    between atoms: N_13  and  C_14 
REMARK    5  A    between atoms: C_14  and  C_16 
ROOT
HETATM    1  N   UNL     1     -41.640 -48.377   9.800  1.00  0.00    -0.337 N 
HETATM    2  C   UNL     1     -41.282 -49.014  10.958  1.00  0.00     0.316 C 
HETATM    3  O   UNL     1     -41.816 -48.802  12.037  1.00  0.00    -0.247 OA
HETATM    4  N   UNL     1     -40.250 -49.894  10.761  1.00  0.00    -0.336 N 
HETATM    5  H   UNL     1     -40.963 -48.388   9.050  1.00  0.00     0.164 HD
HETATM    6  H   UNL     1     -40.183 -50.314   9.843  1.00  0.00     0.164 HD
ENDROOT
BRANCH   1   7
HETATM    7  C   UNL     1     -42.702 -47.363   9.780  1.00  0.00     0.102 C 
HETATM    8  C   UNL     1     -42.113 -46.003  10.157  1.00  0.00     0.034 C 
BRANCH   7   9
HETATM    9  C   UNL     1     -43.403 -47.347   8.410  1.00  0.00     0.172 C 
BRANCH   9  10
HETATM   10  N   UNL     1     -44.779 -47.803   8.451  1.00  0.00    -0.302 N 
HETATM   11  C   UNL     1     -45.699 -47.554   9.428  1.00  0.00     0.111 A 
HETATM   12  C   UNL     1     -46.844 -48.217   9.052  1.00  0.00     0.037 A 
HETATM   13  C   UNL     1     -46.509 -48.843   7.837  1.00  0.00     0.108 A 
HETATM   14  N   UNL     1     -45.250 -48.600   7.467  1.00  0.00    -0.310 N 
ATOM     15  HN  UNL     1     -44.760 -48.937   6.638  1.00  0.00     0.186 HD
ENDBRANCH   9  10
ENDBRANCH   7   9
ENDBRANCH   1   7
BRANCH   4  16
HETATM   16  C   UNL     1     -39.737 -50.710  11.862  1.00  0.00     0.111 C 
HETATM   17  C   UNL     1     -39.225 -49.806  12.988  1.00  0.00     0.035 C 
BRANCH  16  18
HETATM   18  C   UNL     1     -40.798 -51.691  12.399  1.00  0.00     0.143 C 
HETATM   19  C   UNL     1     -41.005 -51.669  13.912  1.00  0.00     0.036 C 
HETATM   20  C   UNL     1     -41.195 -53.125  14.292  1.00  0.00     0.029 C 
HETATM   21  C   UNL     1     -41.269 -53.852  12.968  1.00  0.00     0.168 C 
HETATM   22  O   UNL     1     -40.484 -53.059  12.072  1.00  0.00    -0.384 OA
ENDBRANCH  16  18
ENDBRANCH   4  16
TORSDOF 5
ENDMDL
MODEL 3
REMARK VINA RESULT:      -5.9      2.178      4.253
REMARK  5 active torsions:
REMARK  status: ('A' for Active; 'I' for Inactive)
REMARK    1  A    between atoms: C_2  and  C_3 
REMARK    2  A    between atoms: C_2  and  N_10 
REMARK    3  A    between atoms: C_3  and  N_4 
REMARK       I    between atoms: N_10  and  C_11 
REMARK       I    between atoms: C_11  and  N_13 
REMARK    4  A    between atoms: N_13  and  C_14 
REMARK    5  A    between atoms: C_14  and  C_16 
ROOT
HETATM    1  N   UNL     1     -42.731 -48.474  10.384  1.00  0.00    -0.337 N 
HETATM    2  C   UNL     1     -41.612 -48.958  11.007  1.00  0.00     0.316 C 
HETATM    3  O   UNL     1     -40.514 -48.425  10.933  1.00  0.00    -0.247 OA
HETATM    4  N   UNL     1     -41.870 -50.112  11.701  1.00  0.00    -0.336 N 
HETATM    5  H   UNL     1     -43.492 -49.125  10.253  1.00  0.00     0.164 HD
HETATM    6  H   UNL     1     -42.808 -50.221  12.063  1.00  0.00     0.164 HD
ENDROOT
BRANCH   1   7
HETATM    7  C   UNL     1     -42.682 -47.264   9.553  1.00  0.00     0.102 C 
HETATM    8  C   UNL     1     -43.703 -47.384   8.421  1.00  0.00     0.034 C 
BRANCH   7   9
HETATM    9  C   UNL     1     -42.900 -46.010  10.418  1.00  0.00     0.172 C 
BRANCH   9  10
HETATM   10  N   UNL     1     -41.703 -45.212  10.604  1.00  0.00    -0.302 N 
HETATM   11  C   UNL     1     -41.603 -44.022  11.264  1.00  0.00     0.111 A 
HETATM   12  C   UNL     1     -40.289 -43.631  11.148  1.00  0.00     0.037 A 
HETATM   13  C   UNL     1     -39.681 -44.649  10.392  1.00  0.00     0.108 A 
HETATM   14  N   UNL     1     -40.537 -45.614  10.051  1.00  0.00    -0.310 N 
ATOM     15  HN  UNL     1     -40.355 -46.455   9.503  1.00  0.00     0.186 HD
ENDBRANCH   9  10
ENDBRANCH   7   9
ENDBRANCH   1   7
BRANCH   4  16
HETATM   16  C   UNL     1     -40.819 -50.776  12.473  1.00  0.00     0.111 C 
HETATM   17  C   UNL     1     -40.894 -50.341  13.940  1.00  0.00     0.035 C 
BRANCH  16  18
HETATM   18  C   UNL     1     -40.901 -52.311  12.361  1.00  0.00     0.143 C 
HETATM   19  C   UNL     1     -42.233 -52.929  12.779  1.00  0.00     0.036 C 
HETATM   20  C   UNL     1     -41.851 -54.198  13.517  1.00  0.00     0.029 C 
HETATM   21  C   UNL     1     -40.358 -54.315  13.312  1.00  0.00     0.168 C 
HETATM   22  O   UNL     1     -39.902 -52.966  13.167  1.00  0.00    -0.384 OA
ENDBRANCH  16  18
ENDBRANCH   4  16
TORSDOF 5
ENDMDL
MODEL 4
REMARK VINA RESULT:      -5.7      3.463      5.851
REMARK  5 active torsions:
REMARK  status: ('A' for Active; 'I' for Inactive)
REMARK    1  A    between atoms: C_2  and  C_3 
REMARK    2  A    between atoms: C_2  and  N_10 
REMARK    3  A    between atoms: C_3  and  N_4 
REMARK       I    between atoms: N_10  and  C_11 
REMARK       I    between atoms: C_11  and  N_13 
REMARK    4  A    between atoms: N_13  and  C_14 
REMARK    5  A    between atoms: C_14  and  C_16 
ROOT
HETATM    1  N   UNL     1     -42.152 -50.334  11.847  1.00  0.00    -0.337 N 
HETATM    2  C   UNL     1     -43.198 -50.287  12.729  1.00  0.00     0.316 C 
HETATM    3  O   UNL     1     -43.394 -49.354  13.495  1.00  0.00    -0.247 OA
HETATM    4  N   UNL     1     -43.978 -51.412  12.659  1.00  0.00    -0.336 N 
HETATM    5  H   UNL     1     -41.903 -51.245  11.489  1.00  0.00     0.164 HD
HETATM    6  H   UNL     1     -44.017 -51.880  11.763  1.00  0.00     0.164 HD
ENDROOT
BRANCH   1   7
HETATM    7  C   UNL     1     -41.164 -49.250  11.771  1.00  0.00     0.102 C 
HETATM    8  C   UNL     1     -39.766 -49.847  11.604  1.00  0.00     0.034 C 
BRANCH   7   9
HETATM    9  C   UNL     1     -41.529 -48.268  10.644  1.00  0.00     0.172 C 
BRANCH   9  10
HETATM   10  N   UNL     1     -41.141 -46.897  10.913  1.00  0.00    -0.302 N 
HETATM   11  C   UNL     1     -41.822 -45.982  11.662  1.00  0.00     0.111 A 
HETATM   12  C   UNL     1     -41.090 -44.819  11.602  1.00  0.00     0.037 A 
HETATM   13  C   UNL     1     -39.989 -45.134  10.784  1.00  0.00     0.108 A 
HETATM   14  N   UNL     1     -40.016 -46.397  10.355  1.00  0.00    -0.310 N 
ATOM     15  HN  UNL     1     -39.347 -46.873   9.750  1.00  0.00     0.186 HD
ENDBRANCH   9  10
ENDBRANCH   7   9
ENDBRANCH   1   7
BRANCH   4  16
HETATM   16  C   UNL     1     -45.174 -51.550  13.491  1.00  0.00     0.111 C 
HETATM   17  C   UNL     1     -46.431 -51.386  12.631  1.00  0.00     0.035 C 
BRANCH  16  18
HETATM   18  C   UNL     1     -45.206 -52.897  14.240  1.00  0.00     0.143 C 
HETATM   19  C   UNL     1     -44.557 -54.070  13.507  1.00  0.00     0.036 C 
HETATM   20  C   UNL     1     -45.466 -55.250  13.796  1.00  0.00     0.029 C 
HETATM   21  C   UNL     1     -46.455 -54.722  14.812  1.00  0.00     0.168 C 
HETATM   22  O   UNL     1     -46.551 -53.322  14.533  1.00  0.00    -0.384 OA
ENDBRANCH  16  18
ENDBRANCH   4  16
TORSDOF 5
ENDMDL
MODEL 5
REMARK VINA RESULT:      -5.6      2.613      3.801
REMARK  5 active torsions:
REMARK  status: ('A' for Active; 'I' for Inactive)
REMARK    1  A    between atoms: C_2  and  C_3 
REMARK    2  A    between atoms: C_2  and  N_10 
REMARK    3  A    between atoms: C_3  and  N_4 
REMARK       I    between atoms: N_10  and  C_11 
REMARK       I    between atoms: C_11  and  N_13 
REMARK    4  A    between atoms: N_13  and  C_14 
REMARK    5  A    between atoms: C_14  and  C_16 
ROOT
HETATM    1  N   UNL     1     -41.951 -49.967  11.728  1.00  0.00    -0.337 N 
HETATM    2  C   UNL     1     -42.715 -50.634  12.648  1.00  0.00     0.316 C 
HETATM    3  O   UNL     1     -43.269 -50.085  13.589  1.00  0.00    -0.247 OA
HETATM    4  N   UNL     1     -42.762 -51.980  12.395  1.00  0.00    -0.336 N 
HETATM    5  H   UNL     1     -41.304 -50.525  11.188  1.00  0.00     0.164 HD
HETATM    6  H   UNL     1     -42.672 -52.262  11.428  1.00  0.00     0.164 HD
ENDROOT
BRANCH   1   7
HETATM    7  C   UNL     1     -41.729 -48.518  11.821  1.00  0.00     0.102 C 
HETATM    8  C   UNL     1     -40.516 -48.246  12.712  1.00  0.00     0.034 C 
BRANCH   7   9
HETATM    9  C   UNL     1     -41.585 -47.905  10.417  1.00  0.00     0.172 C 
BRANCH   9  10
HETATM   10  N   UNL     1     -42.843 -47.750   9.714  1.00  0.00    -0.302 N 
HETATM   11  C   UNL     1     -44.054 -47.432  10.256  1.00  0.00     0.111 A 
HETATM   12  C   UNL     1     -44.951 -47.433   9.213  1.00  0.00     0.037 A 
HETATM   13  C   UNL     1     -44.183 -47.773   8.084  1.00  0.00     0.108 A 
HETATM   14  N   UNL     1     -42.898 -47.974   8.382  1.00  0.00    -0.310 N 
ATOM     15  HN  UNL     1     -42.138 -48.235   7.754  1.00  0.00     0.186 HD
ENDBRANCH   9  10
ENDBRANCH   7   9
ENDBRANCH   1   7
BRANCH   4  16
HETATM   16  C   UNL     1     -43.558 -52.875  13.237  1.00  0.00     0.111 C 
HETATM   17  C   UNL     1     -44.758 -53.407  12.447  1.00  0.00     0.035 C 
BRANCH  16  18
HETATM   18  C   UNL     1     -42.719 -54.042  13.794  1.00  0.00     0.143 C 
HETATM   19  C   UNL     1     -43.462 -54.993  14.731  1.00  0.00     0.036 C 
HETATM   20  C   UNL     1     -42.455 -55.322  15.817  1.00  0.00     0.029 C 
HETATM   21  C   UNL     1     -41.166 -54.696  15.336  1.00  0.00     0.168 C 
HETATM   22  O   UNL     1     -41.577 -53.579  14.541  1.00  0.00    -0.384 OA
ENDBRANCH  16  18
ENDBRANCH   4  16
TORSDOF 5
ENDMDL
MODEL 6
REMARK VINA RESULT:      -5.6      3.111      5.352
REMARK  5 active torsions:
REMARK  status: ('A' for Active; 'I' for Inactive)
REMARK    1  A    between atoms: C_2  and  C_3 
REMARK    2  A    between atoms: C_2  and  N_10 
REMARK    3  A    between atoms: C_3  and  N_4 
REMARK       I    between atoms: N_10  and  C_11 
REMARK       I    between atoms: C_11  and  N_13 
REMARK    4  A    between atoms: N_13  and  C_14 
REMARK    5  A    between atoms: C_14  and  C_16 
ROOT
HETATM    1  N   UNL     1     -43.690 -48.067  10.530  1.00  0.00    -0.337 N 
HETATM    2  C   UNL     1     -42.986 -48.714  11.510  1.00  0.00     0.316 C 
HETATM    3  O   UNL     1     -41.764 -48.766  11.541  1.00  0.00    -0.247 OA
HETATM    4  N   UNL     1     -43.813 -49.306  12.429  1.00  0.00    -0.336 N 
HETATM    5  H   UNL     1     -44.659 -48.331  10.421  1.00  0.00     0.164 HD
HETATM    6  H   UNL     1     -44.711 -48.866  12.578  1.00  0.00     0.164 HD
ENDROOT
BRANCH   1   7
HETATM    7  C   UNL     1     -43.010 -47.389   9.418  1.00  0.00     0.102 C 
HETATM    8  C   UNL     1     -43.737 -47.706   8.111  1.00  0.00     0.034 C 
BRANCH   7   9
HETATM    9  C   UNL     1     -42.909 -45.879   9.691  1.00  0.00     0.172 C 
BRANCH   9  10
HETATM   10  N   UNL     1     -41.687 -45.486  10.365  1.00  0.00    -0.302 N 
HETATM   11  C   UNL     1     -41.485 -44.361  11.111  1.00  0.00     0.111 A 
HETATM   12  C   UNL     1     -40.170 -44.401  11.514  1.00  0.00     0.037 A 
HETATM   13  C   UNL     1     -39.662 -45.587  10.951  1.00  0.00     0.108 A 
HETATM   14  N   UNL     1     -40.579 -46.250  10.245  1.00  0.00    -0.310 N 
ATOM     15  HN  UNL     1     -40.470 -47.127   9.734  1.00  0.00     0.186 HD
ENDBRANCH   9  10
ENDBRANCH   7   9
ENDBRANCH   1   7
BRANCH   4  16
HETATM   16  C   UNL     1     -43.265 -50.020  13.583  1.00  0.00     0.111 C 
HETATM   17  C   UNL     1     -42.839 -49.019  14.663  1.00  0.00     0.035 C 
BRANCH  16  18
HETATM   18  C   UNL     1     -44.264 -51.042  14.160  1.00  0.00     0.143 C 
HETATM   19  C   UNL     1     -45.480 -51.334  13.284  1.00  0.00     0.036 C 
HETATM   20  C   UNL     1     -46.635 -51.449  14.261  1.00  0.00     0.029 C 
HETATM   21  C   UNL     1     -45.981 -51.401  15.623  1.00  0.00     0.168 C 
HETATM   22  O   UNL     1     -44.796 -50.621  15.431  1.00  0.00    -0.384 OA
ENDBRANCH  16  18
ENDBRANCH   4  16
TORSDOF 5
ENDMDL
MODEL 7
REMARK VINA RESULT:      -5.4      3.849      6.042
REMARK  5 active torsions:
REMARK  status: ('A' for Active; 'I' for Inactive)
REMARK    1  A    between atoms: C_2  and  C_3 
REMARK    2  A    between atoms: C_2  and  N_10 
REMARK    3  A    between atoms: C_3  and  N_4 
REMARK       I    between atoms: N_10  and  C_11 
REMARK       I    between atoms: C_11  and  N_13 
REMARK    4  A    between atoms: N_13  and  C_14 
REMARK    5  A    between atoms: C_14  and  C_16 
ROOT
HETATM    1  N   UNL     1     -42.457 -51.471  12.488  1.00  0.00    -0.337 N 
HETATM    2  C   UNL     1     -43.664 -50.997  12.926  1.00  0.00     0.316 C 
HETATM    3  O   UNL     1     -43.794 -49.948  13.540  1.00  0.00    -0.247 OA
HETATM    4  N   UNL     1     -44.693 -51.846  12.610  1.00  0.00    -0.336 N 
HETATM    5  H   UNL     1     -42.410 -52.457  12.272  1.00  0.00     0.164 HD
HETATM    6  H   UNL     1     -44.578 -52.406  11.776  1.00  0.00     0.164 HD
ENDROOT
BRANCH   1   7
HETATM    7  C   UNL     1     -41.208 -50.743  12.745  1.00  0.00     0.102 C 
HETATM    8  C   UNL     1     -40.251 -51.638  13.534  1.00  0.00     0.034 C 
BRANCH   7   9
HETATM    9  C   UNL     1     -40.598 -50.239  11.426  1.00  0.00     0.172 C 
BRANCH   9  10
HETATM   10  N   UNL     1     -40.972 -48.878  11.090  1.00  0.00    -0.302 N 
HETATM   11  C   UNL     1     -40.332 -47.734  11.468  1.00  0.00     0.111 A 
HETATM   12  C   UNL     1     -41.067 -46.696  10.944  1.00  0.00     0.037 A 
HETATM   13  C   UNL     1     -42.136 -47.319  10.274  1.00  0.00     0.108 A 
HETATM   14  N   UNL     1     -42.088 -48.650  10.364  1.00  0.00    -0.310 N 
ATOM     15  HN  UNL     1     -42.739 -49.332   9.976  1.00  0.00     0.186 HD
ENDBRANCH   9  10
ENDBRANCH   7   9
ENDBRANCH   1   7
BRANCH   4  16
HETATM   16  C   UNL     1     -46.076 -51.510  12.953  1.00  0.00     0.111 C 
HETATM   17  C   UNL     1     -46.983 -51.724  11.737  1.00  0.00     0.035 C 
BRANCH  16  18
HETATM   18  C   UNL     1     -46.588 -52.325  14.157  1.00  0.00     0.143 C 
HETATM   19  C   UNL     1     -47.019 -51.501  15.369  1.00  0.00     0.036 C 
HETATM   20  C   UNL     1     -46.527 -52.296  16.564  1.00  0.00     0.029 C 
HETATM   21  C   UNL     1     -46.021 -53.591  15.971  1.00  0.00     0.168 C 
HETATM   22  O   UNL     1     -45.595 -53.245  14.649  1.00  0.00    -0.384 OA
ENDBRANCH  16  18
ENDBRANCH   4  16
TORSDOF 5
ENDMDL
MODEL 8
REMARK VINA RESULT:      -5.4      3.304      5.163
REMARK  5 active torsions:
REMARK  status: ('A' for Active; 'I' for Inactive)
REMARK    1  A    between atoms: C_2  and  C_3 
REMARK    2  A    between atoms: C_2  and  N_10 
REMARK    3  A    between atoms: C_3  and  N_4 
REMARK       I    between atoms: N_10  and  C_11 
REMARK       I    between atoms: C_11  and  N_13 
REMARK    4  A    between atoms: N_13  and  C_14 
REMARK    5  A    between atoms: C_14  and  C_16 
ROOT
HETATM    1  N   UNL     1     -42.652 -52.412  12.843  1.00  0.00    -0.337 N 
HETATM    2  C   UNL     1     -41.581 -51.953  12.124  1.00  0.00     0.316 C 
HETATM    3  O   UNL     1     -40.735 -52.684  11.630  1.00  0.00    -0.247 OA
HETATM    4  N   UNL     1     -41.567 -50.584  12.045  1.00  0.00    -0.336 N 
HETATM    5  H   UNL     1     -43.107 -51.747  13.452  1.00  0.00     0.164 HD
HETATM    6  H   UNL     1     -42.465 -50.120  12.078  1.00  0.00     0.164 HD
ENDROOT
BRANCH   1   7
HETATM    7  C   UNL     1     -42.851 -53.847  13.088  1.00  0.00     0.102 C 
HETATM    8  C   UNL     1     -42.300 -54.208  14.468  1.00  0.00     0.034 C 
BRANCH   7   9
HETATM    9  C   UNL     1     -44.335 -54.218  12.926  1.00  0.00     0.172 C 
BRANCH   9  10
HETATM   10  N   UNL     1     -45.243 -53.105  13.127  1.00  0.00    -0.302 N 
HETATM   11  C   UNL     1     -45.692 -52.616  14.320  1.00  0.00     0.111 A 
HETATM   12  C   UNL     1     -46.553 -51.589  14.011  1.00  0.00     0.037 A 
HETATM   13  C   UNL     1     -46.562 -51.544  12.605  1.00  0.00     0.108 A 
HETATM   14  N   UNL     1     -45.770 -52.468  12.058  1.00  0.00    -0.310 N 
ATOM     15  HN  UNL     1     -45.603 -52.651  11.069  1.00  0.00     0.186 HD
ENDBRANCH   9  10
ENDBRANCH   7   9
ENDBRANCH   1   7
BRANCH   4  16
HETATM   16  C   UNL     1     -40.528 -49.886  11.287  1.00  0.00     0.111 C 
HETATM   17  C   UNL     1     -41.102 -48.607  10.669  1.00  0.00     0.035 C 
BRANCH  16  18
HETATM   18  C   UNL     1     -39.298 -49.559  12.157  1.00  0.00     0.143 C 
HETATM   19  C   UNL     1     -38.052 -50.395  11.870  1.00  0.00     0.036 C 
HETATM   20  C   UNL     1     -37.454 -50.670  13.237  1.00  0.00     0.029 C 
HETATM   21  C   UNL     1     -38.280 -49.830  14.184  1.00  0.00     0.168 C 
HETATM   22  O   UNL     1     -39.566 -49.736  13.561  1.00  0.00    -0.384 OA
ENDBRANCH  16  18
ENDBRANCH   4  16
TORSDOF 5
ENDMDL
MODEL 9
REMARK VINA RESULT:      -5.4      2.689      7.486
REMARK  5 active torsions:
REMARK  status: ('A' for Active; 'I' for Inactive)
REMARK    1  A    between atoms: C_2  and  C_3 
REMARK    2  A    between atoms: C_2  and  N_10 
REMARK    3  A    between atoms: C_3  and  N_4 
REMARK       I    between atoms: N_10  and  C_11 
REMARK       I    between atoms: C_11  and  N_13 
REMARK    4  A    between atoms: N_13  and  C_14 
REMARK    5  A    between atoms: C_14  and  C_16 
ROOT
HETATM    1  N   UNL     1     -42.023 -51.233  11.784  1.00  0.00    -0.337 N 
HETATM    2  C   UNL     1     -42.004 -49.939  12.232  1.00  0.00     0.316 C 
HETATM    3  O   UNL     1     -41.963 -49.635  13.416  1.00  0.00    -0.247 OA
HETATM    4  N   UNL     1     -42.056 -49.038  11.200  1.00  0.00    -0.336 N 
HETATM    5  H   UNL     1     -42.358 -51.380  10.842  1.00  0.00     0.164 HD
HETATM    6  H   UNL     1     -41.655 -49.336  10.320  1.00  0.00     0.164 HD
ENDROOT
BRANCH   1   7
HETATM    7  C   UNL     1     -42.010 -52.367  12.717  1.00  0.00     0.102 C 
HETATM    8  C   UNL     1     -43.325 -53.139  12.594  1.00  0.00     0.034 C 
BRANCH   7   9
HETATM    9  C   UNL     1     -40.777 -53.252  12.469  1.00  0.00     0.172 C 
BRANCH   9  10
HETATM   10  N   UNL     1     -40.136 -53.717  13.685  1.00  0.00    -0.302 N 
HETATM   11  C   UNL     1     -40.256 -53.180  14.934  1.00  0.00     0.111 A 
HETATM   12  C   UNL     1     -39.442 -53.930  15.751  1.00  0.00     0.037 A 
HETATM   13  C   UNL     1     -38.868 -54.889  14.897  1.00  0.00     0.108 A 
HETATM   14  N   UNL     1     -39.281 -54.762  13.634  1.00  0.00    -0.310 N 
ATOM     15  HN  UNL     1     -39.015 -55.321  12.823  1.00  0.00     0.186 HD
ENDBRANCH   9  10
ENDBRANCH   7   9
ENDBRANCH   1   7
BRANCH   4  16
HETATM   16  C   UNL     1     -42.007 -47.598  11.455  1.00  0.00     0.111 C 
HETATM   17  C   UNL     1     -40.657 -47.032  11.004  1.00  0.00     0.035 C 
BRANCH  16  18
HETATM   18  C   UNL     1     -43.164 -46.848  10.766  1.00  0.00     0.143 C 
HETATM   19  C   UNL     1     -44.300 -47.729  10.250  1.00  0.00     0.036 C 
HETATM   20  C   UNL     1     -44.691 -47.108   8.922  1.00  0.00     0.029 C 
HETATM   21  C   UNL     1     -43.892 -45.826   8.858  1.00  0.00     0.168 C 
HETATM   22  O   UNL     1     -42.714 -46.092   9.625  1.00  0.00    -0.384 OA
ENDBRANCH  16  18
ENDBRANCH   4  16
TORSDOF 5
ENDMDL
