MODEL 1
REMARK VINA RESULT:      -6.4      0.000      0.000
REMARK  5 active torsions:
REMARK  status: ('A' for Active; 'I' for Inactive)
REMARK    1  A    between atoms: N_4  and  C_5 
REMARK    2  A    between atoms: C_5  and  C_6 
REMARK    3  A    between atoms: C_6  and  C_7 
REMARK    4  A    between atoms: C_7  and  N_8 
REMARK       I    between atoms: N_8  and  C_9 
REMARK       I    between atoms: C_9  and  N_11 
REMARK    5  A    between atoms: N_11  and  C_12 
ROOT
HETATM    1  N   UNL     1     -41.081 -51.448  11.353  1.00  0.00    -0.343 N 
HETATM    2  C   UNL     1     -41.904 -51.885  12.373  1.00  0.00     0.320 C 
HETATM    3  O   UNL     1     -41.782 -51.479  13.522  1.00  0.00    -0.247 OA
HETATM    4  N   UNL     1     -42.817 -52.811  11.922  1.00  0.00    -0.308 N 
HETATM    5  H   UNL     1     -41.523 -51.415  10.446  1.00  0.00     0.164 HD
HETATM    6  H   UNL     1     -42.573 -53.280  11.061  1.00  0.00     0.170 HD
ENDROOT
BRANCH   1   7
HETATM    7  C   UNL     1     -40.125 -50.409  11.681  1.00  0.00     0.126 C 
BRANCH   7   8
HETATM    8  C   UNL     1     -40.551 -49.016  11.245  1.00  0.00     0.050 C 
BRANCH   8   9
HETATM    9  C   UNL     1     -40.807 -48.095  12.444  1.00  0.00     0.274 C 
BRANCH   9  10
HETATM   10  N   UNL     1     -40.934 -46.681  12.068  1.00  0.00     0.093 N 
HETATM   11  C   UNL     1     -42.273 -46.358  11.528  1.00  0.00     0.303 C 
HETATM   12  C   UNL     1     -42.379 -44.880  11.104  1.00  0.00     0.146 C 
HETATM   13  C   UNL     1     -42.353 -43.924  12.296  1.00  0.00     0.041 C 
HETATM   14  O   UNL     1     -41.369 -44.548  10.137  1.00  0.00    -0.378 OA
HETATM   15  C   UNL     1     -40.044 -44.864  10.591  1.00  0.00     0.146 C 
HETATM   16  C   UNL     1     -39.934 -46.340  11.030  1.00  0.00     0.303 C 
HETATM   17  C   UNL     1     -39.089 -44.571   9.442  1.00  0.00     0.041 C 
ENDBRANCH   9  10
ENDBRANCH   8   9
ENDBRANCH   7   8
ENDBRANCH   1   7
BRANCH   4  18
HETATM   18  C   UNL     1     -43.824 -53.396  12.716  1.00  0.00     0.051 A 
HETATM   19  C   UNL     1     -43.579 -54.420  13.632  1.00  0.00     0.032 A 
HETATM   20  C   UNL     1     -44.636 -54.991  14.337  1.00  0.00     0.019 A 
HETATM   21  C   UNL     1     -45.910 -54.497  14.124  1.00  0.00     0.088 A 
HETATM   22  N   UNL     1     -46.188 -53.477  13.283  1.00  0.00    -0.373 N 
HETATM   23  C   UNL     1     -45.138 -52.950  12.605  1.00  0.00     0.117 A 
ATOM     24  HN  UNL     1     -47.137 -53.122  13.164  1.00  0.00     0.164 HD
ENDBRANCH   4  18
TORSDOF 5
ENDMDL
MODEL 2
REMARK VINA RESULT:      -6.3      1.879      8.130
REMARK  5 active torsions:
REMARK  status: ('A' for Active; 'I' for Inactive)
REMARK    1  A    between atoms: N_4  and  C_5 
REMARK    2  A    between atoms: C_5  and  C_6 
REMARK    3  A    between atoms: C_6  and  C_7 
REMARK    4  A    between atoms: C_7  and  N_8 
REMARK       I    between atoms: N_8  and  C_9 
REMARK       I    between atoms: C_9  and  N_11 
REMARK    5  A    between atoms: N_11  and  C_12 
ROOT
HETATM    1  N   UNL     1     -40.682 -50.030  10.853  1.00  0.00    -0.343 N 
HETATM    2  C   UNL     1     -40.844 -48.762  11.378  1.00  0.00     0.320 C 
HETATM    3  O   UNL     1     -40.803 -48.551  12.584  1.00  0.00    -0.247 OA
HETATM    4  N   UNL     1     -41.067 -47.832  10.389  1.00  0.00    -0.308 N 
HETATM    5  H   UNL     1     -40.243 -50.051   9.943  1.00  0.00     0.164 HD
HETATM    6  H   UNL     1     -41.405 -48.201   9.510  1.00  0.00     0.170 HD
ENDROOT
BRANCH   1   7
HETATM    7  C   UNL     1     -40.361 -51.091  11.787  1.00  0.00     0.126 C 
BRANCH   7   8
HETATM    8  C   UNL     1     -41.487 -52.090  12.000  1.00  0.00     0.050 C 
BRANCH   8   9
HETATM    9  C   UNL     1     -42.419 -51.665  13.141  1.00  0.00     0.274 C 
BRANCH   9  10
HETATM   10  N   UNL     1     -43.806 -52.110  12.948  1.00  0.00     0.093 N 
HETATM   11  C   UNL     1     -44.776 -51.266  13.678  1.00  0.00     0.303 C 
HETATM   12  C   UNL     1     -46.223 -51.768  13.496  1.00  0.00     0.146 C 
HETATM   13  C   UNL     1     -46.738 -51.568  12.071  1.00  0.00     0.041 C 
HETATM   14  O   UNL     1     -46.351 -53.135  13.919  1.00  0.00    -0.378 OA
HETATM   15  C   UNL     1     -45.413 -54.005  13.266  1.00  0.00     0.146 C 
HETATM   16  C   UNL     1     -43.963 -53.501  13.433  1.00  0.00     0.303 C 
HETATM   17  C   UNL     1     -45.577 -55.390  13.879  1.00  0.00     0.041 C 
ENDBRANCH   9  10
ENDBRANCH   8   9
ENDBRANCH   7   8
ENDBRANCH   1   7
BRANCH   4  18
HETATM   18  C   UNL     1     -41.214 -46.447  10.609  1.00  0.00     0.051 A 
HETATM   19  C   UNL     1     -40.141 -45.555  10.624  1.00  0.00     0.032 A 
HETATM   20  C   UNL     1     -40.357 -44.209  10.909  1.00  0.00     0.019 A 
HETATM   21  C   UNL     1     -41.654 -43.788  11.141  1.00  0.00     0.088 A 
HETATM   22  N   UNL     1     -42.728 -44.606  11.091  1.00  0.00    -0.373 N 
HETATM   23  C   UNL     1     -42.481 -45.911  10.821  1.00  0.00     0.117 A 
ATOM     24  HN  UNL     1     -43.675 -44.260  11.247  1.00  0.00     0.164 HD
ENDBRANCH   4  18
TORSDOF 5
ENDMDL
MODEL 3
REMARK VINA RESULT:      -6.3      1.303      2.161
REMARK  5 active torsions:
REMARK  status: ('A' for Active; 'I' for Inactive)
REMARK    1  A    between atoms: N_4  and  C_5 
REMARK    2  A    between atoms: C_5  and  C_6 
REMARK    3  A    between atoms: C_6  and  C_7 
REMARK    4  A    between atoms: C_7  and  N_8 
REMARK       I    between atoms: N_8  and  C_9 
REMARK       I    between atoms: C_9  and  N_11 
REMARK    5  A    between atoms: N_11  and  C_12 
ROOT
HETATM    1  N   UNL     1     -41.419 -51.774  11.619  1.00  0.00    -0.343 N 
HETATM    2  C   UNL     1     -42.352 -51.919  12.627  1.00  0.00     0.320 C 
HETATM    3  O   UNL     1     -42.088 -51.668  13.797  1.00  0.00    -0.247 OA
HETATM    4  N   UNL     1     -43.551 -52.385  12.139  1.00  0.00    -0.308 N 
HETATM    5  H   UNL     1     -41.808 -51.513  10.725  1.00  0.00     0.164 HD
HETATM    6  H   UNL     1     -43.506 -52.856  11.246  1.00  0.00     0.170 HD
ENDROOT
BRANCH   1   7
HETATM    7  C   UNL     1     -40.135 -51.213  11.991  1.00  0.00     0.126 C 
BRANCH   7   8
HETATM    8  C   UNL     1     -39.871 -49.832  11.411  1.00  0.00     0.050 C 
BRANCH   8   9
HETATM    9  C   UNL     1     -40.869 -48.793  11.934  1.00  0.00     0.274 C 
BRANCH   9  10
HETATM   10  N   UNL     1     -40.917 -47.575  11.114  1.00  0.00     0.093 N 
HETATM   11  C   UNL     1     -40.646 -46.353  11.901  1.00  0.00     0.303 C 
HETATM   12  C   UNL     1     -40.737 -45.080  11.034  1.00  0.00     0.146 C 
HETATM   13  C   UNL     1     -39.599 -44.981  10.018  1.00  0.00     0.041 C 
HETATM   14  O   UNL     1     -42.023 -44.979  10.402  1.00  0.00    -0.378 OA
HETATM   15  C   UNL     1     -42.359 -46.151   9.642  1.00  0.00     0.146 C 
HETATM   16  C   UNL     1     -42.257 -47.430  10.500  1.00  0.00     0.303 C 
HETATM   17  C   UNL     1     -43.777 -45.961   9.120  1.00  0.00     0.041 C 
ENDBRANCH   9  10
ENDBRANCH   8   9
ENDBRANCH   7   8
ENDBRANCH   1   7
BRANCH   4  18
HETATM   18  C   UNL     1     -44.712 -52.582  12.916  1.00  0.00     0.051 A 
HETATM   19  C   UNL     1     -45.531 -51.538  13.347  1.00  0.00     0.032 A 
HETATM   20  C   UNL     1     -46.627 -51.803  14.163  1.00  0.00     0.019 A 
HETATM   21  C   UNL     1     -46.890 -53.119  14.501  1.00  0.00     0.088 A 
HETATM   22  N   UNL     1     -46.152 -54.165  14.069  1.00  0.00    -0.373 N 
HETATM   23  C   UNL     1     -45.087 -53.870  13.285  1.00  0.00     0.117 A 
ATOM     24  HN  UNL     1     -46.385 -55.126  14.320  1.00  0.00     0.164 HD
ENDBRANCH   4  18
TORSDOF 5
ENDMDL
MODEL 4
REMARK VINA RESULT:      -6.2      1.845      8.210
REMARK  5 active torsions:
REMARK  status: ('A' for Active; 'I' for Inactive)
REMARK    1  A    between atoms: N_4  and  C_5 
REMARK    2  A    between atoms: C_5  and  C_6 
REMARK    3  A    between atoms: C_6  and  C_7 
REMARK    4  A    between atoms: C_7  and  N_8 
REMARK       I    between atoms: N_8  and  C_9 
REMARK       I    between atoms: C_9  and  N_11 
REMARK    5  A    between atoms: N_11  and  C_12 
ROOT
HETATM    1  N   UNL     1     -40.458 -49.541  10.831  1.00  0.00    -0.343 N 
HETATM    2  C   UNL     1     -40.723 -48.302  11.381  1.00  0.00     0.320 C 
HETATM    3  O   UNL     1     -40.752 -48.124  12.593  1.00  0.00    -0.247 OA
HETATM    4  N   UNL     1     -40.957 -47.358  10.408  1.00  0.00    -0.308 N 
HETATM    5  H   UNL     1     -39.977 -49.509   9.944  1.00  0.00     0.164 HD
HETATM    6  H   UNL     1     -41.230 -47.721   9.504  1.00  0.00     0.170 HD
ENDROOT
BRANCH   1   7
HETATM    7  C   UNL     1     -40.115 -50.607  11.751  1.00  0.00     0.126 C 
BRANCH   7   8
HETATM    8  C   UNL     1     -41.234 -51.611  11.981  1.00  0.00     0.050 C 
BRANCH   8   9
HETATM    9  C   UNL     1     -41.771 -51.550  13.415  1.00  0.00     0.274 C 
BRANCH   9  10
HETATM   10  N   UNL     1     -43.009 -52.319  13.601  1.00  0.00     0.093 N 
HETATM   11  C   UNL     1     -43.005 -53.589  12.844  1.00  0.00     0.303 C 
HETATM   12  C   UNL     1     -44.325 -54.366  13.019  1.00  0.00     0.146 C 
HETATM   13  C   UNL     1     -44.498 -54.918  14.434  1.00  0.00     0.041 C 
HETATM   14  O   UNL     1     -45.450 -53.565  12.621  1.00  0.00    -0.378 OA
HETATM   15  C   UNL     1     -45.497 -52.301  13.302  1.00  0.00     0.146 C 
HETATM   16  C   UNL     1     -44.172 -51.524  13.143  1.00  0.00     0.303 C 
HETATM   17  C   UNL     1     -46.660 -51.513  12.715  1.00  0.00     0.041 C 
ENDBRANCH   9  10
ENDBRANCH   8   9
ENDBRANCH   7   8
ENDBRANCH   1   7
BRANCH   4  18
HETATM   18  C   UNL     1     -41.201 -45.992  10.657  1.00  0.00     0.051 A 
HETATM   19  C   UNL     1     -40.190 -45.032  10.715  1.00  0.00     0.032 A 
HETATM   20  C   UNL     1     -40.501 -43.711  11.027  1.00  0.00     0.019 A 
HETATM   21  C   UNL     1     -41.827 -43.382  11.242  1.00  0.00     0.088 A 
HETATM   22  N   UNL     1     -42.844 -44.268  11.150  1.00  0.00    -0.373 N 
HETATM   23  C   UNL     1     -42.505 -45.547  10.855  1.00  0.00     0.117 A 
ATOM     24  HN  UNL     1     -43.814 -43.989  11.295  1.00  0.00     0.164 HD
ENDBRANCH   4  18
TORSDOF 5
ENDMDL
MODEL 5
REMARK VINA RESULT:      -6.0      2.953      7.191
REMARK  5 active torsions:
REMARK  status: ('A' for Active; 'I' for Inactive)
REMARK    1  A    between atoms: N_4  and  C_5 
REMARK    2  A    between atoms: C_5  and  C_6 
REMARK    3  A    between atoms: C_6  and  C_7 
REMARK    4  A    between atoms: C_7  and  N_8 
REMARK       I    between atoms: N_8  and  C_9 
REMARK       I    between atoms: C_9  and  N_11 
REMARK    5  A    between atoms: N_11  and  C_12 
ROOT
HETATM    1  N   UNL     1     -41.346 -52.844  13.963  1.00  0.00    -0.343 N 
HETATM    2  C   UNL     1     -41.744 -52.079  12.884  1.00  0.00     0.320 C 
HETATM    3  O   UNL     1     -42.237 -52.580  11.881  1.00  0.00    -0.247 OA
HETATM    4  N   UNL     1     -41.493 -50.742  13.095  1.00  0.00    -0.308 N 
HETATM    5  H   UNL     1     -41.436 -52.382  14.857  1.00  0.00     0.164 HD
HETATM    6  H   UNL     1     -40.794 -50.534  13.794  1.00  0.00     0.170 HD
ENDROOT
BRANCH   1   7
HETATM    7  C   UNL     1     -41.629 -54.264  13.900  1.00  0.00     0.126 C 
BRANCH   7   8
HETATM    8  C   UNL     1     -42.655 -54.737  14.918  1.00  0.00     0.050 C 
BRANCH   8   9
HETATM    9  C   UNL     1     -44.080 -54.696  14.355  1.00  0.00     0.274 C 
BRANCH   9  10
HETATM   10  N   UNL     1     -44.659 -53.345  14.348  1.00  0.00     0.093 N 
HETATM   11  C   UNL     1     -45.564 -53.112  15.494  1.00  0.00     0.303 C 
HETATM   12  C   UNL     1     -46.192 -51.704  15.451  1.00  0.00     0.146 C 
HETATM   13  C   UNL     1     -45.169 -50.598  15.710  1.00  0.00     0.041 C 
HETATM   14  O   UNL     1     -46.900 -51.493  14.219  1.00  0.00    -0.378 OA
HETATM   15  C   UNL     1     -46.081 -51.732  13.063  1.00  0.00     0.146 C 
HETATM   16  C   UNL     1     -45.438 -53.135  13.106  1.00  0.00     0.303 C 
HETATM   17  C   UNL     1     -46.973 -51.584  11.838  1.00  0.00     0.041 C 
ENDBRANCH   9  10
ENDBRANCH   8   9
ENDBRANCH   7   8
ENDBRANCH   1   7
BRANCH   4  18
HETATM   18  C   UNL     1     -41.839 -49.710  12.198  1.00  0.00     0.051 A 
HETATM   19  C   UNL     1     -42.988 -48.931  12.334  1.00  0.00     0.032 A 
HETATM   20  C   UNL     1     -43.295 -47.970  11.374  1.00  0.00     0.019 A 
HETATM   21  C   UNL     1     -42.421 -47.796  10.316  1.00  0.00     0.088 A 
HETATM   22  N   UNL     1     -41.274 -48.494  10.169  1.00  0.00    -0.373 N 
HETATM   23  C   UNL     1     -41.010 -49.428  11.115  1.00  0.00     0.117 A 
ATOM     24  HN  UNL     1     -40.640 -48.327   9.387  1.00  0.00     0.164 HD
ENDBRANCH   4  18
TORSDOF 5
ENDMDL
MODEL 6
REMARK VINA RESULT:      -6.0      2.500      8.339
REMARK  5 active torsions:
REMARK  status: ('A' for Active; 'I' for Inactive)
REMARK    1  A    between atoms: N_4  and  C_5 
REMARK    2  A    between atoms: C_5  and  C_6 
REMARK    3  A    between atoms: C_6  and  C_7 
REMARK    4  A    between atoms: C_7  and  N_8 
REMARK       I    between atoms: N_8  and  C_9 
REMARK       I    between atoms: C_9  and  N_11 
REMARK    5  A    between atoms: N_11  and  C_12 
ROOT
HETATM    1  N   UNL     1     -40.505 -50.097  10.878  1.00  0.00    -0.343 N 
HETATM    2  C   UNL     1     -41.515 -49.161  10.997  1.00  0.00     0.320 C 
HETATM    3  O   UNL     1     -42.152 -49.024  12.035  1.00  0.00    -0.247 OA
HETATM    4  N   UNL     1     -41.696 -48.463   9.825  1.00  0.00    -0.308 N 
HETATM    5  H   UNL     1     -39.757 -49.824  10.257  1.00  0.00     0.164 HD
HETATM    6  H   UNL     1     -41.345 -48.913   8.990  1.00  0.00     0.170 HD
ENDROOT
BRANCH   1   7
HETATM    7  C   UNL     1     -40.161 -50.845  12.071  1.00  0.00     0.126 C 
BRANCH   7   8
HETATM    8  C   UNL     1     -40.880 -52.180  12.193  1.00  0.00     0.050 C 
BRANCH   8   9
HETATM    9  C   UNL     1     -40.728 -52.784  13.594  1.00  0.00     0.274 C 
BRANCH   9  10
HETATM   10  N   UNL     1     -41.838 -53.674  13.962  1.00  0.00     0.093 N 
HETATM   11  C   UNL     1     -43.041 -52.929  14.392  1.00  0.00     0.303 C 
HETATM   12  C   UNL     1     -44.183 -53.877  14.810  1.00  0.00     0.146 C 
HETATM   13  C   UNL     1     -44.772 -54.643  13.625  1.00  0.00     0.041 C 
HETATM   14  O   UNL     1     -43.758 -54.764  15.857  1.00  0.00    -0.378 OA
HETATM   15  C   UNL     1     -42.573 -55.499  15.512  1.00  0.00     0.146 C 
HETATM   16  C   UNL     1     -41.430 -54.557  15.079  1.00  0.00     0.303 C 
HETATM   17  C   UNL     1     -42.171 -56.310  16.736  1.00  0.00     0.041 C 
ENDBRANCH   9  10
ENDBRANCH   8   9
ENDBRANCH   7   8
ENDBRANCH   1   7
BRANCH   4  18
HETATM   18  C   UNL     1     -42.615 -47.407   9.654  1.00  0.00     0.051 A 
HETATM   19  C   UNL     1     -43.795 -47.530   8.922  1.00  0.00     0.032 A 
HETATM   20  C   UNL     1     -44.624 -46.425   8.745  1.00  0.00     0.019 A 
HETATM   21  C   UNL     1     -44.258 -45.229   9.337  1.00  0.00     0.088 A 
HETATM   22  N   UNL     1     -43.149 -45.076  10.093  1.00  0.00    -0.373 N 
HETATM   23  C   UNL     1     -42.360 -46.168  10.236  1.00  0.00     0.117 A 
ATOM     24  HN  UNL     1     -42.918 -44.184  10.532  1.00  0.00     0.164 HD
ENDBRANCH   4  18
TORSDOF 5
ENDMDL
MODEL 7
REMARK VINA RESULT:      -6.0      2.061      8.764
REMARK  5 active torsions:
REMARK  status: ('A' for Active; 'I' for Inactive)
REMARK    1  A    between atoms: N_4  and  C_5 
REMARK    2  A    between atoms: C_5  and  C_6 
REMARK    3  A    between atoms: C_6  and  C_7 
REMARK    4  A    between atoms: C_7  and  N_8 
REMARK       I    between atoms: N_8  and  C_9 
REMARK       I    between atoms: C_9  and  N_11 
REMARK    5  A    between atoms: N_11  and  C_12 
ROOT
HETATM    1  N   UNL     1     -40.638 -49.703  10.809  1.00  0.00    -0.343 N 
HETATM    2  C   UNL     1     -40.827 -48.451  11.362  1.00  0.00     0.320 C 
HETATM    3  O   UNL     1     -40.821 -48.270  12.573  1.00  0.00    -0.247 OA
HETATM    4  N   UNL     1     -41.033 -47.498  10.391  1.00  0.00    -0.308 N 
HETATM    5  H   UNL     1     -40.175 -49.696   9.911  1.00  0.00     0.164 HD
HETATM    6  H   UNL     1     -41.344 -47.847   9.494  1.00  0.00     0.170 HD
ENDROOT
BRANCH   1   7
HETATM    7  C   UNL     1     -40.331 -50.784  11.724  1.00  0.00     0.126 C 
BRANCH   7   8
HETATM    8  C   UNL     1     -41.486 -51.746  11.957  1.00  0.00     0.050 C 
BRANCH   8   9
HETATM    9  C   UNL     1     -41.024 -53.042  12.631  1.00  0.00     0.274 C 
BRANCH   9  10
HETATM   10  N   UNL     1     -41.899 -53.464  13.733  1.00  0.00     0.093 N 
HETATM   11  C   UNL     1     -41.300 -54.541  14.550  1.00  0.00     0.303 C 
HETATM   12  C   UNL     1     -42.247 -54.998  15.679  1.00  0.00     0.146 C 
HETATM   13  C   UNL     1     -42.426 -53.933  16.760  1.00  0.00     0.041 C 
HETATM   14  O   UNL     1     -43.510 -55.432  15.148  1.00  0.00    -0.378 OA
HETATM   15  C   UNL     1     -44.132 -54.438  14.318  1.00  0.00     0.146 C 
HETATM   16  C   UNL     1     -43.185 -53.966  13.194  1.00  0.00     0.303 C 
HETATM   17  C   UNL     1     -45.394 -55.059  13.736  1.00  0.00     0.041 C 
ENDBRANCH   9  10
ENDBRANCH   8   9
ENDBRANCH   7   8
ENDBRANCH   1   7
BRANCH   4  18
HETATM   18  C   UNL     1     -41.200 -46.120  10.642  1.00  0.00     0.051 A 
HETATM   19  C   UNL     1     -40.135 -45.226  10.746  1.00  0.00     0.032 A 
HETATM   20  C   UNL     1     -40.375 -43.890  11.056  1.00  0.00     0.019 A 
HETATM   21  C   UNL     1     -41.685 -43.480  11.225  1.00  0.00     0.088 A 
HETATM   22  N   UNL     1     -42.750 -44.300  11.088  1.00  0.00    -0.373 N 
HETATM   23  C   UNL     1     -42.481 -45.596  10.795  1.00  0.00     0.117 A 
ATOM     24  HN  UNL     1     -43.706 -43.962  11.199  1.00  0.00     0.164 HD
ENDBRANCH   4  18
TORSDOF 5
ENDMDL
MODEL 8
REMARK VINA RESULT:      -5.5      2.256      8.454
REMARK  5 active torsions:
REMARK  status: ('A' for Active; 'I' for Inactive)
REMARK    1  A    between atoms: N_4  and  C_5 
REMARK    2  A    between atoms: C_5  and  C_6 
REMARK    3  A    between atoms: C_6  and  C_7 
REMARK    4  A    between atoms: C_7  and  N_8 
REMARK       I    between atoms: N_8  and  C_9 
REMARK       I    between atoms: C_9  and  N_11 
REMARK    5  A    between atoms: N_11  and  C_12 
ROOT
HETATM    1  N   UNL     1     -40.641 -51.464  11.460  1.00  0.00    -0.343 N 
HETATM    2  C   UNL     1     -41.109 -50.189  11.713  1.00  0.00     0.320 C 
HETATM    3  O   UNL     1     -41.479 -49.844  12.829  1.00  0.00    -0.247 OA
HETATM    4  N   UNL     1     -41.115 -49.419  10.572  1.00  0.00    -0.308 N 
HETATM    5  H   UNL     1     -39.937 -51.513  10.737  1.00  0.00     0.164 HD
HETATM    6  H   UNL     1     -41.111 -49.931   9.700  1.00  0.00     0.170 HD
ENDROOT
BRANCH   1   7
HETATM    7  C   UNL     1     -40.509 -52.352  12.598  1.00  0.00     0.126 C 
BRANCH   7   8
HETATM    8  C   UNL     1     -41.555 -53.454  12.648  1.00  0.00     0.050 C 
BRANCH   8   9
HETATM    9  C   UNL     1     -41.484 -54.251  13.956  1.00  0.00     0.274 C 
BRANCH   9  10
HETATM   10  N   UNL     1     -42.588 -53.947  14.876  1.00  0.00     0.093 N 
HETATM   11  C   UNL     1     -42.459 -54.657  16.167  1.00  0.00     0.303 C 
HETATM   12  C   UNL     1     -43.644 -54.357  17.107  1.00  0.00     0.146 C 
HETATM   13  C   UNL     1     -43.641 -52.914  17.613  1.00  0.00     0.041 C 
HETATM   14  O   UNL     1     -44.894 -54.698  16.485  1.00  0.00    -0.378 OA
HETATM   15  C   UNL     1     -45.069 -54.061  15.210  1.00  0.00     0.146 C 
HETATM   16  C   UNL     1     -43.879 -54.346  14.268  1.00  0.00     0.303 C 
HETATM   17  C   UNL     1     -46.367 -54.588  14.614  1.00  0.00     0.041 C 
ENDBRANCH   9  10
ENDBRANCH   8   9
ENDBRANCH   7   8
ENDBRANCH   1   7
BRANCH   4  18
HETATM   18  C   UNL     1     -41.488 -48.060  10.523  1.00  0.00     0.051 A 
HETATM   19  C   UNL     1     -42.657 -47.608   9.913  1.00  0.00     0.032 A 
HETATM   20  C   UNL     1     -42.928 -46.243   9.851  1.00  0.00     0.019 A 
HETATM   21  C   UNL     1     -42.029 -45.369  10.433  1.00  0.00     0.088 A 
HETATM   22  N   UNL     1     -40.908 -45.764  11.075  1.00  0.00    -0.373 N 
HETATM   23  C   UNL     1     -40.670 -47.098  11.109  1.00  0.00     0.117 A 
ATOM     24  HN  UNL     1     -40.275 -45.094  11.513  1.00  0.00     0.164 HD
ENDBRANCH   4  18
TORSDOF 5
ENDMDL
MODEL 9
REMARK VINA RESULT:      -5.3      3.783      6.266
REMARK  5 active torsions:
REMARK  status: ('A' for Active; 'I' for Inactive)
REMARK    1  A    between atoms: N_4  and  C_5 
REMARK    2  A    between atoms: C_5  and  C_6 
REMARK    3  A    between atoms: C_6  and  C_7 
REMARK    4  A    between atoms: C_7  and  N_8 
REMARK       I    between atoms: N_8  and  C_9 
REMARK       I    between atoms: C_9  and  N_11 
REMARK    5  A    between atoms: N_11  and  C_12 
ROOT
HETATM    1  N   UNL     1     -42.903 -46.355  13.036  1.00  0.00    -0.343 N 
HETATM    2  C   UNL     1     -43.211 -47.253  12.032  1.00  0.00     0.320 C 
HETATM    3  O   UNL     1     -43.153 -48.464  12.207  1.00  0.00    -0.247 OA
HETATM    4  N   UNL     1     -43.553 -46.607  10.866  1.00  0.00    -0.308 N 
HETATM    5  H   UNL     1     -43.425 -45.491  12.996  1.00  0.00     0.164 HD
HETATM    6  H   UNL     1     -43.229 -45.653  10.784  1.00  0.00     0.170 HD
ENDROOT
BRANCH   1   7
HETATM    7  C   UNL     1     -42.602 -46.908  14.342  1.00  0.00     0.126 C 
BRANCH   7   8
HETATM    8  C   UNL     1     -41.116 -46.987  14.653  1.00  0.00     0.050 C 
BRANCH   8   9
HETATM    9  C   UNL     1     -40.705 -48.388  15.123  1.00  0.00     0.274 C 
BRANCH   9  10
HETATM   10  N   UNL     1     -40.049 -49.178  14.072  1.00  0.00     0.093 N 
HETATM   11  C   UNL     1     -39.691 -48.363  12.892  1.00  0.00     0.303 C 
HETATM   12  C   UNL     1     -39.037 -49.214  11.784  1.00  0.00     0.146 C 
HETATM   13  C   UNL     1     -37.647 -49.716  12.173  1.00  0.00     0.041 C 
HETATM   14  O   UNL     1     -39.900 -50.293  11.388  1.00  0.00    -0.378 OA
HETATM   15  C   UNL     1     -40.308 -51.109  12.497  1.00  0.00     0.146 C 
HETATM   16  C   UNL     1     -40.951 -50.262  13.616  1.00  0.00     0.303 C 
HETATM   17  C   UNL     1     -41.297 -52.137  11.963  1.00  0.00     0.041 C 
ENDBRANCH   9  10
ENDBRANCH   8   9
ENDBRANCH   7   8
ENDBRANCH   1   7
BRANCH   4  18
HETATM   18  C   UNL     1     -43.970 -47.253   9.684  1.00  0.00     0.051 A 
HETATM   19  C   UNL     1     -43.099 -47.587   8.647  1.00  0.00     0.032 A 
HETATM   20  C   UNL     1     -43.594 -48.170   7.483  1.00  0.00     0.019 A 
HETATM   21  C   UNL     1     -44.951 -48.429   7.404  1.00  0.00     0.088 A 
HETATM   22  N   UNL     1     -45.823 -48.166   8.402  1.00  0.00    -0.373 N 
HETATM   23  C   UNL     1     -45.310 -47.591   9.516  1.00  0.00     0.117 A 
ATOM     24  HN  UNL     1     -46.815 -48.389   8.320  1.00  0.00     0.164 HD
ENDBRANCH   4  18
TORSDOF 5
ENDMDL
