MODEL 1
REMARK VINA RESULT:      -6.9      0.000      0.000
REMARK  5 active torsions:
REMARK  status: ('A' for Active; 'I' for Inactive)
REMARK    1  A    between atoms: N_6  and  C_7 
REMARK    2  A    between atoms: C_7  and  C_8 
REMARK    3  A    between atoms: C_8  and  O_9 
REMARK    4  A    between atoms: C_8  and  C_10 
REMARK    5  A    between atoms: C_13  and  C_16 
ROOT
HETATM    1  C   UNL     1     -39.520 -54.063  13.852  1.00  0.00     0.169 C 
ENDROOT
BRANCH   1   2
HETATM    2  C   UNL     1     -38.882 -52.887  14.625  1.00  0.00     0.169 C 
BRANCH   2   3
HETATM    3  N   UNL     1     -38.947 -51.613  13.918  1.00  0.00    -0.307 N 
HETATM    4  C   UNL     1     -39.904 -50.690  14.237  1.00  0.00     0.186 A 
HETATM    5  N   UNL     1     -40.087 -49.575  13.616  1.00  0.00    -0.355 N 
HETATM    6  C   UNL     1     -39.258 -49.297  12.558  1.00  0.00     0.017 A 
ATOM      7  HN  UNL     1     -40.819 -48.924  13.900  1.00  0.00     0.166 HD
HETATM    8  C   UNL     1     -39.573 -48.008  11.841  1.00  0.00     0.069 C 
HETATM    9  C   UNL     1     -38.241 -50.090  12.169  1.00  0.00     0.028 A 
HETATM   10  C   UNL     1     -38.029 -51.350  12.927  1.00  0.00     0.256 A 
HETATM   11  C   UNL     1     -37.331 -49.803  11.015  1.00  0.00     0.056 C 
HETATM   12  O   UNL     1     -37.097 -52.104  12.657  1.00  0.00    -0.267 OA
ENDBRANCH   2   3
ENDBRANCH   1   2
BRANCH   1  13
HETATM   13  O   UNL     1     -38.942 -55.277  14.356  1.00  0.00    -0.389 OA
HETATM   14  H   UNL     1     -38.014 -55.307  14.061  1.00  0.00     0.210 HD
ENDBRANCH   1  13
BRANCH   1  15
HETATM   15  C   UNL     1     -41.034 -54.168  13.993  1.00  0.00    -0.028 A 
HETATM   16  C   UNL     1     -41.660 -54.765  15.098  1.00  0.00     0.011 A 
HETATM   17  C   UNL     1     -43.046 -54.923  15.146  1.00  0.00     0.017 A 
HETATM   18  C   UNL     1     -43.853 -54.488  14.090  1.00  0.00     0.047 A 
HETATM   19  C   UNL     1     -43.246 -53.840  13.006  1.00  0.00     0.017 A 
HETATM   20  C   UNL     1     -41.855 -53.680  12.961  1.00  0.00     0.011 A 
BRANCH  18  21
HETATM   21  C   UNL     1     -45.341 -54.734  14.104  1.00  0.00     0.417 C 
HETATM   22  F   UNL     1     -45.897 -54.622  15.343  1.00  0.00    -0.166 F 
HETATM   23  F   UNL     1     -46.028 -53.869  13.308  1.00  0.00    -0.166 F 
HETATM   24  F   UNL     1     -45.662 -55.984  13.667  1.00  0.00    -0.166 F 
ENDBRANCH  18  21
ENDBRANCH   1  15
TORSDOF 5
ENDMDL
MODEL 2
REMARK VINA RESULT:      -6.7      2.032      2.667
REMARK  5 active torsions:
REMARK  status: ('A' for Active; 'I' for Inactive)
REMARK    1  A    between atoms: N_6  and  C_7 
REMARK    2  A    between atoms: C_7  and  C_8 
REMARK    3  A    between atoms: C_8  and  O_9 
REMARK    4  A    between atoms: C_8  and  C_10 
REMARK    5  A    between atoms: C_13  and  C_16 
ROOT
HETATM    1  C   UNL     1     -41.238 -52.385  11.967  1.00  0.00     0.169 C 
ENDROOT
BRANCH   1   2
HETATM    2  C   UNL     1     -40.238 -51.541  12.788  1.00  0.00     0.169 C 
BRANCH   2   3
HETATM    3  N   UNL     1     -40.222 -50.129  12.425  1.00  0.00    -0.307 N 
HETATM    4  C   UNL     1     -40.694 -49.720  11.208  1.00  0.00     0.186 A 
HETATM    5  N   UNL     1     -40.648 -48.508  10.771  1.00  0.00    -0.355 N 
HETATM    6  C   UNL     1     -40.085 -47.561  11.590  1.00  0.00     0.017 A 
ATOM      7  HN  UNL     1     -41.016 -48.261   9.852  1.00  0.00     0.166 HD
HETATM    8  C   UNL     1     -40.007 -46.182  10.986  1.00  0.00     0.069 C 
HETATM    9  C   UNL     1     -39.631 -47.814  12.833  1.00  0.00     0.028 A 
HETATM   10  C   UNL     1     -39.732 -49.212  13.326  1.00  0.00     0.256 A 
HETATM   11  C   UNL     1     -39.010 -46.793  13.736  1.00  0.00     0.056 C 
HETATM   12  O   UNL     1     -39.375 -49.511  14.463  1.00  0.00    -0.267 OA
ENDBRANCH   2   3
ENDBRANCH   1   2
BRANCH   1  13
HETATM   13  O   UNL     1     -40.533 -53.539  11.479  1.00  0.00    -0.389 OA
HETATM   14  H   UNL     1     -39.695 -53.230  11.091  1.00  0.00     0.210 HD
ENDBRANCH   1  13
BRANCH   1  15
HETATM   15  C   UNL     1     -42.451 -52.873  12.751  1.00  0.00    -0.028 A 
HETATM   16  C   UNL     1     -42.443 -54.042  13.526  1.00  0.00     0.011 A 
HETATM   17  C   UNL     1     -43.601 -54.501  14.155  1.00  0.00     0.017 A 
HETATM   18  C   UNL     1     -44.808 -53.805  14.030  1.00  0.00     0.047 A 
HETATM   19  C   UNL     1     -44.817 -52.606  13.305  1.00  0.00     0.017 A 
HETATM   20  C   UNL     1     -43.653 -52.145  12.676  1.00  0.00     0.011 A 
BRANCH  18  21
HETATM   21  C   UNL     1     -46.078 -54.345  14.639  1.00  0.00     0.417 C 
HETATM   22  F   UNL     1     -46.436 -55.566  14.150  1.00  0.00    -0.166 F 
HETATM   23  F   UNL     1     -45.996 -54.494  15.989  1.00  0.00    -0.166 F 
HETATM   24  F   UNL     1     -47.146 -53.530  14.413  1.00  0.00    -0.166 F 
ENDBRANCH  18  21
ENDBRANCH   1  15
TORSDOF 5
ENDMDL
MODEL 3
REMARK VINA RESULT:      -6.6      4.343      6.167
REMARK  5 active torsions:
REMARK  status: ('A' for Active; 'I' for Inactive)
REMARK    1  A    between atoms: N_6  and  C_7 
REMARK    2  A    between atoms: C_7  and  C_8 
REMARK    3  A    between atoms: C_8  and  O_9 
REMARK    4  A    between atoms: C_8  and  C_10 
REMARK    5  A    between atoms: C_13  and  C_16 
ROOT
HETATM    1  C   UNL     1     -45.050 -52.657  12.682  1.00  0.00     0.169 C 
ENDROOT
BRANCH   1   2
HETATM    2  C   UNL     1     -44.530 -54.099  12.876  1.00  0.00     0.169 C 
BRANCH   2   3
HETATM    3  N   UNL     1     -43.250 -54.174  13.571  1.00  0.00    -0.307 N 
HETATM    4  C   UNL     1     -42.118 -53.664  12.998  1.00  0.00     0.186 A 
HETATM    5  N   UNL     1     -40.934 -53.754  13.500  1.00  0.00    -0.355 N 
HETATM    6  C   UNL     1     -40.804 -54.412  14.698  1.00  0.00     0.017 A 
ATOM      7  HN  UNL     1     -40.125 -53.353  13.026  1.00  0.00     0.166 HD
HETATM    8  C   UNL     1     -39.384 -54.535  15.189  1.00  0.00     0.069 C 
HETATM    9  C   UNL     1     -41.839 -54.916  15.397  1.00  0.00     0.028 A 
HETATM   10  C   UNL     1     -43.197 -54.763  14.813  1.00  0.00     0.256 A 
HETATM   11  C   UNL     1     -41.713 -55.640  16.701  1.00  0.00     0.056 C 
HETATM   12  O   UNL     1     -44.194 -55.161  15.412  1.00  0.00    -0.267 OA
ENDBRANCH   2   3
ENDBRANCH   1   2
BRANCH   1  13
HETATM   13  O   UNL     1     -46.174 -52.718  11.789  1.00  0.00    -0.389 OA
HETATM   14  H   UNL     1     -46.892 -53.186  12.250  1.00  0.00     0.210 HD
ENDBRANCH   1  13
BRANCH   1  15
HETATM   15  C   UNL     1     -45.505 -51.968  13.964  1.00  0.00    -0.028 A 
HETATM   16  C   UNL     1     -44.662 -51.157  14.739  1.00  0.00     0.011 A 
HETATM   17  C   UNL     1     -45.091 -50.619  15.953  1.00  0.00     0.017 A 
HETATM   18  C   UNL     1     -46.380 -50.874  16.433  1.00  0.00     0.047 A 
HETATM   19  C   UNL     1     -47.251 -51.635  15.642  1.00  0.00     0.017 A 
HETATM   20  C   UNL     1     -46.819 -52.172  14.422  1.00  0.00     0.011 A 
BRANCH  18  21
HETATM   21  C   UNL     1     -46.816 -50.363  17.784  1.00  0.00     0.417 C 
HETATM   22  F   UNL     1     -46.525 -51.217  18.805  1.00  0.00    -0.166 F 
HETATM   23  F   UNL     1     -46.236 -49.177  18.113  1.00  0.00    -0.166 F 
HETATM   24  F   UNL     1     -48.161 -50.156  17.848  1.00  0.00    -0.166 F 
ENDBRANCH  18  21
ENDBRANCH   1  15
TORSDOF 5
ENDMDL
MODEL 4
REMARK VINA RESULT:      -6.6      2.215      3.042
REMARK  5 active torsions:
REMARK  status: ('A' for Active; 'I' for Inactive)
REMARK    1  A    between atoms: N_6  and  C_7 
REMARK    2  A    between atoms: C_7  and  C_8 
REMARK    3  A    between atoms: C_8  and  O_9 
REMARK    4  A    between atoms: C_8  and  C_10 
REMARK    5  A    between atoms: C_13  and  C_16 
ROOT
HETATM    1  C   UNL     1     -40.757 -53.016  12.496  1.00  0.00     0.169 C 
ENDROOT
BRANCH   1   2
HETATM    2  C   UNL     1     -40.260 -51.682  13.098  1.00  0.00     0.169 C 
BRANCH   2   3
HETATM    3  N   UNL     1     -40.805 -50.500  12.440  1.00  0.00    -0.307 N 
HETATM    4  C   UNL     1     -40.457 -50.199  11.153  1.00  0.00     0.186 A 
HETATM    5  N   UNL     1     -40.825 -49.138  10.520  1.00  0.00    -0.355 N 
HETATM    6  C   UNL     1     -41.626 -48.248  11.190  1.00  0.00     0.017 A 
ATOM      7  HN  UNL     1     -40.533 -48.967   9.557  1.00  0.00     0.166 HD
HETATM    8  C   UNL     1     -41.962 -47.002  10.410  1.00  0.00     0.069 C 
HETATM    9  C   UNL     1     -42.088 -48.443  12.441  1.00  0.00     0.028 A 
HETATM   10  C   UNL     1     -41.679 -49.694  13.132  1.00  0.00     0.256 A 
HETATM   11  C   UNL     1     -42.958 -47.480  13.187  1.00  0.00     0.056 C 
HETATM   12  O   UNL     1     -42.093 -49.960  14.258  1.00  0.00    -0.267 OA
ENDBRANCH   2   3
ENDBRANCH   1   2
BRANCH   1  13
HETATM   13  O   UNL     1     -39.825 -54.039  12.881  1.00  0.00    -0.389 OA
HETATM   14  H   UNL     1     -39.018 -53.598  13.198  1.00  0.00     0.210 HD
ENDBRANCH   1  13
BRANCH   1  15
HETATM   15  C   UNL     1     -42.145 -53.444  12.961  1.00  0.00    -0.028 A 
HETATM   16  C   UNL     1     -43.324 -53.067  12.301  1.00  0.00     0.011 A 
HETATM   17  C   UNL     1     -44.578 -53.405  12.811  1.00  0.00     0.017 A 
HETATM   18  C   UNL     1     -44.695 -54.133  13.999  1.00  0.00     0.047 A 
HETATM   19  C   UNL     1     -43.525 -54.564  14.638  1.00  0.00     0.017 A 
HETATM   20  C   UNL     1     -42.267 -54.226  14.123  1.00  0.00     0.011 A 
BRANCH  18  21
HETATM   21  C   UNL     1     -46.050 -54.426  14.596  1.00  0.00     0.417 C 
HETATM   22  F   UNL     1     -46.032 -54.530  15.954  1.00  0.00    -0.166 F 
HETATM   23  F   UNL     1     -46.973 -53.468  14.307  1.00  0.00    -0.166 F 
HETATM   24  F   UNL     1     -46.570 -55.601  14.143  1.00  0.00    -0.166 F 
ENDBRANCH  18  21
ENDBRANCH   1  15
TORSDOF 5
ENDMDL
MODEL 5
REMARK VINA RESULT:      -6.6      2.548      3.222
REMARK  5 active torsions:
REMARK  status: ('A' for Active; 'I' for Inactive)
REMARK    1  A    between atoms: N_6  and  C_7 
REMARK    2  A    between atoms: C_7  and  C_8 
REMARK    3  A    between atoms: C_8  and  O_9 
REMARK    4  A    between atoms: C_8  and  C_10 
REMARK    5  A    between atoms: C_13  and  C_16 
ROOT
HETATM    1  C   UNL     1     -40.788 -52.238  12.248  1.00  0.00     0.169 C 
ENDROOT
BRANCH   1   2
HETATM    2  C   UNL     1     -39.812 -52.436  13.430  1.00  0.00     0.169 C 
BRANCH   2   3
HETATM    3  N   UNL     1     -39.133 -51.213  13.843  1.00  0.00    -0.307 N 
HETATM    4  C   UNL     1     -39.111 -50.120  13.022  1.00  0.00     0.186 A 
HETATM    5  N   UNL     1     -38.472 -49.027  13.268  1.00  0.00    -0.355 N 
HETATM    6  C   UNL     1     -37.763 -48.960  14.442  1.00  0.00     0.017 A 
ATOM      7  HN  UNL     1     -38.492 -48.243  12.616  1.00  0.00     0.166 HD
HETATM    8  C   UNL     1     -36.990 -47.680  14.630  1.00  0.00     0.069 C 
HETATM    9  C   UNL     1     -37.741 -49.940  15.366  1.00  0.00     0.028 A 
HETATM   10  C   UNL     1     -38.518 -51.172  15.073  1.00  0.00     0.256 A 
HETATM   11  C   UNL     1     -36.970 -49.883  16.648  1.00  0.00     0.056 C 
HETATM   12  O   UNL     1     -38.579 -52.092  15.886  1.00  0.00    -0.267 OA
ENDBRANCH   2   3
ENDBRANCH   1   2
BRANCH   1  13
HETATM   13  O   UNL     1     -40.611 -53.346  11.350  1.00  0.00    -0.389 OA
HETATM   14  H   UNL     1     -41.317 -53.990  11.534  1.00  0.00     0.210 HD
ENDBRANCH   1  13
BRANCH   1  15
HETATM   15  C   UNL     1     -42.259 -52.183  12.642  1.00  0.00    -0.028 A 
HETATM   16  C   UNL     1     -43.118 -53.288  12.551  1.00  0.00     0.011 A 
HETATM   17  C   UNL     1     -44.480 -53.172  12.835  1.00  0.00     0.017 A 
HETATM   18  C   UNL     1     -45.028 -51.944  13.223  1.00  0.00     0.047 A 
HETATM   19  C   UNL     1     -44.171 -50.846  13.372  1.00  0.00     0.017 A 
HETATM   20  C   UNL     1     -42.804 -50.965  13.088  1.00  0.00     0.011 A 
BRANCH  18  21
HETATM   21  C   UNL     1     -46.512 -51.798  13.449  1.00  0.00     0.417 C 
HETATM   22  F   UNL     1     -47.184 -51.341  12.355  1.00  0.00    -0.166 F 
HETATM   23  F   UNL     1     -47.113 -52.970  13.792  1.00  0.00    -0.166 F 
HETATM   24  F   UNL     1     -46.798 -50.920  14.450  1.00  0.00    -0.166 F 
ENDBRANCH  18  21
ENDBRANCH   1  15
TORSDOF 5
ENDMDL
MODEL 6
REMARK VINA RESULT:      -6.3      3.208      4.180
REMARK  5 active torsions:
REMARK  status: ('A' for Active; 'I' for Inactive)
REMARK    1  A    between atoms: N_6  and  C_7 
REMARK    2  A    between atoms: C_7  and  C_8 
REMARK    3  A    between atoms: C_8  and  O_9 
REMARK    4  A    between atoms: C_8  and  C_10 
REMARK    5  A    between atoms: C_13  and  C_16 
ROOT
HETATM    1  C   UNL     1     -43.805 -52.995  12.788  1.00  0.00     0.169 C 
ENDROOT
BRANCH   1   2
HETATM    2  C   UNL     1     -42.399 -53.373  13.307  1.00  0.00     0.169 C 
BRANCH   2   3
HETATM    3  N   UNL     1     -41.368 -52.394  12.980  1.00  0.00    -0.307 N 
HETATM    4  C   UNL     1     -41.369 -51.764  11.766  1.00  0.00     0.186 A 
HETATM    5  N   UNL     1     -40.458 -50.947  11.361  1.00  0.00    -0.355 N 
HETATM    6  C   UNL     1     -39.413 -50.692  12.213  1.00  0.00     0.017 A 
ATOM      7  HN  UNL     1     -40.512 -50.506  10.442  1.00  0.00     0.166 HD
HETATM    8  C   UNL     1     -38.355 -49.780  11.645  1.00  0.00     0.069 C 
HETATM    9  C   UNL     1     -39.312 -51.201  13.456  1.00  0.00     0.028 A 
HETATM   10  C   UNL     1     -40.397 -52.110  13.912  1.00  0.00     0.256 A 
HETATM   11  C   UNL     1     -38.177 -50.937  14.395  1.00  0.00     0.056 C 
HETATM   12  O   UNL     1     -40.395 -52.580  15.047  1.00  0.00    -0.267 OA
ENDBRANCH   2   3
ENDBRANCH   1   2
BRANCH   1  13
HETATM   13  O   UNL     1     -44.351 -54.153  12.134  1.00  0.00    -0.389 OA
HETATM   14  H   UNL     1     -44.535 -53.909  11.210  1.00  0.00     0.210 HD
ENDBRANCH   1  13
BRANCH   1  15
HETATM   15  C   UNL     1     -44.786 -52.560  13.871  1.00  0.00    -0.028 A 
HETATM   16  C   UNL     1     -45.988 -51.893  13.591  1.00  0.00     0.011 A 
HETATM   17  C   UNL     1     -46.815 -51.432  14.617  1.00  0.00     0.017 A 
HETATM   18  C   UNL     1     -46.466 -51.624  15.958  1.00  0.00     0.047 A 
HETATM   19  C   UNL     1     -45.296 -52.338  16.250  1.00  0.00     0.017 A 
HETATM   20  C   UNL     1     -44.469 -52.802  15.219  1.00  0.00     0.011 A 
BRANCH  18  21
HETATM   21  C   UNL     1     -47.316 -51.052  17.066  1.00  0.00     0.417 C 
HETATM   22  F   UNL     1     -46.774 -49.944  17.646  1.00  0.00    -0.166 F 
HETATM   23  F   UNL     1     -48.556 -50.684  16.645  1.00  0.00    -0.166 F 
HETATM   24  F   UNL     1     -47.509 -51.941  18.079  1.00  0.00    -0.166 F 
ENDBRANCH  18  21
ENDBRANCH   1  15
TORSDOF 5
ENDMDL
MODEL 7
REMARK VINA RESULT:      -6.3      2.486      4.160
REMARK  5 active torsions:
REMARK  status: ('A' for Active; 'I' for Inactive)
REMARK    1  A    between atoms: N_6  and  C_7 
REMARK    2  A    between atoms: C_7  and  C_8 
REMARK    3  A    between atoms: C_8  and  O_9 
REMARK    4  A    between atoms: C_8  and  C_10 
REMARK    5  A    between atoms: C_13  and  C_16 
ROOT
HETATM    1  C   UNL     1     -40.863 -51.908  12.071  1.00  0.00     0.169 C 
ENDROOT
BRANCH   1   2
HETATM    2  C   UNL     1     -39.812 -51.580  13.156  1.00  0.00     0.169 C 
BRANCH   2   3
HETATM    3  N   UNL     1     -39.968 -52.356  14.381  1.00  0.00    -0.307 N 
HETATM    4  C   UNL     1     -40.714 -51.871  15.419  1.00  0.00     0.186 A 
HETATM    5  N   UNL     1     -40.843 -52.449  16.564  1.00  0.00    -0.355 N 
HETATM    6  C   UNL     1     -40.182 -53.637  16.752  1.00  0.00     0.017 A 
ATOM      7  HN  UNL     1     -41.415 -52.038  17.303  1.00  0.00     0.166 HD
HETATM    8  C   UNL     1     -40.327 -54.218  18.135  1.00  0.00     0.069 C 
HETATM    9  C   UNL     1     -39.457 -54.254  15.799  1.00  0.00     0.028 A 
HETATM   10  C   UNL     1     -39.358 -53.585  14.476  1.00  0.00     0.256 A 
HETATM   11  C   UNL     1     -38.727 -55.547  15.990  1.00  0.00     0.056 C 
HETATM   12  O   UNL     1     -38.748 -54.107  13.545  1.00  0.00    -0.267 OA
ENDBRANCH   2   3
ENDBRANCH   1   2
BRANCH   1  13
HETATM   13  O   UNL     1     -40.560 -53.214  11.555  1.00  0.00    -0.389 OA
HETATM   14  H   UNL     1     -39.613 -53.381  11.713  1.00  0.00     0.210 HD
ENDBRANCH   1  13
BRANCH   1  15
HETATM   15  C   UNL     1     -42.304 -51.922  12.567  1.00  0.00    -0.028 A 
HETATM   16  C   UNL     1     -43.083 -53.087  12.626  1.00  0.00     0.011 A 
HETATM   17  C   UNL     1     -44.427 -53.041  13.000  1.00  0.00     0.017 A 
HETATM   18  C   UNL     1     -45.037 -51.826  13.330  1.00  0.00     0.047 A 
HETATM   19  C   UNL     1     -44.256 -50.663  13.331  1.00  0.00     0.017 A 
HETATM   20  C   UNL     1     -42.906 -50.712  12.957  1.00  0.00     0.011 A 
BRANCH  18  21
HETATM   21  C   UNL     1     -46.509 -51.765  13.653  1.00  0.00     0.417 C 
HETATM   22  F   UNL     1     -46.796 -50.969  14.722  1.00  0.00    -0.166 F 
HETATM   23  F   UNL     1     -47.257 -51.287  12.621  1.00  0.00    -0.166 F 
HETATM   24  F   UNL     1     -47.023 -52.989  13.957  1.00  0.00    -0.166 F 
ENDBRANCH  18  21
ENDBRANCH   1  15
TORSDOF 5
ENDMDL
MODEL 8
REMARK VINA RESULT:      -6.1      2.449      3.060
REMARK  5 active torsions:
REMARK  status: ('A' for Active; 'I' for Inactive)
REMARK    1  A    between atoms: N_6  and  C_7 
REMARK    2  A    between atoms: C_7  and  C_8 
REMARK    3  A    between atoms: C_8  and  O_9 
REMARK    4  A    between atoms: C_8  and  C_10 
REMARK    5  A    between atoms: C_13  and  C_16 
ROOT
HETATM    1  C   UNL     1     -40.771 -52.293  12.334  1.00  0.00     0.169 C 
ENDROOT
BRANCH   1   2
HETATM    2  C   UNL     1     -39.940 -52.639  13.590  1.00  0.00     0.169 C 
BRANCH   2   3
HETATM    3  N   UNL     1     -39.605 -51.482  14.412  1.00  0.00    -0.307 N 
HETATM    4  C   UNL     1     -40.247 -51.266  15.600  1.00  0.00     0.186 A 
HETATM    5  N   UNL     1     -40.073 -50.233  16.352  1.00  0.00    -0.355 N 
HETATM    6  C   UNL     1     -39.178 -49.284  15.926  1.00  0.00     0.017 A 
ATOM      7  HN  UNL     1     -40.582 -50.125  17.230  1.00  0.00     0.166 HD
HETATM    8  C   UNL     1     -39.077 -48.076  16.823  1.00  0.00     0.069 C 
HETATM    9  C   UNL     1     -38.439 -49.394  14.806  1.00  0.00     0.028 A 
HETATM   10  C   UNL     1     -38.630 -50.613  13.978  1.00  0.00     0.256 A 
HETATM   11  C   UNL     1     -37.462 -48.366  14.326  1.00  0.00     0.056 C 
HETATM   12  O   UNL     1     -37.963 -50.803  12.964  1.00  0.00    -0.267 OA
ENDBRANCH   2   3
ENDBRANCH   1   2
BRANCH   1  13
HETATM   13  O   UNL     1     -40.627 -53.379  11.405  1.00  0.00    -0.389 OA
HETATM   14  H   UNL     1     -39.976 -54.001  11.777  1.00  0.00     0.210 HD
ENDBRANCH   1  13
BRANCH   1  15
HETATM   15  C   UNL     1     -42.260 -52.091  12.594  1.00  0.00    -0.028 A 
HETATM   16  C   UNL     1     -42.810 -50.857  12.973  1.00  0.00     0.011 A 
HETATM   17  C   UNL     1     -44.164 -50.736  13.289  1.00  0.00     0.017 A 
HETATM   18  C   UNL     1     -45.014 -51.846  13.235  1.00  0.00     0.047 A 
HETATM   19  C   UNL     1     -44.489 -53.071  12.803  1.00  0.00     0.017 A 
HETATM   20  C   UNL     1     -43.130 -53.190  12.484  1.00  0.00     0.011 A 
BRANCH  18  21
HETATM   21  C   UNL     1     -46.458 -51.734  13.658  1.00  0.00     0.417 C 
HETATM   22  F   UNL     1     -46.636 -50.988  14.784  1.00  0.00    -0.166 F 
HETATM   23  F   UNL     1     -47.245 -51.164  12.705  1.00  0.00    -0.166 F 
HETATM   24  F   UNL     1     -47.012 -52.948  13.929  1.00  0.00    -0.166 F 
ENDBRANCH  18  21
ENDBRANCH   1  15
TORSDOF 5
ENDMDL
MODEL 9
REMARK VINA RESULT:      -6.0      4.419      7.407
REMARK  5 active torsions:
REMARK  status: ('A' for Active; 'I' for Inactive)
REMARK    1  A    between atoms: N_6  and  C_7 
REMARK    2  A    between atoms: C_7  and  C_8 
REMARK    3  A    between atoms: C_8  and  O_9 
REMARK    4  A    between atoms: C_8  and  C_10 
REMARK    5  A    between atoms: C_13  and  C_16 
ROOT
HETATM    1  C   UNL     1     -39.911 -51.084  12.433  1.00  0.00     0.169 C 
ENDROOT
BRANCH   1   2
HETATM    2  C   UNL     1     -40.872 -52.206  11.979  1.00  0.00     0.169 C 
BRANCH   2   3
HETATM    3  N   UNL     1     -41.350 -53.049  13.070  1.00  0.00    -0.307 N 
HETATM    4  C   UNL     1     -40.492 -53.477  14.044  1.00  0.00     0.186 A 
HETATM    5  N   UNL     1     -40.806 -54.284  14.999  1.00  0.00    -0.355 N 
HETATM    6  C   UNL     1     -42.099 -54.745  15.037  1.00  0.00     0.017 A 
ATOM      7  HN  UNL     1     -40.121 -54.570  15.699  1.00  0.00     0.166 HD
HETATM    8  C   UNL     1     -42.374 -55.735  16.141  1.00  0.00     0.069 C 
HETATM    9  C   UNL     1     -43.060 -54.365  14.174  1.00  0.00     0.028 A 
HETATM   10  C   UNL     1     -42.679 -53.402  13.108  1.00  0.00     0.256 A 
HETATM   11  C   UNL     1     -44.472 -54.861  14.200  1.00  0.00     0.056 C 
HETATM   12  O   UNL     1     -43.511 -52.978  12.309  1.00  0.00    -0.267 OA
ENDBRANCH   2   3
ENDBRANCH   1   2
BRANCH   1  13
HETATM   13  O   UNL     1     -38.621 -51.363  11.867  1.00  0.00    -0.389 OA
HETATM   14  H   UNL     1     -38.088 -51.807  12.551  1.00  0.00     0.210 HD
ENDBRANCH   1  13
BRANCH   1  15
HETATM   15  C   UNL     1     -40.322 -49.682  11.999  1.00  0.00    -0.028 A 
HETATM   16  C   UNL     1     -41.563 -49.396  11.409  1.00  0.00     0.011 A 
HETATM   17  C   UNL     1     -41.864 -48.115  10.943  1.00  0.00     0.017 A 
HETATM   18  C   UNL     1     -40.933 -47.077  11.052  1.00  0.00     0.047 A 
HETATM   19  C   UNL     1     -39.713 -47.335  11.690  1.00  0.00     0.017 A 
HETATM   20  C   UNL     1     -39.413 -48.621  12.160  1.00  0.00     0.011 A 
BRANCH  18  21
HETATM   21  C   UNL     1     -41.225 -45.714  10.473  1.00  0.00     0.417 C 
HETATM   22  F   UNL     1     -41.624 -44.804  11.406  1.00  0.00    -0.166 F 
HETATM   23  F   UNL     1     -40.149 -45.163   9.850  1.00  0.00    -0.166 F 
HETATM   24  F   UNL     1     -42.222 -45.751   9.545  1.00  0.00    -0.166 F 
ENDBRANCH  18  21
ENDBRANCH   1  15
TORSDOF 5
ENDMDL
