MODEL 1
REMARK VINA RESULT:      -6.6      0.000      0.000
REMARK  6 active torsions:
REMARK  status: ('A' for Active; 'I' for Inactive)
REMARK    1  A    between atoms: O_1  and  C_2 
REMARK    2  A    between atoms: C_2  and  C_3 
REMARK    3  A    between atoms: C_2  and  C_14 
REMARK    4  A    between atoms: C_3  and  N_4 
REMARK    5  A    between atoms: C_17  and  O_18 
REMARK    6  A    between atoms: O_18  and  C_19 
ROOT
HETATM    1  C   UNL     1     -40.625 -53.363  12.833  1.00  0.00     0.169 C 
ENDROOT
BRANCH   1   2
HETATM    2  O   UNL     1     -40.532 -53.323  11.402  1.00  0.00    -0.389 OA
HETATM    3  H   UNL     1     -40.746 -54.205  11.057  1.00  0.00     0.210 HD
ENDBRANCH   1   2
BRANCH   1   4
HETATM    4  C   UNL     1     -40.093 -52.039  13.427  1.00  0.00     0.166 C 
BRANCH   4   5
HETATM    5  N   UNL     1     -40.078 -50.901  12.527  1.00  0.00    -0.338 N 
HETATM    6  C   UNL     1     -38.973 -50.444  11.860  1.00  0.00     0.184 A 
HETATM    7  N   UNL     1     -39.216 -49.338  11.197  1.00  0.00    -0.350 N 
HETATM    8  C   UNL     1     -40.537 -49.065  11.436  1.00  0.00     0.060 A 
ATOM      9  HN  UNL     1     -38.564 -48.799  10.628  1.00  0.00     0.166 HD
HETATM   10  C   UNL     1     -41.314 -47.995  10.969  1.00  0.00     0.032 A 
HETATM   11  C   UNL     1     -41.113 -50.022  12.274  1.00  0.00     0.062 A 
HETATM   12  C   UNL     1     -42.657 -47.916  11.354  1.00  0.00     0.002 A 
HETATM   13  C   UNL     1     -43.212 -48.881  12.191  1.00  0.00     0.002 A 
HETATM   14  C   UNL     1     -42.452 -49.955  12.676  1.00  0.00     0.032 A 
ENDBRANCH   4   5
ENDBRANCH   1   4
BRANCH   1  15
HETATM   15  C   UNL     1     -42.022 -53.790  13.252  1.00  0.00    -0.028 A 
HETATM   16  C   UNL     1     -42.212 -54.558  14.411  1.00  0.00     0.012 A 
HETATM   17  C   UNL     1     -43.488 -54.975  14.800  1.00  0.00     0.037 A 
HETATM   18  C   UNL     1     -44.610 -54.615  14.055  1.00  0.00     0.074 A 
HETATM   19  C   UNL     1     -44.445 -53.832  12.916  1.00  0.00     0.037 A 
HETATM   20  C   UNL     1     -43.167 -53.403  12.538  1.00  0.00     0.012 A 
BRANCH  18  21
HETATM   21  O   UNL     1     -45.796 -55.106  14.519  1.00  0.00    -0.290 OA
BRANCH  21  22
HETATM   22  C   UNL     1     -46.574 -54.204  15.286  1.00  0.00     0.505 C 
HETATM   23  F   UNL     1     -45.756 -53.298  15.877  1.00  0.00    -0.184 F 
HETATM   24  F   UNL     1     -47.361 -53.513  14.422  1.00  0.00    -0.184 F 
ENDBRANCH  21  22
ENDBRANCH  18  21
ENDBRANCH   1  15
TORSDOF 6
ENDMDL
MODEL 2
REMARK VINA RESULT:      -6.2      2.482      3.175
REMARK  6 active torsions:
REMARK  status: ('A' for Active; 'I' for Inactive)
REMARK    1  A    between atoms: O_1  and  C_2 
REMARK    2  A    between atoms: C_2  and  C_3 
REMARK    3  A    between atoms: C_2  and  C_14 
REMARK    4  A    between atoms: C_3  and  N_4 
REMARK    5  A    between atoms: C_17  and  O_18 
REMARK    6  A    between atoms: O_18  and  C_19 
ROOT
HETATM    1  C   UNL     1     -40.759 -54.074  12.882  1.00  0.00     0.169 C 
ENDROOT
BRANCH   1   2
HETATM    2  O   UNL     1     -40.434 -53.470  11.622  1.00  0.00    -0.389 OA
HETATM    3  H   UNL     1     -41.234 -53.460  11.071  1.00  0.00     0.210 HD
ENDBRANCH   1   2
BRANCH   1   4
HETATM    4  C   UNL     1     -39.703 -53.679  13.938  1.00  0.00     0.166 C 
BRANCH   4   5
HETATM    5  N   UNL     1     -39.746 -52.303  14.395  1.00  0.00    -0.338 N 
HETATM    6  C   UNL     1     -40.548 -51.837  15.403  1.00  0.00     0.184 A 
HETATM    7  N   UNL     1     -40.465 -50.534  15.539  1.00  0.00    -0.350 N 
HETATM    8  C   UNL     1     -39.568 -50.134  14.584  1.00  0.00     0.060 A 
ATOM      9  HN  UNL     1     -40.961 -49.947  16.209  1.00  0.00     0.166 HD
HETATM   10  C   UNL     1     -39.112 -48.841  14.291  1.00  0.00     0.032 A 
HETATM   11  C   UNL     1     -39.098 -51.218  13.839  1.00  0.00     0.062 A 
HETATM   12  C   UNL     1     -38.188 -48.669  13.254  1.00  0.00     0.002 A 
HETATM   13  C   UNL     1     -37.731 -49.763  12.522  1.00  0.00     0.002 A 
HETATM   14  C   UNL     1     -38.180 -51.064  12.794  1.00  0.00     0.032 A 
ENDBRANCH   4   5
ENDBRANCH   1   4
BRANCH   1  15
HETATM   15  C   UNL     1     -42.213 -53.799  13.231  1.00  0.00    -0.028 A 
HETATM   16  C   UNL     1     -42.926 -52.793  12.561  1.00  0.00     0.012 A 
HETATM   17  C   UNL     1     -44.257 -52.514  12.882  1.00  0.00     0.037 A 
HETATM   18  C   UNL     1     -44.918 -53.249  13.864  1.00  0.00     0.074 A 
HETATM   19  C   UNL     1     -44.236 -54.268  14.523  1.00  0.00     0.037 A 
HETATM   20  C   UNL     1     -42.907 -54.555  14.188  1.00  0.00     0.012 A 
BRANCH  18  21
HETATM   21  O   UNL     1     -46.205 -52.864  14.108  1.00  0.00    -0.290 OA
BRANCH  21  22
HETATM   22  C   UNL     1     -46.478 -51.486  13.927  1.00  0.00     0.505 C 
HETATM   23  F   UNL     1     -47.165 -51.314  12.770  1.00  0.00    -0.184 F 
HETATM   24  F   UNL     1     -47.305 -51.101  14.932  1.00  0.00    -0.184 F 
ENDBRANCH  21  22
ENDBRANCH  18  21
ENDBRANCH   1  15
TORSDOF 6
ENDMDL
MODEL 3
REMARK VINA RESULT:      -6.2      1.264      1.607
REMARK  6 active torsions:
REMARK  status: ('A' for Active; 'I' for Inactive)
REMARK    1  A    between atoms: O_1  and  C_2 
REMARK    2  A    between atoms: C_2  and  C_3 
REMARK    3  A    between atoms: C_2  and  C_14 
REMARK    4  A    between atoms: C_3  and  N_4 
REMARK    5  A    between atoms: C_17  and  O_18 
REMARK    6  A    between atoms: O_18  and  C_19 
ROOT
HETATM    1  C   UNL     1     -40.745 -53.229  12.889  1.00  0.00     0.169 C 
ENDROOT
BRANCH   1   2
HETATM    2  O   UNL     1     -40.590 -53.458  11.481  1.00  0.00    -0.389 OA
HETATM    3  H   UNL     1     -39.669 -53.712  11.311  1.00  0.00     0.210 HD
ENDBRANCH   1   2
BRANCH   1   4
HETATM    4  C   UNL     1     -39.891 -52.014  13.316  1.00  0.00     0.166 C 
BRANCH   4   5
HETATM    5  N   UNL     1     -39.922 -50.872  12.423  1.00  0.00    -0.338 N 
HETATM    6  C   UNL     1     -38.874 -50.458  11.644  1.00  0.00     0.184 A 
HETATM    7  N   UNL     1     -39.138 -49.338  11.013  1.00  0.00    -0.350 N 
HETATM    8  C   UNL     1     -40.413 -49.010  11.391  1.00  0.00     0.060 A 
ATOM      9  HN  UNL     1     -38.527 -48.823  10.379  1.00  0.00     0.166 HD
HETATM   10  C   UNL     1     -41.188 -47.905  11.011  1.00  0.00     0.032 A 
HETATM   11  C   UNL     1     -40.939 -49.948  12.283  1.00  0.00     0.062 A 
HETATM   12  C   UNL     1     -42.478 -47.771  11.537  1.00  0.00     0.002 A 
HETATM   13  C   UNL     1     -42.984 -48.718  12.425  1.00  0.00     0.002 A 
HETATM   14  C   UNL     1     -42.223 -49.826  12.824  1.00  0.00     0.032 A 
ENDBRANCH   4   5
ENDBRANCH   1   4
BRANCH   1  15
HETATM   15  C   UNL     1     -42.221 -53.191  13.250  1.00  0.00    -0.028 A 
HETATM   16  C   UNL     1     -43.195 -53.080  12.247  1.00  0.00     0.012 A 
HETATM   17  C   UNL     1     -44.555 -53.025  12.563  1.00  0.00     0.037 A 
HETATM   18  C   UNL     1     -44.979 -53.103  13.888  1.00  0.00     0.074 A 
HETATM   19  C   UNL     1     -44.029 -53.238  14.897  1.00  0.00     0.037 A 
HETATM   20  C   UNL     1     -42.668 -53.310  14.576  1.00  0.00     0.012 A 
BRANCH  18  21
HETATM   21  O   UNL     1     -46.328 -53.008  14.072  1.00  0.00    -0.290 OA
BRANCH  21  22
HETATM   22  C   UNL     1     -46.832 -51.696  14.249  1.00  0.00     0.505 C 
HETATM   23  F   UNL     1     -45.853 -50.905  14.755  1.00  0.00    -0.184 F 
HETATM   24  F   UNL     1     -47.130 -51.207  13.018  1.00  0.00    -0.184 F 
ENDBRANCH  21  22
ENDBRANCH  18  21
ENDBRANCH   1  15
TORSDOF 6
ENDMDL
MODEL 4
REMARK VINA RESULT:      -6.1      4.548      6.186
REMARK  6 active torsions:
REMARK  status: ('A' for Active; 'I' for Inactive)
REMARK    1  A    between atoms: O_1  and  C_2 
REMARK    2  A    between atoms: C_2  and  C_3 
REMARK    3  A    between atoms: C_2  and  C_14 
REMARK    4  A    between atoms: C_3  and  N_4 
REMARK    5  A    between atoms: C_17  and  O_18 
REMARK    6  A    between atoms: O_18  and  C_19 
ROOT
HETATM    1  C   UNL     1     -38.976 -54.195  14.506  1.00  0.00     0.169 C 
ENDROOT
BRANCH   1   2
HETATM    2  O   UNL     1     -39.115 -54.870  13.248  1.00  0.00    -0.389 OA
HETATM    3  H   UNL     1     -38.493 -55.615  13.230  1.00  0.00     0.210 HD
ENDBRANCH   1   2
BRANCH   1   4
HETATM    4  C   UNL     1     -39.965 -53.009  14.574  1.00  0.00     0.166 C 
BRANCH   4   5
HETATM    5  N   UNL     1     -41.040 -53.023  13.600  1.00  0.00    -0.338 N 
HETATM    6  C   UNL     1     -41.026 -52.349  12.408  1.00  0.00     0.184 A 
HETATM    7  N   UNL     1     -42.168 -52.450  11.769  1.00  0.00    -0.350 N 
HETATM    8  C   UNL     1     -42.957 -53.227  12.575  1.00  0.00     0.060 A 
ATOM      9  HN  UNL     1     -42.415 -52.039  10.868  1.00  0.00     0.166 HD
HETATM   10  C   UNL     1     -44.280 -53.647  12.371  1.00  0.00     0.032 A 
HETATM   11  C   UNL     1     -42.285 -53.603  13.740  1.00  0.00     0.062 A 
HETATM   12  C   UNL     1     -44.895 -54.441  13.346  1.00  0.00     0.002 A 
HETATM   13  C   UNL     1     -44.207 -54.805  14.502  1.00  0.00     0.002 A 
HETATM   14  C   UNL     1     -42.887 -54.389  14.728  1.00  0.00     0.032 A 
ENDBRANCH   4   5
ENDBRANCH   1   4
BRANCH   1  15
HETATM   15  C   UNL     1     -39.033 -55.200  15.645  1.00  0.00    -0.028 A 
HETATM   16  C   UNL     1     -40.262 -55.732  16.061  1.00  0.00     0.012 A 
HETATM   17  C   UNL     1     -40.334 -56.643  17.119  1.00  0.00     0.037 A 
HETATM   18  C   UNL     1     -39.178 -57.064  17.773  1.00  0.00     0.074 A 
HETATM   19  C   UNL     1     -37.945 -56.566  17.358  1.00  0.00     0.037 A 
HETATM   20  C   UNL     1     -37.875 -55.666  16.287  1.00  0.00     0.012 A 
BRANCH  18  21
HETATM   21  O   UNL     1     -39.379 -57.932  18.807  1.00  0.00    -0.290 OA
BRANCH  21  22
HETATM   22  C   UNL     1     -39.151 -59.299  18.513  1.00  0.00     0.505 C 
HETATM   23  F   UNL     1     -39.543 -59.553  17.240  1.00  0.00    -0.184 F 
HETATM   24  F   UNL     1     -37.810 -59.504  18.556  1.00  0.00    -0.184 F 
ENDBRANCH  21  22
ENDBRANCH  18  21
ENDBRANCH   1  15
TORSDOF 6
ENDMDL
MODEL 5
REMARK VINA RESULT:      -6.0      4.260      6.876
REMARK  6 active torsions:
REMARK  status: ('A' for Active; 'I' for Inactive)
REMARK    1  A    between atoms: O_1  and  C_2 
REMARK    2  A    between atoms: C_2  and  C_3 
REMARK    3  A    between atoms: C_2  and  C_14 
REMARK    4  A    between atoms: C_3  and  N_4 
REMARK    5  A    between atoms: C_17  and  O_18 
REMARK    6  A    between atoms: O_18  and  C_19 
ROOT
HETATM    1  C   UNL     1     -41.664 -52.345  12.032  1.00  0.00     0.169 C 
ENDROOT
BRANCH   1   2
HETATM    2  O   UNL     1     -40.623 -53.162  11.478  1.00  0.00    -0.389 OA
HETATM    3  H   UNL     1     -40.175 -52.657  10.780  1.00  0.00     0.210 HD
ENDBRANCH   1   2
BRANCH   1   4
HETATM    4  C   UNL     1     -42.121 -52.930  13.387  1.00  0.00     0.166 C 
BRANCH   4   5
HETATM    5  N   UNL     1     -43.550 -53.123  13.545  1.00  0.00    -0.338 N 
HETATM    6  C   UNL     1     -44.300 -54.032  12.848  1.00  0.00     0.184 A 
HETATM    7  N   UNL     1     -45.581 -53.922  13.111  1.00  0.00    -0.350 N 
HETATM    8  C   UNL     1     -45.670 -52.904  14.022  1.00  0.00     0.060 A 
ATOM      9  HN  UNL     1     -46.345 -54.475  12.721  1.00  0.00     0.166 HD
HETATM   10  C   UNL     1     -46.812 -52.371  14.639  1.00  0.00     0.032 A 
HETATM   11  C   UNL     1     -44.414 -52.370  14.316  1.00  0.00     0.062 A 
HETATM   12  C   UNL     1     -46.660 -51.314  15.543  1.00  0.00     0.002 A 
HETATM   13  C   UNL     1     -45.397 -50.796  15.823  1.00  0.00     0.002 A 
HETATM   14  C   UNL     1     -44.244 -51.308  15.212  1.00  0.00     0.032 A 
ENDBRANCH   4   5
ENDBRANCH   1   4
BRANCH   1  15
HETATM   15  C   UNL     1     -41.239 -50.885  12.024  1.00  0.00    -0.028 A 
HETATM   16  C   UNL     1     -42.173 -49.873  12.290  1.00  0.00     0.012 A 
HETATM   17  C   UNL     1     -41.804 -48.525  12.268  1.00  0.00     0.037 A 
HETATM   18  C   UNL     1     -40.487 -48.155  12.002  1.00  0.00     0.074 A 
HETATM   19  C   UNL     1     -39.540 -49.146  11.759  1.00  0.00     0.037 A 
HETATM   20  C   UNL     1     -39.910 -50.496  11.798  1.00  0.00     0.012 A 
BRANCH  18  21
HETATM   21  O   UNL     1     -40.256 -46.810  11.979  1.00  0.00    -0.290 OA
BRANCH  21  22
HETATM   22  C   UNL     1     -40.554 -46.158  10.757  1.00  0.00     0.505 C 
HETATM   23  F   UNL     1     -41.405 -45.129  10.996  1.00  0.00    -0.184 F 
HETATM   24  F   UNL     1     -39.399 -45.610  10.299  1.00  0.00    -0.184 F 
ENDBRANCH  21  22
ENDBRANCH  18  21
ENDBRANCH   1  15
TORSDOF 6
ENDMDL
MODEL 6
REMARK VINA RESULT:      -6.0      2.332      3.096
REMARK  6 active torsions:
REMARK  status: ('A' for Active; 'I' for Inactive)
REMARK    1  A    between atoms: O_1  and  C_2 
REMARK    2  A    between atoms: C_2  and  C_3 
REMARK    3  A    between atoms: C_2  and  C_14 
REMARK    4  A    between atoms: C_3  and  N_4 
REMARK    5  A    between atoms: C_17  and  O_18 
REMARK    6  A    between atoms: O_18  and  C_19 
ROOT
HETATM    1  C   UNL     1     -40.819 -52.134  12.253  1.00  0.00     0.169 C 
ENDROOT
BRANCH   1   2
HETATM    2  O   UNL     1     -40.673 -53.205  11.310  1.00  0.00    -0.389 OA
HETATM    3  H   UNL     1     -39.923 -53.756  11.585  1.00  0.00     0.210 HD
ENDBRANCH   1   2
BRANCH   1   4
HETATM    4  C   UNL     1     -40.087 -50.877  11.731  1.00  0.00     0.166 C 
BRANCH   4   5
HETATM    5  N   UNL     1     -39.057 -50.337  12.599  1.00  0.00    -0.338 N 
HETATM    6  C   UNL     1     -38.071 -51.074  13.198  1.00  0.00     0.184 A 
HETATM    7  N   UNL     1     -37.339 -50.352  14.013  1.00  0.00    -0.350 N 
HETATM    8  C   UNL     1     -37.865 -49.090  13.938  1.00  0.00     0.060 A 
ATOM      9  HN  UNL     1     -36.549 -50.663  14.579  1.00  0.00     0.166 HD
HETATM   10  C   UNL     1     -37.460 -47.926  14.608  1.00  0.00     0.032 A 
HETATM   11  C   UNL     1     -38.952 -49.040  13.063  1.00  0.00     0.062 A 
HETATM   12  C   UNL     1     -38.160 -46.736  14.378  1.00  0.00     0.002 A 
HETATM   13  C   UNL     1     -39.242 -46.708  13.501  1.00  0.00     0.002 A 
HETATM   14  C   UNL     1     -39.668 -47.862  12.827  1.00  0.00     0.032 A 
ENDBRANCH   4   5
ENDBRANCH   1   4
BRANCH   1  15
HETATM   15  C   UNL     1     -42.282 -51.968  12.629  1.00  0.00    -0.028 A 
HETATM   16  C   UNL     1     -43.190 -53.019  12.432  1.00  0.00     0.012 A 
HETATM   17  C   UNL     1     -44.542 -52.878  12.754  1.00  0.00     0.037 A 
HETATM   18  C   UNL     1     -45.019 -51.689  13.305  1.00  0.00     0.074 A 
HETATM   19  C   UNL     1     -44.129 -50.643  13.532  1.00  0.00     0.037 A 
HETATM   20  C   UNL     1     -42.772 -50.794  13.223  1.00  0.00     0.012 A 
BRANCH  18  21
HETATM   21  O   UNL     1     -46.361 -51.661  13.551  1.00  0.00    -0.290 OA
BRANCH  21  22
HETATM   22  C   UNL     1     -46.751 -52.022  14.864  1.00  0.00     0.505 C 
HETATM   23  F   UNL     1     -47.547 -51.051  15.377  1.00  0.00    -0.184 F 
HETATM   24  F   UNL     1     -47.515 -53.141  14.766  1.00  0.00    -0.184 F 
ENDBRANCH  21  22
ENDBRANCH  18  21
ENDBRANCH   1  15
TORSDOF 6
ENDMDL
MODEL 7
REMARK VINA RESULT:      -6.0      2.340      3.070
REMARK  6 active torsions:
REMARK  status: ('A' for Active; 'I' for Inactive)
REMARK    1  A    between atoms: O_1  and  C_2 
REMARK    2  A    between atoms: C_2  and  C_3 
REMARK    3  A    between atoms: C_2  and  C_14 
REMARK    4  A    between atoms: C_3  and  N_4 
REMARK    5  A    between atoms: C_17  and  O_18 
REMARK    6  A    between atoms: O_18  and  C_19 
ROOT
HETATM    1  C   UNL     1     -40.781 -54.031  15.178  1.00  0.00     0.169 C 
ENDROOT
BRANCH   1   2
HETATM    2  O   UNL     1     -40.568 -55.297  15.818  1.00  0.00    -0.389 OA
HETATM    3  H   UNL     1     -40.807 -56.000  15.193  1.00  0.00     0.210 HD
ENDBRANCH   1   2
BRANCH   1   4
HETATM    4  C   UNL     1     -39.955 -53.960  13.874  1.00  0.00     0.166 C 
BRANCH   4   5
HETATM    5  N   UNL     1     -40.119 -52.755  13.084  1.00  0.00    -0.338 N 
HETATM    6  C   UNL     1     -41.004 -52.611  12.048  1.00  0.00     0.184 A 
HETATM    7  N   UNL     1     -40.871 -51.457  11.439  1.00  0.00    -0.350 N 
HETATM    8  C   UNL     1     -39.861 -50.818  12.108  1.00  0.00     0.060 A 
ATOM      9  HN  UNL     1     -41.403 -51.110  10.641  1.00  0.00     0.166 HD
HETATM   10  C   UNL     1     -39.311 -49.549  11.870  1.00  0.00     0.032 A 
HETATM   11  C   UNL     1     -39.357 -51.605  13.146  1.00  0.00     0.062 A 
HETATM   12  C   UNL     1     -38.268 -49.101  12.688  1.00  0.00     0.002 A 
HETATM   13  C   UNL     1     -37.780 -49.902  13.718  1.00  0.00     0.002 A 
HETATM   14  C   UNL     1     -38.309 -51.175  13.968  1.00  0.00     0.032 A 
ENDBRANCH   4   5
ENDBRANCH   1   4
BRANCH   1  15
HETATM   15  C   UNL     1     -42.271 -53.752  15.061  1.00  0.00    -0.028 A 
HETATM   16  C   UNL     1     -42.793 -52.508  15.445  1.00  0.00     0.012 A 
HETATM   17  C   UNL     1     -44.162 -52.241  15.362  1.00  0.00     0.037 A 
HETATM   18  C   UNL     1     -45.043 -53.203  14.870  1.00  0.00     0.074 A 
HETATM   19  C   UNL     1     -44.542 -54.435  14.460  1.00  0.00     0.037 A 
HETATM   20  C   UNL     1     -43.167 -54.693  14.530  1.00  0.00     0.012 A 
BRANCH  18  21
HETATM   21  O   UNL     1     -46.358 -52.836  14.865  1.00  0.00    -0.290 OA
BRANCH  21  22
HETATM   22  C   UNL     1     -46.605 -51.441  14.824  1.00  0.00     0.505 C 
HETATM   23  F   UNL     1     -47.139 -51.117  13.620  1.00  0.00    -0.184 F 
HETATM   24  F   UNL     1     -47.554 -51.171  15.757  1.00  0.00    -0.184 F 
ENDBRANCH  21  22
ENDBRANCH  18  21
ENDBRANCH   1  15
TORSDOF 6
ENDMDL
MODEL 8
REMARK VINA RESULT:      -5.9      4.892      7.906
REMARK  6 active torsions:
REMARK  status: ('A' for Active; 'I' for Inactive)
REMARK    1  A    between atoms: O_1  and  C_2 
REMARK    2  A    between atoms: C_2  and  C_3 
REMARK    3  A    between atoms: C_2  and  C_14 
REMARK    4  A    between atoms: C_3  and  N_4 
REMARK    5  A    between atoms: C_17  and  O_18 
REMARK    6  A    between atoms: O_18  and  C_19 
ROOT
HETATM    1  C   UNL     1     -41.340 -49.311  11.012  1.00  0.00     0.169 C 
ENDROOT
BRANCH   1   2
HETATM    2  O   UNL     1     -40.384 -49.968  10.169  1.00  0.00    -0.389 OA
HETATM    3  H   UNL     1     -40.140 -49.362   9.450  1.00  0.00     0.210 HD
ENDBRANCH   1   2
BRANCH   1   4
HETATM    4  C   UNL     1     -41.316 -49.945  12.421  1.00  0.00     0.166 C 
BRANCH   4   5
HETATM    5  N   UNL     1     -41.932 -51.253  12.539  1.00  0.00    -0.338 N 
HETATM    6  C   UNL     1     -41.325 -52.436  12.212  1.00  0.00     0.184 A 
HETATM    7  N   UNL     1     -42.144 -53.457  12.314  1.00  0.00    -0.350 N 
HETATM    8  C   UNL     1     -43.332 -52.918  12.731  1.00  0.00     0.060 A 
ATOM      9  HN  UNL     1     -41.940 -54.438  12.125  1.00  0.00     0.166 HD
HETATM   10  C   UNL     1     -44.547 -53.565  12.997  1.00  0.00     0.032 A 
HETATM   11  C   UNL     1     -43.241 -51.532  12.878  1.00  0.00     0.062 A 
HETATM   12  C   UNL     1     -45.644 -52.800  13.410  1.00  0.00     0.002 A 
HETATM   13  C   UNL     1     -45.532 -51.419  13.550  1.00  0.00     0.002 A 
HETATM   14  C   UNL     1     -44.329 -50.751  13.282  1.00  0.00     0.032 A 
ENDBRANCH   4   5
ENDBRANCH   1   4
BRANCH   1  15
HETATM   15  C   UNL     1     -41.151 -47.804  10.935  1.00  0.00    -0.028 A 
HETATM   16  C   UNL     1     -42.146 -46.992  10.370  1.00  0.00     0.012 A 
HETATM   17  C   UNL     1     -41.980 -45.608  10.274  1.00  0.00     0.037 A 
HETATM   18  C   UNL     1     -40.827 -44.996  10.762  1.00  0.00     0.074 A 
HETATM   19  C   UNL     1     -39.839 -45.782  11.349  1.00  0.00     0.037 A 
HETATM   20  C   UNL     1     -40.015 -47.167  11.458  1.00  0.00     0.012 A 
BRANCH  18  21
HETATM   21  O   UNL     1     -40.768 -43.643  10.585  1.00  0.00    -0.290 OA
BRANCH  21  22
HETATM   22  C   UNL     1     -41.069 -42.863  11.729  1.00  0.00     0.505 C 
HETATM   23  F   UNL     1     -40.249 -41.783  11.761  1.00  0.00    -0.184 F 
HETATM   24  F   UNL     1     -42.332 -42.389  11.574  1.00  0.00    -0.184 F 
ENDBRANCH  21  22
ENDBRANCH  18  21
ENDBRANCH   1  15
TORSDOF 6
ENDMDL
MODEL 9
REMARK VINA RESULT:      -5.7      2.531      3.658
REMARK  6 active torsions:
REMARK  status: ('A' for Active; 'I' for Inactive)
REMARK    1  A    between atoms: O_1  and  C_2 
REMARK    2  A    between atoms: C_2  and  C_3 
REMARK    3  A    between atoms: C_2  and  C_14 
REMARK    4  A    between atoms: C_3  and  N_4 
REMARK    5  A    between atoms: C_17  and  O_18 
REMARK    6  A    between atoms: O_18  and  C_19 
ROOT
HETATM    1  C   UNL     1     -41.602 -49.742  12.743  1.00  0.00     0.169 C 
ENDROOT
BRANCH   1   2
HETATM    2  O   UNL     1     -40.338 -50.233  13.211  1.00  0.00    -0.389 OA
HETATM    3  H   UNL     1     -40.219 -51.137  12.879  1.00  0.00     0.210 HD
ENDBRANCH   1   2
BRANCH   1   4
HETATM    4  C   UNL     1     -41.420 -49.051  11.373  1.00  0.00     0.166 C 
BRANCH   4   5
HETATM    5  N   UNL     1     -41.980 -47.719  11.254  1.00  0.00    -0.338 N 
HETATM    6  C   UNL     1     -43.270 -47.441  10.888  1.00  0.00     0.184 A 
HETATM    7  N   UNL     1     -43.481 -46.152  10.758  1.00  0.00    -0.350 N 
HETATM    8  C   UNL     1     -42.281 -45.564  11.057  1.00  0.00     0.060 A 
ATOM      9  HN  UNL     1     -44.350 -45.689  10.492  1.00  0.00     0.166 HD
HETATM   10  C   UNL     1     -41.947 -44.202  11.071  1.00  0.00     0.032 A 
HETATM   11  C   UNL     1     -41.309 -46.517  11.368  1.00  0.00     0.062 A 
HETATM   12  C   UNL     1     -40.639 -43.831  11.404  1.00  0.00     0.002 A 
HETATM   13  C   UNL     1     -39.684 -44.798  11.712  1.00  0.00     0.002 A 
HETATM   14  C   UNL     1     -39.995 -46.165  11.695  1.00  0.00     0.032 A 
ENDBRANCH   4   5
ENDBRANCH   1   4
BRANCH   1  15
HETATM   15  C   UNL     1     -42.648 -50.842  12.822  1.00  0.00    -0.028 A 
HETATM   16  C   UNL     1     -42.328 -52.155  12.444  1.00  0.00     0.012 A 
HETATM   17  C   UNL     1     -43.282 -53.175  12.492  1.00  0.00     0.037 A 
HETATM   18  C   UNL     1     -44.575 -52.915  12.942  1.00  0.00     0.074 A 
HETATM   19  C   UNL     1     -44.906 -51.624  13.344  1.00  0.00     0.037 A 
HETATM   20  C   UNL     1     -43.943 -50.608  13.310  1.00  0.00     0.012 A 
BRANCH  18  21
HETATM   21  O   UNL     1     -45.424 -53.983  12.916  1.00  0.00    -0.290 OA
BRANCH  21  22
HETATM   22  C   UNL     1     -45.160 -54.999  13.868  1.00  0.00     0.505 C 
HETATM   23  F   UNL     1     -45.435 -54.530  15.110  1.00  0.00    -0.184 F 
HETATM   24  F   UNL     1     -46.032 -56.012  13.631  1.00  0.00    -0.184 F 
ENDBRANCH  21  22
ENDBRANCH  18  21
ENDBRANCH   1  15
TORSDOF 6
ENDMDL
