MODEL 1
REMARK VINA RESULT:      -6.0      0.000      0.000
REMARK  2 active torsions:
REMARK  status: ('A' for Active; 'I' for Inactive)
REMARK       I    between atoms: C_2  and  N_4 
REMARK    1  A    between atoms: C_7  and  N_10 
REMARK       I    between atoms: N_10  and  C_11 
REMARK       I    between atoms: C_11  and  N_13 
REMARK    2  A    between atoms: N_13  and  C_14 
ROOT
HETATM    1  N   UNL     1     -42.637 -54.123  14.383  1.00  0.00    -0.338 N 
HETATM    2  C   UNL     1     -43.491 -55.006  14.966  1.00  0.00     0.322 C 
HETATM    3  O   UNL     1     -43.139 -56.047  15.506  1.00  0.00    -0.247 OA
HETATM    4  N   UNL     1     -44.802 -54.603  15.009  1.00  0.00    -0.294 N 
HETATM    5  H   UNL     1     -43.107 -53.468  13.764  1.00  0.00     0.164 HD
HETATM    6  H   UNL     1     -45.381 -55.184  15.596  1.00  0.00     0.172 HD
ENDROOT
BRANCH   1   7
HETATM    7  C   UNL     1     -41.194 -54.229  14.321  1.00  0.00     0.089 C 
HETATM    8  C   UNL     1     -40.571 -53.220  15.296  1.00  0.00     0.045 C 
HETATM    9  C   UNL     1     -40.719 -51.781  14.807  1.00  0.00     0.127 C 
HETATM   10  N   UNL     1     -40.204 -51.640  13.446  1.00  0.00    -0.352 N 
HETATM   11  C   UNL     1     -39.392 -50.604  13.005  1.00  0.00     0.215 C 
HETATM   12  C   UNL     1     -40.785 -52.552  12.461  1.00  0.00     0.127 C 
HETATM   13  C   UNL     1     -38.955 -49.580  14.021  1.00  0.00     0.117 C 
HETATM   14  O   UNL     1     -39.035 -50.490  11.832  1.00  0.00    -0.274 OA
HETATM   15  C   UNL     1     -40.668 -54.008  12.901  1.00  0.00     0.045 C 
ENDBRANCH   1   7
BRANCH   4  16
HETATM   16  C   UNL     1     -45.378 -53.498  14.360  1.00  0.00     0.114 A 
HETATM   17  N   UNL     1     -45.446 -53.529  13.004  1.00  0.00    -0.352 N 
HETATM   18  C   UNL     1     -46.067 -52.516  12.367  1.00  0.00     0.089 A 
ATOM     19  HN  UNL     1     -45.036 -54.302  12.479  1.00  0.00     0.166 HD
HETATM   20  C   UNL     1     -46.629 -51.441  13.022  1.00  0.00     0.018 A 
HETATM   21  C   UNL     1     -46.529 -51.398  14.406  1.00  0.00     0.012 A 
HETATM   22  C   UNL     1     -45.875 -52.424  15.105  1.00  0.00    -0.018 A 
HETATM   23  C   UNL     1     -45.707 -52.307  16.591  1.00  0.00     0.052 C 
ENDBRANCH   4  16
TORSDOF 2
ENDMDL
MODEL 2
REMARK VINA RESULT:      -6.0      2.864      5.895
REMARK  2 active torsions:
REMARK  status: ('A' for Active; 'I' for Inactive)
REMARK       I    between atoms: C_2  and  N_4 
REMARK    1  A    between atoms: C_7  and  N_10 
REMARK       I    between atoms: N_10  and  C_11 
REMARK       I    between atoms: C_11  and  N_13 
REMARK    2  A    between atoms: N_13  and  C_14 
ROOT
HETATM    1  N   UNL     1     -42.546 -51.913  12.127  1.00  0.00    -0.338 N 
HETATM    2  C   UNL     1     -41.219 -52.015  11.853  1.00  0.00     0.322 C 
HETATM    3  O   UNL     1     -40.593 -53.068  11.867  1.00  0.00    -0.247 OA
HETATM    4  N   UNL     1     -40.619 -50.851  11.444  1.00  0.00    -0.294 N 
HETATM    5  H   UNL     1     -42.835 -50.960  12.330  1.00  0.00     0.164 HD
HETATM    6  H   UNL     1     -39.688 -50.986  11.079  1.00  0.00     0.172 HD
ENDROOT
BRANCH   1   7
HETATM    7  C   UNL     1     -43.449 -52.999  12.447  1.00  0.00     0.089 C 
HETATM    8  C   UNL     1     -44.896 -52.498  12.350  1.00  0.00     0.045 C 
HETATM    9  C   UNL     1     -45.255 -51.555  13.497  1.00  0.00     0.127 C 
HETATM   10  N   UNL     1     -44.958 -52.170  14.788  1.00  0.00    -0.352 N 
HETATM   11  C   UNL     1     -45.799 -52.150  15.893  1.00  0.00     0.215 C 
HETATM   12  C   UNL     1     -43.582 -52.638  14.955  1.00  0.00     0.127 C 
HETATM   13  C   UNL     1     -47.148 -51.499  15.730  1.00  0.00     0.117 C 
HETATM   14  O   UNL     1     -45.479 -52.626  16.983  1.00  0.00    -0.274 OA
HETATM   15  C   UNL     1     -43.167 -53.585  13.833  1.00  0.00     0.045 C 
ENDBRANCH   1   7
BRANCH   4  16
HETATM   16  C   UNL     1     -41.163 -49.556  11.466  1.00  0.00     0.114 A 
HETATM   17  N   UNL     1     -41.573 -49.025  10.285  1.00  0.00    -0.352 N 
HETATM   18  C   UNL     1     -42.170 -47.815  10.296  1.00  0.00     0.089 A 
ATOM     19  HN  UNL     1     -41.433 -49.529   9.410  1.00  0.00     0.166 HD
HETATM   20  C   UNL     1     -42.377 -47.084  11.446  1.00  0.00     0.018 A 
HETATM   21  C   UNL     1     -41.927 -47.617  12.646  1.00  0.00     0.012 A 
HETATM   22  C   UNL     1     -41.285 -48.864  12.675  1.00  0.00    -0.018 A 
HETATM   23  C   UNL     1     -40.733 -49.374  13.973  1.00  0.00     0.052 C 
ENDBRANCH   4  16
TORSDOF 2
ENDMDL
MODEL 3
REMARK VINA RESULT:      -5.9      2.682      3.854
REMARK  2 active torsions:
REMARK  status: ('A' for Active; 'I' for Inactive)
REMARK       I    between atoms: C_2  and  N_4 
REMARK    1  A    between atoms: C_7  and  N_10 
REMARK       I    between atoms: N_10  and  C_11 
REMARK       I    between atoms: C_11  and  N_13 
REMARK    2  A    between atoms: N_13  and  C_14 
ROOT
HETATM    1  N   UNL     1     -41.773 -50.939  11.806  1.00  0.00    -0.338 N 
HETATM    2  C   UNL     1     -41.548 -52.235  12.145  1.00  0.00     0.322 C 
HETATM    3  O   UNL     1     -40.493 -52.824  11.946  1.00  0.00    -0.247 OA
HETATM    4  N   UNL     1     -42.566 -52.839  12.840  1.00  0.00    -0.294 N 
HETATM    5  H   UNL     1     -42.761 -50.698  11.797  1.00  0.00     0.164 HD
HETATM    6  H   UNL     1     -42.309 -53.732  13.231  1.00  0.00     0.172 HD
ENDROOT
BRANCH   1   7
HETATM    7  C   UNL     1     -40.827 -50.028  11.194  1.00  0.00     0.089 C 
HETATM    8  C   UNL     1     -39.651 -49.801  12.153  1.00  0.00     0.045 C 
HETATM    9  C   UNL     1     -40.047 -48.948  13.357  1.00  0.00     0.127 C 
HETATM   10  N   UNL     1     -40.671 -47.699  12.925  1.00  0.00    -0.352 N 
HETATM   11  C   UNL     1     -40.386 -46.445  13.448  1.00  0.00     0.215 C 
HETATM   12  C   UNL     1     -41.822 -47.850  12.036  1.00  0.00     0.127 C 
HETATM   13  C   UNL     1     -39.308 -46.355  14.497  1.00  0.00     0.117 C 
HETATM   14  O   UNL     1     -40.984 -45.426  13.100  1.00  0.00    -0.274 OA
HETATM   15  C   UNL     1     -41.483 -48.698  10.813  1.00  0.00     0.045 C 
ENDBRANCH   1   7
BRANCH   4  16
HETATM   16  C   UNL     1     -43.861 -52.342  13.063  1.00  0.00     0.114 A 
HETATM   17  N   UNL     1     -44.819 -52.652  12.153  1.00  0.00    -0.352 N 
HETATM   18  C   UNL     1     -46.085 -52.251  12.389  1.00  0.00     0.089 A 
ATOM     19  HN  UNL     1     -44.588 -53.176  11.309  1.00  0.00     0.166 HD
HETATM   20  C   UNL     1     -46.456 -51.532  13.506  1.00  0.00     0.018 A 
HETATM   21  C   UNL     1     -45.466 -51.189  14.417  1.00  0.00     0.012 A 
HETATM   22  C   UNL     1     -44.134 -51.572  14.197  1.00  0.00    -0.018 A 
HETATM   23  C   UNL     1     -43.074 -51.114  15.155  1.00  0.00     0.052 C 
ENDBRANCH   4  16
TORSDOF 2
ENDMDL
MODEL 4
REMARK VINA RESULT:      -5.8      2.635      6.142
REMARK  2 active torsions:
REMARK  status: ('A' for Active; 'I' for Inactive)
REMARK       I    between atoms: C_2  and  N_4 
REMARK    1  A    between atoms: C_7  and  N_10 
REMARK       I    between atoms: N_10  and  C_11 
REMARK       I    between atoms: C_11  and  N_13 
REMARK    2  A    between atoms: N_13  and  C_14 
ROOT
HETATM    1  N   UNL     1     -40.011 -51.102  12.775  1.00  0.00    -0.338 N 
HETATM    2  C   UNL     1     -38.905 -50.628  12.144  1.00  0.00     0.322 C 
HETATM    3  O   UNL     1     -37.821 -51.198  12.137  1.00  0.00    -0.247 OA
HETATM    4  N   UNL     1     -39.103 -49.490  11.403  1.00  0.00    -0.294 N 
HETATM    5  H   UNL     1     -40.728 -50.392  12.904  1.00  0.00     0.164 HD
HETATM    6  H   UNL     1     -38.322 -49.259  10.807  1.00  0.00     0.172 HD
ENDROOT
BRANCH   1   7
HETATM    7  C   UNL     1     -40.122 -52.346  13.508  1.00  0.00     0.089 C 
HETATM    8  C   UNL     1     -40.872 -53.374  12.650  1.00  0.00     0.045 C 
HETATM    9  C   UNL     1     -42.359 -53.045  12.527  1.00  0.00     0.127 C 
HETATM   10  N   UNL     1     -42.962 -52.867  13.846  1.00  0.00    -0.352 N 
HETATM   11  C   UNL     1     -44.180 -53.401  14.244  1.00  0.00     0.215 C 
HETATM   12  C   UNL     1     -42.312 -51.873  14.701  1.00  0.00     0.127 C 
HETATM   13  C   UNL     1     -44.908 -54.284  13.263  1.00  0.00     0.117 C 
HETATM   14  O   UNL     1     -44.682 -53.170  15.344  1.00  0.00    -0.274 OA
HETATM   15  C   UNL     1     -40.820 -52.152  14.857  1.00  0.00     0.045 C 
ENDBRANCH   1   7
BRANCH   4  16
HETATM   16  C   UNL     1     -40.244 -48.670  11.383  1.00  0.00     0.114 A 
HETATM   17  N   UNL     1     -41.191 -48.932  10.446  1.00  0.00    -0.352 N 
HETATM   18  C   UNL     1     -42.328 -48.207  10.461  1.00  0.00     0.089 A 
ATOM     19  HN  UNL     1     -41.046 -49.660   9.747  1.00  0.00     0.166 HD
HETATM   20  C   UNL     1     -42.575 -47.205  11.374  1.00  0.00     0.018 A 
HETATM   21  C   UNL     1     -41.590 -46.919  12.309  1.00  0.00     0.012 A 
HETATM   22  C   UNL     1     -40.385 -47.638  12.315  1.00  0.00    -0.018 A 
HETATM   23  C   UNL     1     -39.305 -47.250  13.282  1.00  0.00     0.052 C 
ENDBRANCH   4  16
TORSDOF 2
ENDMDL
MODEL 5
REMARK VINA RESULT:      -5.7      1.835      2.180
REMARK  2 active torsions:
REMARK  status: ('A' for Active; 'I' for Inactive)
REMARK       I    between atoms: C_2  and  N_4 
REMARK    1  A    between atoms: C_7  and  N_10 
REMARK       I    between atoms: N_10  and  C_11 
REMARK       I    between atoms: C_11  and  N_13 
REMARK    2  A    between atoms: N_13  and  C_14 
ROOT
HETATM    1  N   UNL     1     -43.572 -53.583  16.437  1.00  0.00    -0.338 N 
HETATM    2  C   UNL     1     -44.671 -54.237  16.896  1.00  0.00     0.322 C 
HETATM    3  O   UNL     1     -44.672 -54.979  17.870  1.00  0.00    -0.247 OA
HETATM    4  N   UNL     1     -45.843 -53.928  16.251  1.00  0.00    -0.294 N 
HETATM    5  H   UNL     1     -43.687 -53.235  15.488  1.00  0.00     0.164 HD
HETATM    6  H   UNL     1     -46.663 -54.285  16.717  1.00  0.00     0.172 HD
ENDROOT
BRANCH   1   7
HETATM    7  C   UNL     1     -42.244 -53.613  17.012  1.00  0.00     0.089 C 
HETATM    8  C   UNL     1     -41.589 -52.236  16.846  1.00  0.00     0.045 C 
HETATM    9  C   UNL     1     -41.205 -51.953  15.395  1.00  0.00     0.127 C 
HETATM   10  N   UNL     1     -40.385 -53.035  14.854  1.00  0.00    -0.352 N 
HETATM   11  C   UNL     1     -39.233 -52.861  14.100  1.00  0.00     0.215 C 
HETATM   12  C   UNL     1     -40.971 -54.372  14.952  1.00  0.00     0.127 C 
HETATM   13  C   UNL     1     -38.755 -51.450  13.872  1.00  0.00     0.117 C 
HETATM   14  O   UNL     1     -38.609 -53.802  13.608  1.00  0.00    -0.274 OA
HETATM   15  C   UNL     1     -41.377 -54.708  16.384  1.00  0.00     0.045 C 
ENDBRANCH   1   7
BRANCH   4  16
HETATM   16  C   UNL     1     -45.998 -53.182  15.070  1.00  0.00     0.114 A 
HETATM   17  N   UNL     1     -45.479 -53.698  13.927  1.00  0.00    -0.352 N 
HETATM   18  C   UNL     1     -45.687 -53.035  12.770  1.00  0.00     0.089 A 
ATOM     19  HN  UNL     1     -44.945 -54.566  13.941  1.00  0.00     0.166 HD
HETATM   20  C   UNL     1     -46.390 -51.853  12.691  1.00  0.00     0.018 A 
HETATM   21  C   UNL     1     -46.890 -51.312  13.868  1.00  0.00     0.012 A 
HETATM   22  C   UNL     1     -46.680 -51.962  15.094  1.00  0.00    -0.018 A 
HETATM   23  C   UNL     1     -47.158 -51.311  16.358  1.00  0.00     0.052 C 
ENDBRANCH   4  16
TORSDOF 2
ENDMDL
MODEL 6
REMARK VINA RESULT:      -5.7      2.905      3.818
REMARK  2 active torsions:
REMARK  status: ('A' for Active; 'I' for Inactive)
REMARK       I    between atoms: C_2  and  N_4 
REMARK    1  A    between atoms: C_7  and  N_10 
REMARK       I    between atoms: N_10  and  C_11 
REMARK       I    between atoms: C_11  and  N_13 
REMARK    2  A    between atoms: N_13  and  C_14 
ROOT
HETATM    1  N   UNL     1     -41.802 -51.599  12.981  1.00  0.00    -0.338 N 
HETATM    2  C   UNL     1     -41.562 -52.789  12.371  1.00  0.00     0.322 C 
HETATM    3  O   UNL     1     -40.502 -53.083  11.834  1.00  0.00    -0.247 OA
HETATM    4  N   UNL     1     -42.570 -53.713  12.483  1.00  0.00    -0.294 N 
HETATM    5  H   UNL     1     -42.793 -51.424  13.131  1.00  0.00     0.164 HD
HETATM    6  H   UNL     1     -42.302 -54.637  12.180  1.00  0.00     0.172 HD
ENDROOT
BRANCH   1   7
HETATM    7  C   UNL     1     -40.870 -50.501  13.136  1.00  0.00     0.089 C 
HETATM    8  C   UNL     1     -41.271 -49.665  14.357  1.00  0.00     0.045 C 
HETATM    9  C   UNL     1     -42.541 -48.854  14.107  1.00  0.00     0.127 C 
HETATM   10  N   UNL     1     -42.414 -48.052  12.893  1.00  0.00    -0.352 N 
HETATM   11  C   UNL     1     -42.791 -46.721  12.775  1.00  0.00     0.215 C 
HETATM   12  C   UNL     1     -42.067 -48.799  11.684  1.00  0.00     0.127 C 
HETATM   13  C   UNL     1     -43.313 -46.031  14.010  1.00  0.00     0.117 C 
HETATM   14  O   UNL     1     -42.727 -46.101  11.712  1.00  0.00    -0.274 OA
HETATM   15  C   UNL     1     -40.803 -49.631  11.878  1.00  0.00     0.045 C 
ENDBRANCH   1   7
BRANCH   4  16
HETATM   16  C   UNL     1     -43.869 -53.506  12.976  1.00  0.00     0.114 A 
HETATM   17  N   UNL     1     -44.695 -52.705  12.256  1.00  0.00    -0.352 N 
HETATM   18  C   UNL     1     -45.970 -52.557  12.669  1.00  0.00     0.089 A 
ATOM     19  HN  UNL     1     -44.360 -52.226  11.420  1.00  0.00     0.166 HD
HETATM   20  C   UNL     1     -46.477 -53.170  13.795  1.00  0.00     0.018 A 
HETATM   21  C   UNL     1     -45.619 -53.962  14.547  1.00  0.00     0.012 A 
HETATM   22  C   UNL     1     -44.280 -54.127  14.159  1.00  0.00    -0.018 A 
HETATM   23  C   UNL     1     -43.356 -54.918  15.037  1.00  0.00     0.052 C 
ENDBRANCH   4  16
TORSDOF 2
ENDMDL
MODEL 7
REMARK VINA RESULT:      -5.6      2.148      5.799
REMARK  2 active torsions:
REMARK  status: ('A' for Active; 'I' for Inactive)
REMARK       I    between atoms: C_2  and  N_4 
REMARK    1  A    between atoms: C_7  and  N_10 
REMARK       I    between atoms: N_10  and  C_11 
REMARK       I    between atoms: C_11  and  N_13 
REMARK    2  A    between atoms: N_13  and  C_14 
ROOT
HETATM    1  N   UNL     1     -41.509 -53.156  14.057  1.00  0.00    -0.338 N 
HETATM    2  C   UNL     1     -40.227 -53.540  14.297  1.00  0.00     0.322 C 
HETATM    3  O   UNL     1     -39.914 -54.607  14.811  1.00  0.00    -0.247 OA
HETATM    4  N   UNL     1     -39.266 -52.683  13.822  1.00  0.00    -0.294 N 
HETATM    5  H   UNL     1     -41.596 -52.158  13.881  1.00  0.00     0.164 HD
HETATM    6  H   UNL     1     -38.335 -53.069  13.853  1.00  0.00     0.172 HD
ENDROOT
BRANCH   1   7
HETATM    7  C   UNL     1     -42.706 -53.925  14.325  1.00  0.00     0.089 C 
HETATM    8  C   UNL     1     -43.487 -54.117  13.018  1.00  0.00     0.045 C 
HETATM    9  C   UNL     1     -44.145 -52.822  12.546  1.00  0.00     0.127 C 
HETATM   10  N   UNL     1     -44.961 -52.237  13.608  1.00  0.00    -0.352 N 
HETATM   11  C   UNL     1     -46.240 -51.724  13.439  1.00  0.00     0.215 C 
HETATM   12  C   UNL     1     -44.263 -51.998  14.871  1.00  0.00     0.127 C 
HETATM   13  C   UNL     1     -46.860 -51.834  12.069  1.00  0.00     0.117 C 
HETATM   14  O   UNL     1     -46.866 -51.180  14.349  1.00  0.00    -0.274 OA
HETATM   15  C   UNL     1     -43.583 -53.261  15.390  1.00  0.00     0.045 C 
ENDBRANCH   1   7
BRANCH   4  16
HETATM   16  C   UNL     1     -39.454 -51.391  13.304  1.00  0.00     0.114 A 
HETATM   17  N   UNL     1     -39.825 -51.282  12.003  1.00  0.00    -0.352 N 
HETATM   18  C   UNL     1     -40.087 -50.055  11.509  1.00  0.00     0.089 A 
ATOM     19  HN  UNL     1     -39.905 -52.110  11.412  1.00  0.00     0.166 HD
HETATM   20  C   UNL     1     -39.986 -48.900  12.255  1.00  0.00     0.018 A 
HETATM   21  C   UNL     1     -39.574 -49.014  13.576  1.00  0.00     0.012 A 
HETATM   22  C   UNL     1     -39.275 -50.272  14.123  1.00  0.00    -0.018 A 
HETATM   23  C   UNL     1     -38.751 -50.354  15.526  1.00  0.00     0.052 C 
ENDBRANCH   4  16
TORSDOF 2
ENDMDL
MODEL 8
REMARK VINA RESULT:      -5.4      2.070      6.370
REMARK  2 active torsions:
REMARK  status: ('A' for Active; 'I' for Inactive)
REMARK       I    between atoms: C_2  and  N_4 
REMARK    1  A    between atoms: C_7  and  N_10 
REMARK       I    between atoms: N_10  and  C_11 
REMARK       I    between atoms: C_11  and  N_13 
REMARK    2  A    between atoms: N_13  and  C_14 
ROOT
HETATM    1  N   UNL     1     -40.478 -52.384  13.415  1.00  0.00    -0.338 N 
HETATM    2  C   UNL     1     -39.207 -52.716  13.764  1.00  0.00     0.322 C 
HETATM    3  O   UNL     1     -38.776 -53.862  13.779  1.00  0.00    -0.247 OA
HETATM    4  N   UNL     1     -38.375 -51.652  14.007  1.00  0.00    -0.294 N 
HETATM    5  H   UNL     1     -40.737 -51.446  13.710  1.00  0.00     0.164 HD
HETATM    6  H   UNL     1     -37.404 -51.913  14.089  1.00  0.00     0.172 HD
ENDROOT
BRANCH   1   7
HETATM    7  C   UNL     1     -41.520 -53.290  12.978  1.00  0.00     0.089 C 
HETATM    8  C   UNL     1     -42.608 -52.494  12.246  1.00  0.00     0.045 C 
HETATM    9  C   UNL     1     -43.435 -51.637  13.203  1.00  0.00     0.127 C 
HETATM   10  N   UNL     1     -43.968 -52.447  14.296  1.00  0.00    -0.352 N 
HETATM   11  C   UNL     1     -45.271 -52.383  14.772  1.00  0.00     0.215 C 
HETATM   12  C   UNL     1     -42.974 -53.204  15.055  1.00  0.00     0.127 C 
HETATM   13  C   UNL     1     -46.226 -51.454  14.067  1.00  0.00     0.117 C 
HETATM   14  O   UNL     1     -45.660 -53.038  15.739  1.00  0.00    -0.274 OA
HETATM   15  C   UNL     1     -42.115 -54.079  14.146  1.00  0.00     0.045 C 
ENDBRANCH   1   7
BRANCH   4  16
HETATM   16  C   UNL     1     -38.731 -50.298  14.125  1.00  0.00     0.114 A 
HETATM   17  N   UNL     1     -39.361 -49.909  15.263  1.00  0.00    -0.352 N 
HETATM   18  C   UNL     1     -39.639 -48.600  15.430  1.00  0.00     0.089 A 
ATOM     19  HN  UNL     1     -39.617 -50.591  15.976  1.00  0.00     0.166 HD
HETATM   20  C   UNL     1     -39.326 -47.634  14.497  1.00  0.00     0.018 A 
HETATM   21  C   UNL     1     -38.712 -48.042  13.320  1.00  0.00     0.012 A 
HETATM   22  C   UNL     1     -38.422 -49.397  13.101  1.00  0.00    -0.018 A 
HETATM   23  C   UNL     1     -37.836 -49.817  11.786  1.00  0.00     0.052 C 
ENDBRANCH   4  16
TORSDOF 2
ENDMDL
MODEL 9
REMARK VINA RESULT:      -5.2      2.014      2.407
REMARK  2 active torsions:
REMARK  status: ('A' for Active; 'I' for Inactive)
REMARK       I    between atoms: C_2  and  N_4 
REMARK    1  A    between atoms: C_7  and  N_10 
REMARK       I    between atoms: N_10  and  C_11 
REMARK       I    between atoms: C_11  and  N_13 
REMARK    2  A    between atoms: N_13  and  C_14 
ROOT
HETATM    1  N   UNL     1     -41.785 -53.441  14.351  1.00  0.00    -0.338 N 
HETATM    2  C   UNL     1     -41.884 -53.958  13.098  1.00  0.00     0.322 C 
HETATM    3  O   UNL     1     -40.988 -54.577  12.538  1.00  0.00    -0.247 OA
HETATM    4  N   UNL     1     -43.120 -53.835  12.515  1.00  0.00    -0.294 N 
HETATM    5  H   UNL     1     -42.501 -52.746  14.550  1.00  0.00     0.164 HD
HETATM    6  H   UNL     1     -43.220 -54.375  11.669  1.00  0.00     0.172 HD
ENDROOT
BRANCH   1   7
HETATM    7  C   UNL     1     -40.650 -53.549  15.245  1.00  0.00     0.089 C 
HETATM    8  C   UNL     1     -40.822 -52.557  16.402  1.00  0.00     0.045 C 
HETATM    9  C   UNL     1     -40.626 -51.110  15.953  1.00  0.00     0.127 C 
HETATM   10  N   UNL     1     -39.350 -50.950  15.260  1.00  0.00    -0.352 N 
HETATM   11  C   UNL     1     -38.454 -49.910  15.469  1.00  0.00     0.215 C 
HETATM   12  C   UNL     1     -39.140 -51.846  14.123  1.00  0.00     0.127 C 
HETATM   13  C   UNL     1     -38.794 -48.902  16.537  1.00  0.00     0.117 C 
HETATM   14  O   UNL     1     -37.420 -49.779  14.814  1.00  0.00    -0.274 OA
HETATM   15  C   UNL     1     -39.327 -53.309  14.514  1.00  0.00     0.045 C 
ENDBRANCH   1   7
BRANCH   4  16
HETATM   16  C   UNL     1     -44.211 -53.080  12.976  1.00  0.00     0.114 A 
HETATM   17  N   UNL     1     -44.153 -51.732  12.825  1.00  0.00    -0.352 N 
HETATM   18  C   UNL     1     -45.224 -50.997  13.189  1.00  0.00     0.089 A 
ATOM     19  HN  UNL     1     -43.319 -51.285  12.446  1.00  0.00     0.166 HD
HETATM   20  C   UNL     1     -46.374 -51.543  13.717  1.00  0.00     0.018 A 
HETATM   21  C   UNL     1     -46.416 -52.919  13.900  1.00  0.00     0.012 A 
HETATM   22  C   UNL     1     -45.315 -53.717  13.551  1.00  0.00    -0.018 A 
HETATM   23  C   UNL     1     -45.358 -55.189  13.839  1.00  0.00     0.052 C 
ENDBRANCH   4  16
TORSDOF 2
ENDMDL
