MODEL 1
REMARK VINA RESULT:      -5.7      0.000      0.000
REMARK  9 active torsions:
REMARK  status: ('A' for Active; 'I' for Inactive)
REMARK    1  A    between atoms: O_1  and  C_2 
REMARK    2  A    between atoms: C_2  and  C_3 
REMARK    3  A    between atoms: C_2  and  C_16 
REMARK    4  A    between atoms: C_3  and  O_4 
REMARK    5  A    between atoms: O_4  and  C_5 
REMARK    6  A    between atoms: C_8  and  C_9 
REMARK    7  A    between atoms: C_9  and  C_10 
REMARK    8  A    between atoms: C_10  and  N_11 
REMARK    9  A    between atoms: C_16  and  N_17 
ROOT
HETATM    1  C   UNL     1     -39.818 -54.605  14.389  1.00  0.00     0.160 C 
ENDROOT
BRANCH   1   2
HETATM    2  O   UNL     1     -38.633 -55.332  14.730  1.00  0.00    -0.392 OA
HETATM    3  H   UNL     1     -38.638 -56.142  14.185  1.00  0.00     0.210 HD
ENDBRANCH   1   2
BRANCH   1   4
HETATM    4  C   UNL     1     -40.722 -54.542  15.618  1.00  0.00     0.209 C 
BRANCH   4   5
HETATM    5  O   UNL     1     -41.983 -55.188  15.402  1.00  0.00    -0.349 OA
BRANCH   5   6
HETATM    6  C   UNL     1     -43.015 -54.304  15.161  1.00  0.00     0.068 A 
HETATM    7  C   UNL     1     -43.340 -53.228  15.992  1.00  0.00     0.037 A 
HETATM    8  C   UNL     1     -44.396 -52.378  15.688  1.00  0.00     0.011 A 
HETATM    9  C   UNL     1     -45.155 -52.586  14.536  1.00  0.00    -0.046 A 
HETATM   10  C   UNL     1     -44.829 -53.657  13.688  1.00  0.00     0.011 A 
HETATM   11  C   UNL     1     -43.766 -54.514  14.005  1.00  0.00     0.037 A 
BRANCH   9  12
HETATM   12  C   UNL     1     -46.243 -51.599  14.213  1.00  0.00     0.142 C 
BRANCH  12  13
HETATM   13  C   UNL     1     -46.565 -51.615  12.728  1.00  0.00    -0.073 C 
BRANCH  13  14
HETATM   14  N   UNL     1     -46.831 -51.629  11.496  1.00  0.00    -0.369 N 
ATOM     15  HN2 UNL     1     -46.616 -51.650  12.492  1.00  0.00     0.165 HD
ATOM     16  HN1 UNL     1     -47.046 -51.640  10.499  1.00  0.00     0.165 HD
ENDBRANCH  13  14
ENDBRANCH  12  13
ENDBRANCH   9  12
ENDBRANCH   5   6
ENDBRANCH   4   5
ENDBRANCH   1   4
BRANCH   1  17
HETATM   17  C   UNL     1     -39.451 -53.161  14.012  1.00  0.00     0.164 C 
BRANCH  17  18
HETATM   18  N   UNL     1     -40.494 -52.494  13.267  1.00  0.00    -0.339 N 
HETATM   19  C   UNL     1     -40.990 -52.923  12.068  1.00  0.00     0.184 A 
HETATM   20  N   UNL     1     -42.000 -52.182  11.671  1.00  0.00    -0.350 N 
HETATM   21  C   UNL     1     -42.158 -51.238  12.656  1.00  0.00     0.060 A 
ATOM     22  HN  UNL     1     -42.547 -52.286  10.816  1.00  0.00     0.166 HD
HETATM   23  C   UNL     1     -43.121 -50.225  12.770  1.00  0.00     0.032 A 
HETATM   24  C   UNL     1     -41.189 -51.376  13.650  1.00  0.00     0.062 A 
HETATM   25  C   UNL     1     -43.071 -49.372  13.878  1.00  0.00     0.002 A 
HETATM   26  C   UNL     1     -42.067 -49.504  14.840  1.00  0.00     0.002 A 
HETATM   27  C   UNL     1     -41.099 -50.510  14.746  1.00  0.00     0.032 A 
ENDBRANCH  17  18
ENDBRANCH   1  17
TORSDOF 9
ENDMDL
MODEL 2
REMARK VINA RESULT:      -5.7      2.642      4.322
REMARK  9 active torsions:
REMARK  status: ('A' for Active; 'I' for Inactive)
REMARK    1  A    between atoms: O_1  and  C_2 
REMARK    2  A    between atoms: C_2  and  C_3 
REMARK    3  A    between atoms: C_2  and  C_16 
REMARK    4  A    between atoms: C_3  and  O_4 
REMARK    5  A    between atoms: O_4  and  C_5 
REMARK    6  A    between atoms: C_8  and  C_9 
REMARK    7  A    between atoms: C_9  and  C_10 
REMARK    8  A    between atoms: C_10  and  N_11 
REMARK    9  A    between atoms: C_16  and  N_17 
ROOT
HETATM    1  C   UNL     1     -40.866 -50.940  11.895  1.00  0.00     0.160 C 
ENDROOT
BRANCH   1   2
HETATM    2  O   UNL     1     -40.338 -50.375  10.689  1.00  0.00    -0.392 OA
HETATM    3  H   UNL     1     -39.367 -50.443  10.754  1.00  0.00     0.210 HD
ENDBRANCH   1   2
BRANCH   1   4
HETATM    4  C   UNL     1     -42.186 -50.245  12.221  1.00  0.00     0.209 C 
BRANCH   4   5
HETATM    5  O   UNL     1     -42.360 -50.036  13.628  1.00  0.00    -0.349 OA
BRANCH   5   6
HETATM    6  C   UNL     1     -43.568 -50.502  14.104  1.00  0.00     0.068 A 
HETATM    7  C   UNL     1     -44.699 -50.715  13.309  1.00  0.00     0.037 A 
HETATM    8  C   UNL     1     -45.886 -51.183  13.857  1.00  0.00     0.011 A 
HETATM    9  C   UNL     1     -45.968 -51.455  15.223  1.00  0.00    -0.046 A 
HETATM   10  C   UNL     1     -44.835 -51.256  16.029  1.00  0.00     0.011 A 
HETATM   11  C   UNL     1     -43.643 -50.776  15.470  1.00  0.00     0.037 A 
BRANCH   9  12
HETATM   12  C   UNL     1     -47.253 -52.026  15.758  1.00  0.00     0.142 C 
BRANCH  12  13
HETATM   13  C   UNL     1     -47.823 -51.140  16.854  1.00  0.00    -0.073 C 
BRANCH  13  14
HETATM   14  N   UNL     1     -48.297 -50.405  17.762  1.00  0.00    -0.369 N 
ATOM     15  HN2 UNL     1     -47.938 -50.991  17.008  1.00  0.00     0.165 HD
ATOM     16  HN1 UNL     1     -48.680 -49.811  18.497  1.00  0.00     0.165 HD
ENDBRANCH  13  14
ENDBRANCH  12  13
ENDBRANCH   9  12
ENDBRANCH   5   6
ENDBRANCH   4   5
ENDBRANCH   1   4
BRANCH   1  17
HETATM   17  C   UNL     1     -41.170 -52.431  11.679  1.00  0.00     0.164 C 
BRANCH  17  18
HETATM   18  N   UNL     1     -41.429 -53.134  12.914  1.00  0.00    -0.339 N 
HETATM   19  C   UNL     1     -40.544 -53.238  13.951  1.00  0.00     0.184 A 
HETATM   20  N   UNL     1     -41.081 -53.844  14.985  1.00  0.00    -0.350 N 
HETATM   21  C   UNL     1     -42.364 -54.142  14.595  1.00  0.00     0.060 A 
ATOM     22  HN  UNL     1     -40.641 -54.049  15.882  1.00  0.00     0.166 HD
HETATM   23  C   UNL     1     -43.397 -54.746  15.327  1.00  0.00     0.032 A 
HETATM   24  C   UNL     1     -42.596 -53.755  13.276  1.00  0.00     0.062 A 
HETATM   25  C   UNL     1     -44.632 -54.953  14.701  1.00  0.00     0.002 A 
HETATM   26  C   UNL     1     -44.828 -54.593  13.366  1.00  0.00     0.002 A 
HETATM   27  C   UNL     1     -43.811 -53.986  12.620  1.00  0.00     0.032 A 
ENDBRANCH  17  18
ENDBRANCH   1  17
TORSDOF 9
ENDMDL
MODEL 3
REMARK VINA RESULT:      -5.6      1.783      3.207
REMARK  9 active torsions:
REMARK  status: ('A' for Active; 'I' for Inactive)
REMARK    1  A    between atoms: O_1  and  C_2 
REMARK    2  A    between atoms: C_2  and  C_3 
REMARK    3  A    between atoms: C_2  and  C_16 
REMARK    4  A    between atoms: C_3  and  O_4 
REMARK    5  A    between atoms: O_4  and  C_5 
REMARK    6  A    between atoms: C_8  and  C_9 
REMARK    7  A    between atoms: C_9  and  C_10 
REMARK    8  A    between atoms: C_10  and  N_11 
REMARK    9  A    between atoms: C_16  and  N_17 
ROOT
HETATM    1  C   UNL     1     -39.847 -51.623  15.275  1.00  0.00     0.160 C 
ENDROOT
BRANCH   1   2
HETATM    2  O   UNL     1     -38.574 -51.424  15.901  1.00  0.00    -0.392 OA
HETATM    3  H   UNL     1     -37.936 -51.253  15.183  1.00  0.00     0.210 HD
ENDBRANCH   1   2
BRANCH   1   4
HETATM    4  C   UNL     1     -40.376 -50.270  14.807  1.00  0.00     0.209 C 
BRANCH   4   5
HETATM    5  O   UNL     1     -41.394 -49.752  15.673  1.00  0.00    -0.349 OA
BRANCH   5   6
HETATM    6  C   UNL     1     -42.660 -50.198  15.354  1.00  0.00     0.068 A 
HETATM    7  C   UNL     1     -43.524 -50.827  16.257  1.00  0.00     0.037 A 
HETATM    8  C   UNL     1     -44.787 -51.254  15.866  1.00  0.00     0.011 A 
HETATM    9  C   UNL     1     -45.218 -51.058  14.554  1.00  0.00    -0.046 A 
HETATM   10  C   UNL     1     -44.363 -50.417  13.642  1.00  0.00     0.011 A 
HETATM   11  C   UNL     1     -43.088 -49.995  14.042  1.00  0.00     0.037 A 
BRANCH   9  12
HETATM   12  C   UNL     1     -46.618 -51.475  14.195  1.00  0.00     0.142 C 
BRANCH  12  13
HETATM   13  C   UNL     1     -46.727 -51.784  12.711  1.00  0.00    -0.073 C 
BRANCH  13  14
HETATM   14  N   UNL     1     -46.817 -52.042  11.480  1.00  0.00    -0.369 N 
ATOM     15  HN2 UNL     1     -46.776 -51.829  12.477  1.00  0.00     0.165 HD
ATOM     16  HN1 UNL     1     -46.890 -52.250  10.485  1.00  0.00     0.165 HD
ENDBRANCH  13  14
ENDBRANCH  12  13
ENDBRANCH   9  12
ENDBRANCH   5   6
ENDBRANCH   4   5
ENDBRANCH   1   4
BRANCH   1  17
HETATM   17  C   UNL     1     -39.680 -52.509  14.031  1.00  0.00     0.164 C 
BRANCH  17  18
HETATM   18  N   UNL     1     -40.922 -52.722  13.325  1.00  0.00    -0.339 N 
HETATM   19  C   UNL     1     -41.173 -52.304  12.048  1.00  0.00     0.184 A 
HETATM   20  N   UNL     1     -42.344 -52.722  11.625  1.00  0.00    -0.350 N 
HETATM   21  C   UNL     1     -42.867 -53.437  12.674  1.00  0.00     0.060 A 
ATOM     22  HN  UNL     1     -42.772 -52.552  10.714  1.00  0.00     0.166 HD
HETATM   23  C   UNL     1     -44.074 -54.147  12.752  1.00  0.00     0.032 A 
HETATM   24  C   UNL     1     -42.017 -53.409  13.780  1.00  0.00     0.062 A 
HETATM   25  C   UNL     1     -44.394 -54.799  13.948  1.00  0.00     0.002 A 
HETATM   26  C   UNL     1     -43.546 -54.724  15.055  1.00  0.00     0.002 A 
HETATM   27  C   UNL     1     -42.336 -54.023  14.997  1.00  0.00     0.032 A 
ENDBRANCH  17  18
ENDBRANCH   1  17
TORSDOF 9
ENDMDL
MODEL 4
REMARK VINA RESULT:      -5.5      2.340      4.979
REMARK  9 active torsions:
REMARK  status: ('A' for Active; 'I' for Inactive)
REMARK    1  A    between atoms: O_1  and  C_2 
REMARK    2  A    between atoms: C_2  and  C_3 
REMARK    3  A    between atoms: C_2  and  C_16 
REMARK    4  A    between atoms: C_3  and  O_4 
REMARK    5  A    between atoms: O_4  and  C_5 
REMARK    6  A    between atoms: C_8  and  C_9 
REMARK    7  A    between atoms: C_9  and  C_10 
REMARK    8  A    between atoms: C_10  and  N_11 
REMARK    9  A    between atoms: C_16  and  N_17 
ROOT
HETATM    1  C   UNL     1     -46.143 -54.570  14.783  1.00  0.00     0.160 C 
ENDROOT
BRANCH   1   2
HETATM    2  O   UNL     1     -47.156 -55.525  14.445  1.00  0.00    -0.392 OA
HETATM    3  H   UNL     1     -46.744 -56.158  13.826  1.00  0.00     0.210 HD
ENDBRANCH   1   2
BRANCH   1   4
HETATM    4  C   UNL     1     -44.896 -54.871  13.955  1.00  0.00     0.209 C 
BRANCH   4   5
HETATM    5  O   UNL     1     -43.703 -54.882  14.750  1.00  0.00    -0.349 OA
BRANCH   5   6
HETATM    6  C   UNL     1     -42.738 -54.006  14.298  1.00  0.00     0.068 A 
HETATM    7  C   UNL     1     -42.400 -53.832  12.952  1.00  0.00     0.037 A 
HETATM    8  C   UNL     1     -41.414 -52.932  12.568  1.00  0.00     0.011 A 
HETATM    9  C   UNL     1     -40.740 -52.179  13.529  1.00  0.00    -0.046 A 
HETATM   10  C   UNL     1     -41.078 -52.338  14.883  1.00  0.00     0.011 A 
HETATM   11  C   UNL     1     -42.070 -53.253  15.263  1.00  0.00     0.037 A 
BRANCH   9  12
HETATM   12  C   UNL     1     -39.729 -51.169  13.060  1.00  0.00     0.142 C 
BRANCH  12  13
HETATM   13  C   UNL     1     -40.126 -50.593  11.711  1.00  0.00    -0.073 C 
BRANCH  13  14
HETATM   14  N   UNL     1     -40.455 -50.114  10.592  1.00  0.00    -0.369 N 
ATOM     15  HN2 UNL     1     -40.169 -50.477  11.501  1.00  0.00     0.165 HD
ATOM     16  HN1 UNL     1     -40.722 -49.728   9.686  1.00  0.00     0.165 HD
ENDBRANCH  13  14
ENDBRANCH  12  13
ENDBRANCH   9  12
ENDBRANCH   5   6
ENDBRANCH   4   5
ENDBRANCH   1   4
BRANCH   1  17
HETATM   17  C   UNL     1     -46.617 -53.158  14.408  1.00  0.00     0.164 C 
BRANCH  17  18
HETATM   18  N   UNL     1     -45.910 -52.122  15.126  1.00  0.00    -0.339 N 
HETATM   19  C   UNL     1     -45.969 -51.933  16.478  1.00  0.00     0.184 A 
HETATM   20  N   UNL     1     -45.149 -50.985  16.869  1.00  0.00    -0.350 N 
HETATM   21  C   UNL     1     -44.538 -50.546  15.720  1.00  0.00     0.060 A 
ATOM     22  HN  UNL     1     -44.998 -50.648  17.820  1.00  0.00     0.166 HD
HETATM   23  C   UNL     1     -43.535 -49.579  15.560  1.00  0.00     0.032 A 
HETATM   24  C   UNL     1     -45.037 -51.207  14.597  1.00  0.00     0.062 A 
HETATM   25  C   UNL     1     -43.073 -49.298  14.269  1.00  0.00     0.002 A 
HETATM   26  C   UNL     1     -43.616 -49.944  13.156  1.00  0.00     0.002 A 
HETATM   27  C   UNL     1     -44.615 -50.914  13.295  1.00  0.00     0.032 A 
ENDBRANCH  17  18
ENDBRANCH   1  17
TORSDOF 9
ENDMDL
MODEL 5
REMARK VINA RESULT:      -5.4      3.905      6.423
REMARK  9 active torsions:
REMARK  status: ('A' for Active; 'I' for Inactive)
REMARK    1  A    between atoms: O_1  and  C_2 
REMARK    2  A    between atoms: C_2  and  C_3 
REMARK    3  A    between atoms: C_2  and  C_16 
REMARK    4  A    between atoms: C_3  and  O_4 
REMARK    5  A    between atoms: O_4  and  C_5 
REMARK    6  A    between atoms: C_8  and  C_9 
REMARK    7  A    between atoms: C_9  and  C_10 
REMARK    8  A    between atoms: C_10  and  N_11 
REMARK    9  A    between atoms: C_16  and  N_17 
ROOT
HETATM    1  C   UNL     1     -41.048 -52.594  12.515  1.00  0.00     0.160 C 
ENDROOT
BRANCH   1   2
HETATM    2  O   UNL     1     -40.475 -53.451  11.521  1.00  0.00    -0.392 OA
HETATM    3  H   UNL     1     -39.658 -53.819  11.910  1.00  0.00     0.210 HD
ENDBRANCH   1   2
BRANCH   1   4
HETATM    4  C   UNL     1     -40.602 -51.161  12.238  1.00  0.00     0.209 C 
BRANCH   4   5
HETATM    5  O   UNL     1     -41.665 -50.347  11.725  1.00  0.00    -0.349 OA
BRANCH   5   6
HETATM    6  C   UNL     1     -41.283 -49.047  11.469  1.00  0.00     0.068 A 
HETATM    7  C   UNL     1     -42.025 -48.145  10.700  1.00  0.00     0.037 A 
HETATM    8  C   UNL     1     -41.577 -46.849  10.480  1.00  0.00     0.011 A 
HETATM    9  C   UNL     1     -40.369 -46.421  11.032  1.00  0.00    -0.046 A 
HETATM   10  C   UNL     1     -39.622 -47.316  11.816  1.00  0.00     0.011 A 
HETATM   11  C   UNL     1     -40.077 -48.624  12.027  1.00  0.00     0.037 A 
BRANCH   9  12
HETATM   12  C   UNL     1     -39.959 -44.989  10.824  1.00  0.00     0.142 C 
BRANCH  12  13
HETATM   13  C   UNL     1     -39.153 -44.838   9.545  1.00  0.00    -0.073 C 
BRANCH  13  14
HETATM   14  N   UNL     1     -38.483 -44.713   8.484  1.00  0.00    -0.369 N 
ATOM     15  HN2 UNL     1     -39.045 -44.791   9.331  1.00  0.00     0.165 HD
ATOM     16  HN1 UNL     1     -37.941 -44.613   7.626  1.00  0.00     0.165 HD
ENDBRANCH  13  14
ENDBRANCH  12  13
ENDBRANCH   9  12
ENDBRANCH   5   6
ENDBRANCH   4   5
ENDBRANCH   1   4
BRANCH   1  17
HETATM   17  C   UNL     1     -42.580 -52.630  12.410  1.00  0.00     0.164 C 
BRANCH  17  18
HETATM   18  N   UNL     1     -43.230 -52.613  13.701  1.00  0.00    -0.339 N 
HETATM   19  C   UNL     1     -42.623 -52.932  14.882  1.00  0.00     0.184 A 
HETATM   20  N   UNL     1     -43.422 -52.731  15.906  1.00  0.00    -0.350 N 
HETATM   21  C   UNL     1     -44.592 -52.264  15.357  1.00  0.00     0.060 A 
ATOM     22  HN  UNL     1     -43.219 -52.888  16.893  1.00  0.00     0.166 HD
HETATM   23  C   UNL     1     -45.767 -51.842  15.996  1.00  0.00     0.032 A 
HETATM   24  C   UNL     1     -44.520 -52.229  13.964  1.00  0.00     0.062 A 
HETATM   25  C   UNL     1     -46.840 -51.408  15.210  1.00  0.00     0.002 A 
HETATM   26  C   UNL     1     -46.759 -51.420  13.815  1.00  0.00     0.002 A 
HETATM   27  C   UNL     1     -45.595 -51.834  13.159  1.00  0.00     0.032 A 
ENDBRANCH  17  18
ENDBRANCH   1  17
TORSDOF 9
ENDMDL
MODEL 6
REMARK VINA RESULT:      -5.4      2.069      2.455
REMARK  9 active torsions:
REMARK  status: ('A' for Active; 'I' for Inactive)
REMARK    1  A    between atoms: O_1  and  C_2 
REMARK    2  A    between atoms: C_2  and  C_3 
REMARK    3  A    between atoms: C_2  and  C_16 
REMARK    4  A    between atoms: C_3  and  O_4 
REMARK    5  A    between atoms: O_4  and  C_5 
REMARK    6  A    between atoms: C_8  and  C_9 
REMARK    7  A    between atoms: C_9  and  C_10 
REMARK    8  A    between atoms: C_10  and  N_11 
REMARK    9  A    between atoms: C_16  and  N_17 
ROOT
HETATM    1  C   UNL     1     -39.891 -53.489  13.324  1.00  0.00     0.160 C 
ENDROOT
BRANCH   1   2
HETATM    2  O   UNL     1     -38.727 -54.309  13.479  1.00  0.00    -0.392 OA
HETATM    3  H   UNL     1     -38.204 -54.206  12.661  1.00  0.00     0.210 HD
ENDBRANCH   1   2
BRANCH   1   4
HETATM    4  C   UNL     1     -41.029 -54.099  14.138  1.00  0.00     0.209 C 
BRANCH   4   5
HETATM    5  O   UNL     1     -42.129 -54.511  13.316  1.00  0.00    -0.349 OA
BRANCH   5   6
HETATM    6  C   UNL     1     -43.259 -53.740  13.489  1.00  0.00     0.068 A 
HETATM    7  C   UNL     1     -44.155 -53.414  12.466  1.00  0.00     0.037 A 
HETATM    8  C   UNL     1     -45.273 -52.629  12.712  1.00  0.00     0.011 A 
HETATM    9  C   UNL     1     -45.526 -52.151  13.998  1.00  0.00    -0.046 A 
HETATM   10  C   UNL     1     -44.639 -52.482  15.036  1.00  0.00     0.011 A 
HETATM   11  C   UNL     1     -43.508 -53.269  14.778  1.00  0.00     0.037 A 
BRANCH   9  12
HETATM   12  C   UNL     1     -46.785 -51.363  14.230  1.00  0.00     0.142 C 
BRANCH  12  13
HETATM   13  C   UNL     1     -47.210 -51.438  15.688  1.00  0.00    -0.073 C 
BRANCH  13  14
HETATM   14  N   UNL     1     -47.561 -51.499  16.897  1.00  0.00    -0.369 N 
ATOM     15  HN2 UNL     1     -47.268 -51.419  15.923  1.00  0.00     0.165 HD
ATOM     16  HN1 UNL     1     -47.846 -51.550  17.875  1.00  0.00     0.165 HD
ENDBRANCH  13  14
ENDBRANCH  12  13
ENDBRANCH   9  12
ENDBRANCH   5   6
ENDBRANCH   4   5
ENDBRANCH   1   4
BRANCH   1  17
HETATM   17  C   UNL     1     -39.617 -52.087  13.891  1.00  0.00     0.164 C 
BRANCH  17  18
HETATM   18  N   UNL     1     -39.811 -51.040  12.914  1.00  0.00    -0.339 N 
HETATM   19  C   UNL     1     -38.903 -50.696  11.952  1.00  0.00     0.184 A 
HETATM   20  N   UNL     1     -39.383 -49.782  11.140  1.00  0.00    -0.350 N 
HETATM   21  C   UNL     1     -40.653 -49.530  11.600  1.00  0.00     0.060 A 
ATOM     22  HN  UNL     1     -38.916 -49.353  10.341  1.00  0.00     0.166 HD
HETATM   23  C   UNL     1     -41.634 -48.675  11.076  1.00  0.00     0.032 A 
HETATM   24  C   UNL     1     -40.931 -50.268  12.749  1.00  0.00     0.062 A 
HETATM   25  C   UNL     1     -42.865 -48.582  11.735  1.00  0.00     0.002 A 
HETATM   26  C   UNL     1     -43.107 -49.302  12.908  1.00  0.00     0.002 A 
HETATM   27  C   UNL     1     -42.142 -50.162  13.445  1.00  0.00     0.032 A 
ENDBRANCH  17  18
ENDBRANCH   1  17
TORSDOF 9
ENDMDL
MODEL 7
REMARK VINA RESULT:      -5.3      2.712      4.451
REMARK  9 active torsions:
REMARK  status: ('A' for Active; 'I' for Inactive)
REMARK    1  A    between atoms: O_1  and  C_2 
REMARK    2  A    between atoms: C_2  and  C_3 
REMARK    3  A    between atoms: C_2  and  C_16 
REMARK    4  A    between atoms: C_3  and  O_4 
REMARK    5  A    between atoms: O_4  and  C_5 
REMARK    6  A    between atoms: C_8  and  C_9 
REMARK    7  A    between atoms: C_9  and  C_10 
REMARK    8  A    between atoms: C_10  and  N_11 
REMARK    9  A    between atoms: C_16  and  N_17 
ROOT
HETATM    1  C   UNL     1     -41.298 -52.890  12.609  1.00  0.00     0.160 C 
ENDROOT
BRANCH   1   2
HETATM    2  O   UNL     1     -40.454 -53.083  11.469  1.00  0.00    -0.392 OA
HETATM    3  H   UNL     1     -40.198 -54.025  11.470  1.00  0.00     0.210 HD
ENDBRANCH   1   2
BRANCH   1   4
HETATM    4  C   UNL     1     -42.624 -52.297  12.138  1.00  0.00     0.209 C 
BRANCH   4   5
HETATM    5  O   UNL     1     -42.938 -51.065  12.801  1.00  0.00    -0.349 OA
BRANCH   5   6
HETATM    6  C   UNL     1     -44.090 -51.130  13.557  1.00  0.00     0.068 A 
HETATM    7  C   UNL     1     -45.333 -51.540  13.066  1.00  0.00     0.037 A 
HETATM    8  C   UNL     1     -46.454 -51.579  13.885  1.00  0.00     0.011 A 
HETATM    9  C   UNL     1     -46.355 -51.208  15.227  1.00  0.00    -0.046 A 
HETATM   10  C   UNL     1     -45.108 -50.806  15.734  1.00  0.00     0.011 A 
HETATM   11  C   UNL     1     -43.984 -50.763  14.899  1.00  0.00     0.037 A 
BRANCH   9  12
HETATM   12  C   UNL     1     -47.579 -51.332  16.091  1.00  0.00     0.142 C 
BRANCH  12  13
HETATM   13  C   UNL     1     -47.403 -50.565  17.391  1.00  0.00    -0.073 C 
BRANCH  13  14
HETATM   14  N   UNL     1     -47.257 -49.928  18.469  1.00  0.00    -0.369 N 
ATOM     15  HN2 UNL     1     -47.404 -50.453  17.608  1.00  0.00     0.165 HD
ATOM     16  HN1 UNL     1     -47.137 -49.412  19.341  1.00  0.00     0.165 HD
ENDBRANCH  13  14
ENDBRANCH  12  13
ENDBRANCH   9  12
ENDBRANCH   5   6
ENDBRANCH   4   5
ENDBRANCH   1   4
BRANCH   1  17
HETATM   17  C   UNL     1     -41.605 -54.246  13.263  1.00  0.00     0.164 C 
BRANCH  17  18
HETATM   18  N   UNL     1     -41.919 -54.131  14.669  1.00  0.00    -0.339 N 
HETATM   19  C   UNL     1     -41.019 -53.799  15.642  1.00  0.00     0.184 A 
HETATM   20  N   UNL     1     -41.601 -53.669  16.813  1.00  0.00    -0.350 N 
HETATM   21  C   UNL     1     -42.929 -53.928  16.581  1.00  0.00     0.060 A 
ATOM     22  HN  UNL     1     -41.161 -53.427  17.701  1.00  0.00     0.166 HD
HETATM   23  C   UNL     1     -44.012 -53.882  17.471  1.00  0.00     0.032 A 
HETATM   24  C   UNL     1     -43.152 -54.276  15.249  1.00  0.00     0.062 A 
HETATM   25  C   UNL     1     -45.289 -54.199  16.993  1.00  0.00     0.002 A 
HETATM   26  C   UNL     1     -45.482 -54.583  15.663  1.00  0.00     0.002 A 
HETATM   27  C   UNL     1     -44.414 -54.633  14.759  1.00  0.00     0.032 A 
ENDBRANCH  17  18
ENDBRANCH   1  17
TORSDOF 9
ENDMDL
MODEL 8
REMARK VINA RESULT:      -5.3      2.701      4.786
REMARK  9 active torsions:
REMARK  status: ('A' for Active; 'I' for Inactive)
REMARK    1  A    between atoms: O_1  and  C_2 
REMARK    2  A    between atoms: C_2  and  C_3 
REMARK    3  A    between atoms: C_2  and  C_16 
REMARK    4  A    between atoms: C_3  and  O_4 
REMARK    5  A    between atoms: O_4  and  C_5 
REMARK    6  A    between atoms: C_8  and  C_9 
REMARK    7  A    between atoms: C_9  and  C_10 
REMARK    8  A    between atoms: C_10  and  N_11 
REMARK    9  A    between atoms: C_16  and  N_17 
ROOT
HETATM    1  C   UNL     1     -40.671 -53.584  13.417  1.00  0.00     0.160 C 
ENDROOT
BRANCH   1   2
HETATM    2  O   UNL     1     -39.740 -54.541  12.898  1.00  0.00    -0.392 OA
HETATM    3  H   UNL     1     -40.080 -54.812  12.024  1.00  0.00     0.210 HD
ENDBRANCH   1   2
BRANCH   1   4
HETATM    4  C   UNL     1     -40.656 -52.352  12.516  1.00  0.00     0.209 C 
BRANCH   4   5
HETATM    5  O   UNL     1     -40.816 -51.133  13.253  1.00  0.00    -0.349 OA
BRANCH   5   6
HETATM    6  C   UNL     1     -41.464 -50.146  12.542  1.00  0.00     0.068 A 
HETATM    7  C   UNL     1     -42.747 -49.673  12.838  1.00  0.00     0.037 A 
HETATM    8  C   UNL     1     -43.341 -48.676  12.075  1.00  0.00     0.011 A 
HETATM    9  C   UNL     1     -42.659 -48.123  10.991  1.00  0.00    -0.046 A 
HETATM   10  C   UNL     1     -41.365 -48.582  10.691  1.00  0.00     0.011 A 
HETATM   11  C   UNL     1     -40.776 -49.593  11.462  1.00  0.00     0.037 A 
BRANCH   9  12
HETATM   12  C   UNL     1     -43.315 -46.998  10.237  1.00  0.00     0.142 C 
BRANCH  12  13
HETATM   13  C   UNL     1     -43.869 -47.489   8.910  1.00  0.00    -0.073 C 
BRANCH  13  14
HETATM   14  N   UNL     1     -44.329 -47.896   7.809  1.00  0.00    -0.369 N 
ATOM     15  HN2 UNL     1     -43.932 -47.585   8.695  1.00  0.00     0.165 HD
ATOM     16  HN1 UNL     1     -44.701 -48.224   6.918  1.00  0.00     0.165 HD
ENDBRANCH  13  14
ENDBRANCH  12  13
ENDBRANCH   9  12
ENDBRANCH   5   6
ENDBRANCH   4   5
ENDBRANCH   1   4
BRANCH   1  17
HETATM   17  C   UNL     1     -42.092 -54.168  13.378  1.00  0.00     0.164 C 
BRANCH  17  18
HETATM   18  N   UNL     1     -43.024 -53.428  14.198  1.00  0.00    -0.339 N 
HETATM   19  C   UNL     1     -42.810 -53.085  15.503  1.00  0.00     0.184 A 
HETATM   20  N   UNL     1     -43.778 -52.328  15.968  1.00  0.00    -0.350 N 
HETATM   21  C   UNL     1     -44.650 -52.180  14.916  1.00  0.00     0.060 A 
ATOM     22  HN  UNL     1     -43.864 -51.935  16.905  1.00  0.00     0.166 HD
HETATM   23  C   UNL     1     -45.832 -51.428  14.841  1.00  0.00     0.032 A 
HETATM   24  C   UNL     1     -44.228 -52.906  13.803  1.00  0.00     0.062 A 
HETATM   25  C   UNL     1     -46.561 -51.441  13.646  1.00  0.00     0.002 A 
HETATM   26  C   UNL     1     -46.140 -52.208  12.557  1.00  0.00     0.002 A 
HETATM   27  C   UNL     1     -44.962 -52.962  12.612  1.00  0.00     0.032 A 
ENDBRANCH  17  18
ENDBRANCH   1  17
TORSDOF 9
ENDMDL
MODEL 9
REMARK VINA RESULT:      -5.3      2.380      3.635
REMARK  9 active torsions:
REMARK  status: ('A' for Active; 'I' for Inactive)
REMARK    1  A    between atoms: O_1  and  C_2 
REMARK    2  A    between atoms: C_2  and  C_3 
REMARK    3  A    between atoms: C_2  and  C_16 
REMARK    4  A    between atoms: C_3  and  O_4 
REMARK    5  A    between atoms: O_4  and  C_5 
REMARK    6  A    between atoms: C_8  and  C_9 
REMARK    7  A    between atoms: C_9  and  C_10 
REMARK    8  A    between atoms: C_10  and  N_11 
REMARK    9  A    between atoms: C_16  and  N_17 
ROOT
HETATM    1  C   UNL     1     -38.703 -49.711  13.165  1.00  0.00     0.160 C 
ENDROOT
BRANCH   1   2
HETATM    2  O   UNL     1     -37.489 -48.989  13.402  1.00  0.00    -0.392 OA
HETATM    3  H   UNL     1     -37.744 -48.057  13.544  1.00  0.00     0.210 HD
ENDBRANCH   1   2
BRANCH   1   4
HETATM    4  C   UNL     1     -38.549 -51.120  13.733  1.00  0.00     0.209 C 
BRANCH   4   5
HETATM    5  O   UNL     1     -39.094 -52.122  12.865  1.00  0.00    -0.349 OA
BRANCH   5   6
HETATM    6  C   UNL     1     -40.112 -52.851  13.444  1.00  0.00     0.068 A 
HETATM    7  C   UNL     1     -40.145 -53.226  14.791  1.00  0.00     0.037 A 
HETATM    8  C   UNL     1     -41.202 -53.965  15.307  1.00  0.00     0.011 A 
HETATM    9  C   UNL     1     -42.260 -54.345  14.481  1.00  0.00    -0.046 A 
HETATM   10  C   UNL     1     -42.243 -53.963  13.129  1.00  0.00     0.011 A 
HETATM   11  C   UNL     1     -41.169 -53.225  12.615  1.00  0.00     0.037 A 
BRANCH   9  12
HETATM   12  C   UNL     1     -43.415 -55.084  15.100  1.00  0.00     0.142 C 
BRANCH  12  13
HETATM   13  C   UNL     1     -44.666 -54.943  14.248  1.00  0.00    -0.073 C 
BRANCH  13  14
HETATM   14  N   UNL     1     -45.704 -54.826  13.542  1.00  0.00    -0.369 N 
ATOM     15  HN2 UNL     1     -44.848 -54.906  14.090  1.00  0.00     0.165 HD
ATOM     16  HN1 UNL     1     -46.544 -54.732  12.971  1.00  0.00     0.165 HD
ENDBRANCH  13  14
ENDBRANCH  12  13
ENDBRANCH   9  12
ENDBRANCH   5   6
ENDBRANCH   4   5
ENDBRANCH   1   4
BRANCH   1  17
HETATM   17  C   UNL     1     -39.863 -49.036  13.912  1.00  0.00     0.164 C 
BRANCH  17  18
HETATM   18  N   UNL     1     -41.156 -49.382  13.367  1.00  0.00    -0.339 N 
HETATM   19  C   UNL     1     -41.516 -49.226  12.059  1.00  0.00     0.184 A 
HETATM   20  N   UNL     1     -42.712 -49.717  11.826  1.00  0.00    -0.350 N 
HETATM   21  C   UNL     1     -43.137 -50.208  13.036  1.00  0.00     0.060 A 
ATOM     22  HN  UNL     1     -43.216 -49.731  10.939  1.00  0.00     0.166 HD
HETATM   23  C   UNL     1     -44.323 -50.886  13.354  1.00  0.00     0.032 A 
HETATM   24  C   UNL     1     -42.200 -49.963  14.039  1.00  0.00     0.062 A 
HETATM   25  C   UNL     1     -44.535 -51.286  14.678  1.00  0.00     0.002 A 
HETATM   26  C   UNL     1     -43.599 -50.994  15.673  1.00  0.00     0.002 A 
HETATM   27  C   UNL     1     -42.408 -50.322  15.377  1.00  0.00     0.032 A 
ENDBRANCH  17  18
ENDBRANCH   1  17
TORSDOF 9
ENDMDL
