MODEL 1
REMARK VINA RESULT:      -6.6      0.000      0.000
REMARK  5 active torsions:
REMARK  status: ('A' for Active; 'I' for Inactive)
REMARK    1  A    between atoms: C_2  and  C_5 
REMARK    2  A    between atoms: N_10  and  C_11 
REMARK    3  A    between atoms: C_11  and  C_12 
REMARK       I    between atoms: C_12  and  N_14 
REMARK    4  A    between atoms: N_14  and  C_15 
REMARK    5  A    between atoms: C_15  and  C_16 
ROOT
HETATM    1  C   UNL     1     -45.243 -47.360   9.294  1.00  0.00     0.063 A 
HETATM    2  C   UNL     1     -45.198 -45.967   8.886  1.00  0.00     0.023 A 
HETATM    3  C   UNL     1     -44.114 -45.215   9.119  1.00  0.00     0.075 A 
HETATM    4  C   UNL     1     -42.927 -45.799   9.799  1.00  0.00     0.247 A 
HETATM    5  O   UNL     1     -41.937 -45.100  10.006  1.00  0.00    -0.268 OA
HETATM    6  N   UNL     1     -43.023 -47.140  10.147  1.00  0.00    -0.315 N 
HETATM    7  C   UNL     1     -44.171 -47.884   9.912  1.00  0.00     0.110 A 
ENDROOT
BRANCH   6   8
HETATM    8  C   UNL     1     -41.811 -47.825  10.602  1.00  0.00     0.234 C 
BRANCH   8   9
HETATM    9  C   UNL     1     -41.983 -48.887  11.684  1.00  0.00     0.235 C 
HETATM   10  O   UNL     1     -42.489 -48.600  12.771  1.00  0.00    -0.272 OA
HETATM   11  N   UNL     1     -41.680 -50.190  11.341  1.00  0.00    -0.357 N 
HETATM   12  H   UNL     1     -41.106 -50.374  10.521  1.00  0.00     0.162 HD
BRANCH  11  13
HETATM   13  C   UNL     1     -41.909 -51.241  12.319  1.00  0.00     0.154 C 
BRANCH  13  14
HETATM   14  C   UNL     1     -40.759 -52.235  12.491  1.00  0.00     0.139 C 
HETATM   15  C   UNL     1     -41.267 -53.628  12.853  1.00  0.00     0.035 C 
HETATM   16  C   UNL     1     -40.308 -54.139  13.906  1.00  0.00     0.029 C 
HETATM   17  C   UNL     1     -39.281 -53.039  14.055  1.00  0.00     0.168 C 
HETATM   18  O   UNL     1     -39.904 -51.843  13.577  1.00  0.00    -0.384 OA
ENDBRANCH  13  14
ENDBRANCH  11  13
ENDBRANCH   8   9
ENDBRANCH   6   8
BRANCH   1  19
HETATM   19  C   UNL     1     -46.449 -48.193   8.954  1.00  0.00     0.418 C 
HETATM   20  F   UNL     1     -46.619 -49.252   9.787  1.00  0.00    -0.166 F 
HETATM   21  F   UNL     1     -46.380 -48.691   7.693  1.00  0.00    -0.166 F 
HETATM   22  F   UNL     1     -47.593 -47.461   9.023  1.00  0.00    -0.166 F 
ENDBRANCH   1  19
TORSDOF 5
ENDMDL
MODEL 2
REMARK VINA RESULT:      -6.3      5.769      6.830
REMARK  5 active torsions:
REMARK  status: ('A' for Active; 'I' for Inactive)
REMARK    1  A    between atoms: C_2  and  C_5 
REMARK    2  A    between atoms: N_10  and  C_11 
REMARK    3  A    between atoms: C_11  and  C_12 
REMARK       I    between atoms: C_12  and  N_14 
REMARK    4  A    between atoms: N_14  and  C_15 
REMARK    5  A    between atoms: C_15  and  C_16 
ROOT
HETATM    1  C   UNL     1     -46.436 -51.881  15.511  1.00  0.00     0.063 A 
HETATM    2  C   UNL     1     -46.865 -51.345  14.231  1.00  0.00     0.023 A 
HETATM    3  C   UNL     1     -46.387 -51.841  13.081  1.00  0.00     0.075 A 
HETATM    4  C   UNL     1     -45.409 -52.961  13.095  1.00  0.00     0.247 A 
HETATM    5  O   UNL     1     -44.979 -53.409  12.035  1.00  0.00    -0.268 OA
HETATM    6  N   UNL     1     -45.053 -53.443  14.349  1.00  0.00    -0.315 N 
HETATM    7  C   UNL     1     -45.549 -52.890  15.521  1.00  0.00     0.110 A 
ENDROOT
BRANCH   6   8
HETATM    8  C   UNL     1     -44.283 -54.687  14.418  1.00  0.00     0.234 C 
BRANCH   8   9
HETATM    9  C   UNL     1     -42.763 -54.557  14.457  1.00  0.00     0.235 C 
HETATM   10  O   UNL     1     -42.123 -54.955  15.433  1.00  0.00    -0.272 OA
HETATM   11  N   UNL     1     -42.140 -54.110  13.309  1.00  0.00    -0.357 N 
HETATM   12  H   UNL     1     -42.684 -53.626  12.597  1.00  0.00     0.162 HD
BRANCH  11  13
HETATM   13  C   UNL     1     -40.688 -54.051  13.279  1.00  0.00     0.154 C 
BRANCH  13  14
HETATM   14  C   UNL     1     -40.081 -52.694  13.642  1.00  0.00     0.139 C 
HETATM   15  C   UNL     1     -40.446 -51.622  12.618  1.00  0.00     0.035 C 
HETATM   16  C   UNL     1     -39.182 -50.814  12.423  1.00  0.00     0.029 C 
HETATM   17  C   UNL     1     -38.181 -51.432  13.373  1.00  0.00     0.168 C 
HETATM   18  O   UNL     1     -38.646 -52.759  13.635  1.00  0.00    -0.384 OA
ENDBRANCH  13  14
ENDBRANCH  11  13
ENDBRANCH   8   9
ENDBRANCH   6   8
BRANCH   1  19
HETATM   19  C   UNL     1     -47.046 -51.347  16.779  1.00  0.00     0.418 C 
HETATM   20  F   UNL     1     -47.080 -52.262  17.782  1.00  0.00    -0.166 F 
HETATM   21  F   UNL     1     -48.321 -50.924  16.587  1.00  0.00    -0.166 F 
HETATM   22  F   UNL     1     -46.347 -50.280  17.254  1.00  0.00    -0.166 F 
ENDBRANCH   1  19
TORSDOF 5
ENDMDL
MODEL 3
REMARK VINA RESULT:      -6.3      1.599      2.184
REMARK  5 active torsions:
REMARK  status: ('A' for Active; 'I' for Inactive)
REMARK    1  A    between atoms: C_2  and  C_5 
REMARK    2  A    between atoms: N_10  and  C_11 
REMARK    3  A    between atoms: C_11  and  C_12 
REMARK       I    between atoms: C_12  and  N_14 
REMARK    4  A    between atoms: N_14  and  C_15 
REMARK    5  A    between atoms: C_15  and  C_16 
ROOT
HETATM    1  C   UNL     1     -43.292 -46.964   9.848  1.00  0.00     0.063 A 
HETATM    2  C   UNL     1     -42.740 -45.639  10.064  1.00  0.00     0.023 A 
HETATM    3  C   UNL     1     -41.556 -45.475  10.670  1.00  0.00     0.075 A 
HETATM    4  C   UNL     1     -40.777 -46.657  11.129  1.00  0.00     0.247 A 
HETATM    5  O   UNL     1     -39.692 -46.495  11.682  1.00  0.00    -0.268 OA
HETATM    6  N   UNL     1     -41.349 -47.897  10.876  1.00  0.00    -0.315 N 
HETATM    7  C   UNL     1     -42.589 -48.030  10.267  1.00  0.00     0.110 A 
ENDROOT
BRANCH   6   8
HETATM    8  C   UNL     1     -40.529 -49.093  11.090  1.00  0.00     0.234 C 
BRANCH   8   9
HETATM    9  C   UNL     1     -41.130 -50.196  11.956  1.00  0.00     0.235 C 
HETATM   10  O   UNL     1     -41.668 -49.927  13.032  1.00  0.00    -0.272 OA
HETATM   11  N   UNL     1     -41.168 -51.467  11.418  1.00  0.00    -0.357 N 
HETATM   12  H   UNL     1     -40.570 -51.697  10.627  1.00  0.00     0.162 HD
BRANCH  11  13
HETATM   13  C   UNL     1     -41.808 -52.529  12.179  1.00  0.00     0.154 C 
BRANCH  13  14
HETATM   14  C   UNL     1     -40.862 -53.598  12.729  1.00  0.00     0.139 C 
HETATM   15  C   UNL     1     -41.446 -54.288  13.960  1.00  0.00     0.035 C 
HETATM   16  C   UNL     1     -40.284 -54.445  14.915  1.00  0.00     0.029 C 
HETATM   17  C   UNL     1     -39.094 -53.884  14.168  1.00  0.00     0.168 C 
HETATM   18  O   UNL     1     -39.627 -53.010  13.168  1.00  0.00    -0.384 OA
ENDBRANCH  13  14
ENDBRANCH  11  13
ENDBRANCH   8   9
ENDBRANCH   6   8
BRANCH   1  19
HETATM   19  C   UNL     1     -44.591 -47.113   9.102  1.00  0.00     0.418 C 
HETATM   20  F   UNL     1     -45.124 -45.925   8.717  1.00  0.00    -0.166 F 
HETATM   21  F   UNL     1     -45.531 -47.745   9.848  1.00  0.00    -0.166 F 
HETATM   22  F   UNL     1     -44.430 -47.849   7.970  1.00  0.00    -0.166 F 
ENDBRANCH   1  19
TORSDOF 5
ENDMDL
MODEL 4
REMARK VINA RESULT:      -6.3      2.969      6.779
REMARK  5 active torsions:
REMARK  status: ('A' for Active; 'I' for Inactive)
REMARK    1  A    between atoms: C_2  and  C_5 
REMARK    2  A    between atoms: N_10  and  C_11 
REMARK    3  A    between atoms: C_11  and  C_12 
REMARK       I    between atoms: C_12  and  N_14 
REMARK    4  A    between atoms: N_14  and  C_15 
REMARK    5  A    between atoms: C_15  and  C_16 
ROOT
HETATM    1  C   UNL     1     -45.097 -52.344  13.696  1.00  0.00     0.063 A 
HETATM    2  C   UNL     1     -44.801 -53.757  13.857  1.00  0.00     0.023 A 
HETATM    3  C   UNL     1     -43.598 -54.250  13.535  1.00  0.00     0.075 A 
HETATM    4  C   UNL     1     -42.534 -53.354  13.010  1.00  0.00     0.247 A 
HETATM    5  O   UNL     1     -41.433 -53.817  12.720  1.00  0.00    -0.268 OA
HETATM    6  N   UNL     1     -42.871 -52.011  12.897  1.00  0.00    -0.315 N 
HETATM    7  C   UNL     1     -44.135 -51.536  13.218  1.00  0.00     0.110 A 
ENDROOT
BRANCH   6   8
HETATM    8  C   UNL     1     -41.801 -51.051  12.613  1.00  0.00     0.234 C 
BRANCH   8   9
HETATM    9  C   UNL     1     -42.187 -49.575  12.586  1.00  0.00     0.235 C 
HETATM   10  O   UNL     1     -41.949 -48.846  13.551  1.00  0.00    -0.272 OA
HETATM   11  N   UNL     1     -42.677 -49.074  11.396  1.00  0.00    -0.357 N 
HETATM   12  H   UNL     1     -43.027 -49.715  10.687  1.00  0.00     0.162 HD
BRANCH  11  13
HETATM   13  C   UNL     1     -42.977 -47.654  11.306  1.00  0.00     0.154 C 
BRANCH  13  14
HETATM   14  C   UNL     1     -43.461 -47.175   9.936  1.00  0.00     0.139 C 
HETATM   15  C   UNL     1     -44.954 -47.430   9.744  1.00  0.00     0.035 C 
HETATM   16  C   UNL     1     -45.093 -47.912   8.316  1.00  0.00     0.029 C 
HETATM   17  C   UNL     1     -43.689 -47.861   7.756  1.00  0.00     0.168 C 
HETATM   18  O   UNL     1     -42.808 -47.901   8.882  1.00  0.00    -0.384 OA
ENDBRANCH  13  14
ENDBRANCH  11  13
ENDBRANCH   8   9
ENDBRANCH   6   8
BRANCH   1  19
HETATM   19  C   UNL     1     -46.435 -51.812  14.134  1.00  0.00     0.418 C 
HETATM   20  F   UNL     1     -46.345 -50.895  15.131  1.00  0.00    -0.166 F 
HETATM   21  F   UNL     1     -47.249 -52.801  14.580  1.00  0.00    -0.166 F 
HETATM   22  F   UNL     1     -47.086 -51.203  13.106  1.00  0.00    -0.166 F 
ENDBRANCH   1  19
TORSDOF 5
ENDMDL
MODEL 5
REMARK VINA RESULT:      -6.3      3.266      7.381
REMARK  5 active torsions:
REMARK  status: ('A' for Active; 'I' for Inactive)
REMARK    1  A    between atoms: C_2  and  C_5 
REMARK    2  A    between atoms: N_10  and  C_11 
REMARK    3  A    between atoms: C_11  and  C_12 
REMARK       I    between atoms: C_12  and  N_14 
REMARK    4  A    between atoms: N_14  and  C_15 
REMARK    5  A    between atoms: C_15  and  C_16 
ROOT
HETATM    1  C   UNL     1     -43.731 -54.329  13.843  1.00  0.00     0.063 A 
HETATM    2  C   UNL     1     -42.817 -54.853  14.843  1.00  0.00     0.023 A 
HETATM    3  C   UNL     1     -41.499 -54.622  14.761  1.00  0.00     0.075 A 
HETATM    4  C   UNL     1     -40.946 -53.815  13.641  1.00  0.00     0.247 A 
HETATM    5  O   UNL     1     -39.736 -53.609  13.577  1.00  0.00    -0.268 OA
HETATM    6  N   UNL     1     -41.872 -53.327  12.728  1.00  0.00    -0.315 N 
HETATM    7  C   UNL     1     -43.228 -53.605  12.829  1.00  0.00     0.110 A 
ENDROOT
BRANCH   6   8
HETATM    8  C   UNL     1     -41.419 -52.340  11.745  1.00  0.00     0.234 C 
BRANCH   8   9
HETATM    9  C   UNL     1     -41.460 -50.874  12.169  1.00  0.00     0.235 C 
HETATM   10  O   UNL     1     -41.623 -50.567  13.352  1.00  0.00    -0.272 OA
HETATM   11  N   UNL     1     -41.168 -49.932  11.203  1.00  0.00    -0.357 N 
HETATM   12  H   UNL     1     -41.215 -50.188  10.219  1.00  0.00     0.162 HD
BRANCH  11  13
HETATM   13  C   UNL     1     -41.115 -48.530  11.588  1.00  0.00     0.154 C 
BRANCH  13  14
HETATM   14  C   UNL     1     -42.015 -47.596  10.777  1.00  0.00     0.139 C 
HETATM   15  C   UNL     1     -43.423 -47.521  11.363  1.00  0.00     0.035 C 
HETATM   16  C   UNL     1     -44.351 -47.534  10.168  1.00  0.00     0.029 C 
HETATM   17  C   UNL     1     -43.431 -47.568   8.968  1.00  0.00     0.168 C 
HETATM   18  O   UNL     1     -42.183 -48.087   9.437  1.00  0.00    -0.384 OA
ENDBRANCH  13  14
ENDBRANCH  11  13
ENDBRANCH   8   9
ENDBRANCH   6   8
BRANCH   1  19
HETATM   19  C   UNL     1     -45.211 -54.549  14.004  1.00  0.00     0.418 C 
HETATM   20  F   UNL     1     -45.631 -54.428  15.290  1.00  0.00    -0.166 F 
HETATM   21  F   UNL     1     -45.587 -55.782  13.580  1.00  0.00    -0.166 F 
HETATM   22  F   UNL     1     -45.927 -53.650  13.278  1.00  0.00    -0.166 F 
ENDBRANCH   1  19
TORSDOF 5
ENDMDL
MODEL 6
REMARK VINA RESULT:      -6.2      4.208      7.087
REMARK  5 active torsions:
REMARK  status: ('A' for Active; 'I' for Inactive)
REMARK    1  A    between atoms: C_2  and  C_5 
REMARK    2  A    between atoms: N_10  and  C_11 
REMARK    3  A    between atoms: C_11  and  C_12 
REMARK       I    between atoms: C_12  and  N_14 
REMARK    4  A    between atoms: N_14  and  C_15 
REMARK    5  A    between atoms: C_15  and  C_16 
ROOT
HETATM    1  C   UNL     1     -43.877 -54.480  14.020  1.00  0.00     0.063 A 
HETATM    2  C   UNL     1     -43.148 -54.873  15.214  1.00  0.00     0.023 A 
HETATM    3  C   UNL     1     -41.821 -54.702  15.299  1.00  0.00     0.075 A 
HETATM    4  C   UNL     1     -41.068 -54.097  14.168  1.00  0.00     0.247 A 
HETATM    5  O   UNL     1     -39.852 -53.944  14.258  1.00  0.00    -0.268 OA
HETATM    6  N   UNL     1     -41.823 -53.725  13.063  1.00  0.00    -0.315 N 
HETATM    7  C   UNL     1     -43.193 -53.938  12.999  1.00  0.00     0.110 A 
ENDROOT
BRANCH   6   8
HETATM    8  C   UNL     1     -41.178 -52.917  12.026  1.00  0.00     0.234 C 
BRANCH   8   9
HETATM    9  C   UNL     1     -41.368 -51.405  12.109  1.00  0.00     0.235 C 
HETATM   10  O   UNL     1     -41.907 -50.894  13.093  1.00  0.00    -0.272 OA
HETATM   11  N   UNL     1     -40.790 -50.643  11.114  1.00  0.00    -0.357 N 
HETATM   12  H   UNL     1     -40.515 -51.083  10.239  1.00  0.00     0.162 HD
BRANCH  11  13
HETATM   13  C   UNL     1     -40.879 -49.194  11.204  1.00  0.00     0.154 C 
BRANCH  13  14
HETATM   14  C   UNL     1     -39.650 -48.501  11.797  1.00  0.00     0.139 C 
HETATM   15  C   UNL     1     -38.417 -49.399  11.747  1.00  0.00     0.035 C 
HETATM   16  C   UNL     1     -37.717 -49.186  13.072  1.00  0.00     0.029 C 
HETATM   17  C   UNL     1     -38.555 -48.148  13.786  1.00  0.00     0.168 C 
HETATM   18  O   UNL     1     -39.854 -48.204  13.188  1.00  0.00    -0.384 OA
ENDBRANCH  13  14
ENDBRANCH  11  13
ENDBRANCH   8   9
ENDBRANCH   6   8
BRANCH   1  19
HETATM   19  C   UNL     1     -45.375 -54.622  13.987  1.00  0.00     0.418 C 
HETATM   20  F   UNL     1     -45.953 -54.466  15.205  1.00  0.00    -0.166 F 
HETATM   21  F   UNL     1     -45.755 -55.839  13.523  1.00  0.00    -0.166 F 
HETATM   22  F   UNL     1     -45.942 -53.696  13.168  1.00  0.00    -0.166 F 
ENDBRANCH   1  19
TORSDOF 5
ENDMDL
MODEL 7
REMARK VINA RESULT:      -6.0      2.928      6.811
REMARK  5 active torsions:
REMARK  status: ('A' for Active; 'I' for Inactive)
REMARK    1  A    between atoms: C_2  and  C_5 
REMARK    2  A    between atoms: N_10  and  C_11 
REMARK    3  A    between atoms: C_11  and  C_12 
REMARK       I    between atoms: C_12  and  N_14 
REMARK    4  A    between atoms: N_14  and  C_15 
REMARK    5  A    between atoms: C_15  and  C_16 
ROOT
HETATM    1  C   UNL     1     -44.663 -53.161  13.464  1.00  0.00     0.063 A 
HETATM    2  C   UNL     1     -44.460 -54.025  14.613  1.00  0.00     0.023 A 
HETATM    3  C   UNL     1     -43.251 -54.536  14.886  1.00  0.00     0.075 A 
HETATM    4  C   UNL     1     -42.088 -54.220  14.016  1.00  0.00     0.247 A 
HETATM    5  O   UNL     1     -40.984 -54.693  14.277  1.00  0.00    -0.268 OA
HETATM    6  N   UNL     1     -42.342 -53.373  12.944  1.00  0.00    -0.315 N 
HETATM    7  C   UNL     1     -43.611 -52.880  12.676  1.00  0.00     0.110 A 
ENDROOT
BRANCH   6   8
HETATM    8  C   UNL     1     -41.199 -52.842  12.197  1.00  0.00     0.234 C 
BRANCH   8   9
HETATM    9  C   UNL     1     -40.946 -51.341  12.296  1.00  0.00     0.235 C 
HETATM   10  O   UNL     1     -40.798 -50.801  13.394  1.00  0.00    -0.272 OA
HETATM   11  N   UNL     1     -40.753 -50.656  11.112  1.00  0.00    -0.357 N 
HETATM   12  H   UNL     1     -41.052 -51.074  10.234  1.00  0.00     0.162 HD
BRANCH  11  13
HETATM   13  C   UNL     1     -40.427 -49.240  11.170  1.00  0.00     0.154 C 
BRANCH  13  14
HETATM   14  C   UNL     1     -41.482 -48.303  10.579  1.00  0.00     0.139 C 
HETATM   15  C   UNL     1     -41.129 -46.836  10.815  1.00  0.00     0.035 C 
HETATM   16  C   UNL     1     -42.437 -46.167  11.178  1.00  0.00     0.029 C 
HETATM   17  C   UNL     1     -43.470 -47.268  11.085  1.00  0.00     0.168 C 
HETATM   18  O   UNL     1     -42.754 -48.500  11.218  1.00  0.00    -0.384 OA
ENDBRANCH  13  14
ENDBRANCH  11  13
ENDBRANCH   8   9
ENDBRANCH   6   8
BRANCH   1  19
HETATM   19  C   UNL     1     -46.018 -52.549  13.227  1.00  0.00     0.418 C 
HETATM   20  F   UNL     1     -47.012 -53.174  13.909  1.00  0.00    -0.166 F 
HETATM   21  F   UNL     1     -46.361 -52.576  11.915  1.00  0.00    -0.166 F 
HETATM   22  F   UNL     1     -46.046 -51.244  13.612  1.00  0.00    -0.166 F 
ENDBRANCH   1  19
TORSDOF 5
ENDMDL
MODEL 8
REMARK VINA RESULT:      -6.0      3.531      6.646
REMARK  5 active torsions:
REMARK  status: ('A' for Active; 'I' for Inactive)
REMARK    1  A    between atoms: C_2  and  C_5 
REMARK    2  A    between atoms: N_10  and  C_11 
REMARK    3  A    between atoms: C_11  and  C_12 
REMARK       I    between atoms: C_12  and  N_14 
REMARK    4  A    between atoms: N_14  and  C_15 
REMARK    5  A    between atoms: C_15  and  C_16 
ROOT
HETATM    1  C   UNL     1     -45.567 -52.745  13.378  1.00  0.00     0.063 A 
HETATM    2  C   UNL     1     -46.156 -53.582  14.409  1.00  0.00     0.023 A 
HETATM    3  C   UNL     1     -45.458 -54.578  14.971  1.00  0.00     0.075 A 
HETATM    4  C   UNL     1     -44.056 -54.843  14.550  1.00  0.00     0.247 A 
HETATM    5  O   UNL     1     -43.425 -55.759  15.073  1.00  0.00    -0.268 OA
HETATM    6  N   UNL     1     -43.543 -53.998  13.574  1.00  0.00    -0.315 N 
HETATM    7  C   UNL     1     -44.302 -52.990  12.997  1.00  0.00     0.110 A 
ENDROOT
BRANCH   6   8
HETATM    8  C   UNL     1     -42.107 -54.060  13.292  1.00  0.00     0.234 C 
BRANCH   8   9
HETATM    9  C   UNL     1     -41.307 -52.776  13.497  1.00  0.00     0.235 C 
HETATM   10  O   UNL     1     -41.192 -52.281  14.619  1.00  0.00    -0.272 OA
HETATM   11  N   UNL     1     -40.614 -52.286  12.407  1.00  0.00    -0.357 N 
HETATM   12  H   UNL     1     -40.863 -52.598  11.471  1.00  0.00     0.162 HD
BRANCH  11  13
HETATM   13  C   UNL     1     -39.775 -51.113  12.584  1.00  0.00     0.154 C 
BRANCH  13  14
HETATM   14  C   UNL     1     -39.952 -50.018  11.530  1.00  0.00     0.139 C 
HETATM   15  C   UNL     1     -39.194 -48.746  11.904  1.00  0.00     0.035 C 
HETATM   16  C   UNL     1     -40.124 -47.609  11.541  1.00  0.00     0.029 C 
HETATM   17  C   UNL     1     -41.337 -48.283  10.939  1.00  0.00     0.168 C 
HETATM   18  O   UNL     1     -41.331 -49.627  11.428  1.00  0.00    -0.384 OA
ENDBRANCH  13  14
ENDBRANCH  11  13
ENDBRANCH   8   9
ENDBRANCH   6   8
BRANCH   1  19
HETATM   19  C   UNL     1     -46.356 -51.592  12.819  1.00  0.00     0.418 C 
HETATM   20  F   UNL     1     -47.106 -51.932  11.740  1.00  0.00    -0.166 F 
HETATM   21  F   UNL     1     -45.551 -50.570  12.435  1.00  0.00    -0.166 F 
HETATM   22  F   UNL     1     -47.216 -51.086  13.744  1.00  0.00    -0.166 F 
ENDBRANCH   1  19
TORSDOF 5
ENDMDL
MODEL 9
REMARK VINA RESULT:      -5.8      5.183      6.939
REMARK  5 active torsions:
REMARK  status: ('A' for Active; 'I' for Inactive)
REMARK    1  A    between atoms: C_2  and  C_5 
REMARK    2  A    between atoms: N_10  and  C_11 
REMARK    3  A    between atoms: C_11  and  C_12 
REMARK       I    between atoms: C_12  and  N_14 
REMARK    4  A    between atoms: N_14  and  C_15 
REMARK    5  A    between atoms: C_15  and  C_16 
ROOT
HETATM    1  C   UNL     1     -46.157 -52.070  14.361  1.00  0.00     0.063 A 
HETATM    2  C   UNL     1     -47.110 -51.327  15.166  1.00  0.00     0.023 A 
HETATM    3  C   UNL     1     -47.250 -51.578  16.475  1.00  0.00     0.075 A 
HETATM    4  C   UNL     1     -46.423 -52.625  17.132  1.00  0.00     0.247 A 
HETATM    5  O   UNL     1     -46.559 -52.846  18.333  1.00  0.00    -0.268 OA
HETATM    6  N   UNL     1     -45.517 -53.287  16.313  1.00  0.00    -0.315 N 
HETATM    7  C   UNL     1     -45.413 -53.017  14.955  1.00  0.00     0.110 A 
ENDROOT
BRANCH   6   8
HETATM    8  C   UNL     1     -44.519 -54.154  16.945  1.00  0.00     0.234 C 
BRANCH   8   9
HETATM    9  C   UNL     1     -43.322 -54.564  16.093  1.00  0.00     0.235 C 
HETATM   10  O   UNL     1     -43.378 -55.560  15.369  1.00  0.00    -0.272 OA
HETATM   11  N   UNL     1     -42.244 -53.701  16.065  1.00  0.00    -0.357 N 
HETATM   12  H   UNL     1     -42.146 -52.995  16.792  1.00  0.00     0.162 HD
BRANCH  11  13
HETATM   13  C   UNL     1     -41.119 -54.016  15.200  1.00  0.00     0.154 C 
BRANCH  13  14
HETATM   14  C   UNL     1     -40.818 -52.978  14.117  1.00  0.00     0.139 C 
HETATM   15  C   UNL     1     -41.910 -51.914  14.035  1.00  0.00     0.035 C 
HETATM   16  C   UNL     1     -42.117 -51.671  12.556  1.00  0.00     0.029 C 
HETATM   17  C   UNL     1     -41.107 -52.567  11.875  1.00  0.00     0.168 C 
HETATM   18  O   UNL     1     -40.782 -53.592  12.818  1.00  0.00    -0.384 OA
ENDBRANCH  13  14
ENDBRANCH  11  13
ENDBRANCH   8   9
ENDBRANCH   6   8
BRANCH   1  19
HETATM   19  C   UNL     1     -45.976 -51.713  12.910  1.00  0.00     0.418 C 
HETATM   20  F   UNL     1     -47.140 -51.382  12.293  1.00  0.00    -0.166 F 
HETATM   21  F   UNL     1     -45.432 -52.735  12.203  1.00  0.00    -0.166 F 
HETATM   22  F   UNL     1     -45.144 -50.647  12.761  1.00  0.00    -0.166 F 
ENDBRANCH   1  19
TORSDOF 5
ENDMDL
