MODEL 1
REMARK VINA RESULT:      -6.4      0.000      0.000
REMARK  3 active torsions:
REMARK  status: ('A' for Active; 'I' for Inactive)
REMARK    1  A    between atoms: C_2  and  N_3 
REMARK    2  A    between atoms: C_2  and  C_15 
REMARK       I    between atoms: N_3  and  C_4 
REMARK       I    between atoms: C_4  and  N_6 
REMARK    3  A    between atoms: N_6  and  C_7 
ROOT
HETATM    1  N   UNL     1     -40.539 -49.926  10.832  1.00  0.00    -0.336 N 
HETATM    2  C   UNL     1     -41.556 -49.027  10.927  1.00  0.00     0.322 C 
HETATM    3  O   UNL     1     -42.190 -48.783  11.936  1.00  0.00    -0.247 OA
HETATM    4  N   UNL     1     -41.777 -48.332   9.699  1.00  0.00    -0.293 N 
HETATM    5  H   UNL     1     -40.286 -50.313   9.934  1.00  0.00     0.164 HD
HETATM    6  H   UNL     1     -41.116 -48.437   8.948  1.00  0.00     0.172 HD
ENDROOT
BRANCH   1   7
HETATM    7  C   UNL     1     -40.156 -50.704  12.023  1.00  0.00     0.111 C 
HETATM    8  C   UNL     1     -38.639 -50.640  12.199  1.00  0.00     0.035 C 
BRANCH   7   9
HETATM    9  C   UNL     1     -40.708 -52.150  11.969  1.00  0.00     0.143 C 
HETATM   10  C   UNL     1     -42.154 -52.304  12.431  1.00  0.00     0.036 C 
HETATM   11  C   UNL     1     -42.195 -53.642  13.141  1.00  0.00     0.029 C 
HETATM   12  C   UNL     1     -40.770 -54.153  13.097  1.00  0.00     0.168 C 
HETATM   13  O   UNL     1     -39.936 -53.022  12.812  1.00  0.00    -0.384 OA
ENDBRANCH   7   9
ENDBRANCH   1   7
BRANCH   4  14
HETATM   14  C   UNL     1     -42.827 -47.414   9.551  1.00  0.00     0.127 A 
HETATM   15  C   UNL     1     -44.080 -47.664   9.028  1.00  0.00     0.076 A 
HETATM   16  C   UNL     1     -44.784 -46.446   9.095  1.00  0.00     0.025 A 
HETATM   17  C   UNL     1     -46.189 -46.188   8.697  1.00  0.00     0.070 C 
HETATM   18  N   UNL     1     -44.024 -45.470   9.596  1.00  0.00    -0.302 N 
HETATM   19  N   UNL     1     -42.850 -46.074   9.876  1.00  0.00    -0.281 N 
ATOM     20  HN  UNL     1     -44.274 -44.491   9.737  1.00  0.00     0.186 HD
HETATM   21  C   UNL     1     -41.835 -45.292  10.541  1.00  0.00     0.179 C 
ENDBRANCH   4  14
TORSDOF 3
ENDMDL
MODEL 2
REMARK VINA RESULT:      -5.8      2.532      3.842
REMARK  3 active torsions:
REMARK  status: ('A' for Active; 'I' for Inactive)
REMARK    1  A    between atoms: C_2  and  N_3 
REMARK    2  A    between atoms: C_2  and  C_15 
REMARK       I    between atoms: N_3  and  C_4 
REMARK       I    between atoms: C_4  and  N_6 
REMARK    3  A    between atoms: N_6  and  C_7 
ROOT
HETATM    1  N   UNL     1     -42.372 -51.340  12.145  1.00  0.00    -0.336 N 
HETATM    2  C   UNL     1     -42.193 -49.991  12.164  1.00  0.00     0.322 C 
HETATM    3  O   UNL     1     -42.454 -49.257  13.097  1.00  0.00    -0.247 OA
HETATM    4  N   UNL     1     -41.594 -49.510  10.959  1.00  0.00    -0.293 N 
HETATM    5  H   UNL     1     -42.449 -51.830  11.265  1.00  0.00     0.164 HD
HETATM    6  H   UNL     1     -41.233 -50.171  10.291  1.00  0.00     0.172 HD
ENDROOT
BRANCH   1   7
HETATM    7  C   UNL     1     -42.946 -52.003  13.328  1.00  0.00     0.111 C 
HETATM    8  C   UNL     1     -42.132 -53.258  13.646  1.00  0.00     0.035 C 
BRANCH   7   9
HETATM    9  C   UNL     1     -44.460 -52.280  13.155  1.00  0.00     0.143 C 
HETATM   10  C   UNL     1     -45.376 -51.142  13.596  1.00  0.00     0.036 C 
HETATM   11  C   UNL     1     -46.586 -51.827  14.197  1.00  0.00     0.029 C 
HETATM   12  C   UNL     1     -46.277 -53.308  14.120  1.00  0.00     0.168 C 
HETATM   13  O   UNL     1     -44.861 -53.423  13.930  1.00  0.00    -0.384 OA
ENDBRANCH   7   9
ENDBRANCH   1   7
BRANCH   4  14
HETATM   14  C   UNL     1     -41.390 -48.141  10.733  1.00  0.00     0.127 A 
HETATM   15  C   UNL     1     -40.357 -47.366  11.218  1.00  0.00     0.076 A 
HETATM   16  C   UNL     1     -40.572 -46.066  10.718  1.00  0.00     0.025 A 
HETATM   17  C   UNL     1     -39.722 -44.867  10.912  1.00  0.00     0.070 C 
HETATM   18  N   UNL     1     -41.688 -46.004   9.987  1.00  0.00    -0.302 N 
HETATM   19  N   UNL     1     -42.163 -47.267   9.998  1.00  0.00    -0.281 N 
ATOM     20  HN  UNL     1     -42.090 -45.187   9.525  1.00  0.00     0.186 HD
HETATM   21  C   UNL     1     -43.326 -47.553   9.193  1.00  0.00     0.179 C 
ENDBRANCH   4  14
TORSDOF 3
ENDMDL
MODEL 3
REMARK VINA RESULT:      -5.7      2.931      4.548
REMARK  3 active torsions:
REMARK  status: ('A' for Active; 'I' for Inactive)
REMARK    1  A    between atoms: C_2  and  N_3 
REMARK    2  A    between atoms: C_2  and  C_15 
REMARK       I    between atoms: N_3  and  C_4 
REMARK       I    between atoms: C_4  and  N_6 
REMARK    3  A    between atoms: N_6  and  C_7 
ROOT
HETATM    1  N   UNL     1     -42.837 -52.082  12.436  1.00  0.00    -0.336 N 
HETATM    2  C   UNL     1     -42.234 -50.870  12.575  1.00  0.00     0.322 C 
HETATM    3  O   UNL     1     -42.131 -50.247  13.614  1.00  0.00    -0.247 OA
HETATM    4  N   UNL     1     -41.662 -50.410  11.349  1.00  0.00    -0.293 N 
HETATM    5  H   UNL     1     -43.173 -52.381  11.532  1.00  0.00     0.164 HD
HETATM    6  H   UNL     1     -41.615 -51.035  10.562  1.00  0.00     0.172 HD
ENDROOT
BRANCH   1   7
HETATM    7  C   UNL     1     -43.446 -52.718  13.617  1.00  0.00     0.111 C 
HETATM    8  C   UNL     1     -42.909 -54.143  13.753  1.00  0.00     0.035 C 
BRANCH   7   9
HETATM    9  C   UNL     1     -44.993 -52.646  13.576  1.00  0.00     0.143 C 
HETATM   10  C   UNL     1     -45.584 -51.296  13.973  1.00  0.00     0.036 C 
HETATM   11  C   UNL     1     -46.860 -51.634  14.716  1.00  0.00     0.029 C 
HETATM   12  C   UNL     1     -46.903 -53.147  14.754  1.00  0.00     0.168 C 
HETATM   13  O   UNL     1     -45.572 -53.603  14.478  1.00  0.00    -0.384 OA
ENDBRANCH   7   9
ENDBRANCH   1   7
BRANCH   4  14
HETATM   14  C   UNL     1     -41.058 -49.148  11.246  1.00  0.00     0.127 A 
HETATM   15  C   UNL     1     -41.654 -47.974  10.831  1.00  0.00     0.076 A 
HETATM   16  C   UNL     1     -40.659 -46.980  10.904  1.00  0.00     0.025 A 
HETATM   17  C   UNL     1     -40.797 -45.535  10.605  1.00  0.00     0.070 C 
HETATM   18  N   UNL     1     -39.492 -47.488  11.308  1.00  0.00    -0.302 N 
HETATM   19  N   UNL     1     -39.753 -48.794  11.520  1.00  0.00    -0.281 N 
ATOM     20  HN  UNL     1     -38.604 -46.999  11.429  1.00  0.00     0.186 HD
HETATM   21  C   UNL     1     -38.698 -49.609  12.074  1.00  0.00     0.179 C 
ENDBRANCH   4  14
TORSDOF 3
ENDMDL
MODEL 4
REMARK VINA RESULT:      -5.6      2.858      6.457
REMARK  3 active torsions:
REMARK  status: ('A' for Active; 'I' for Inactive)
REMARK    1  A    between atoms: C_2  and  N_3 
REMARK    2  A    between atoms: C_2  and  C_15 
REMARK       I    between atoms: N_3  and  C_4 
REMARK       I    between atoms: C_4  and  N_6 
REMARK    3  A    between atoms: N_6  and  C_7 
ROOT
HETATM    1  N   UNL     1     -41.461 -50.094  11.373  1.00  0.00    -0.336 N 
HETATM    2  C   UNL     1     -42.158 -50.841  12.271  1.00  0.00     0.322 C 
HETATM    3  O   UNL     1     -42.646 -50.429  13.306  1.00  0.00    -0.247 OA
HETATM    4  N   UNL     1     -42.319 -52.193  11.837  1.00  0.00    -0.293 N 
HETATM    5  H   UNL     1     -40.822 -50.539  10.729  1.00  0.00     0.164 HD
HETATM    6  H   UNL     1     -42.057 -52.443  10.898  1.00  0.00     0.172 HD
ENDROOT
BRANCH   1   7
HETATM    7  C   UNL     1     -41.238 -48.664  11.651  1.00  0.00     0.111 C 
HETATM    8  C   UNL     1     -41.684 -47.842  10.442  1.00  0.00     0.035 C 
BRANCH   7   9
HETATM    9  C   UNL     1     -39.777 -48.383  12.080  1.00  0.00     0.143 C 
HETATM   10  C   UNL     1     -38.787 -49.499  11.762  1.00  0.00     0.036 C 
HETATM   11  C   UNL     1     -37.815 -49.501  12.924  1.00  0.00     0.029 C 
HETATM   12  C   UNL     1     -38.328 -48.432  13.865  1.00  0.00     0.168 C 
HETATM   13  O   UNL     1     -39.692 -48.183  13.501  1.00  0.00    -0.384 OA
ENDBRANCH   7   9
ENDBRANCH   1   7
BRANCH   4  14
HETATM   14  C   UNL     1     -42.940 -53.157  12.644  1.00  0.00     0.127 A 
HETATM   15  C   UNL     1     -44.252 -53.579  12.571  1.00  0.00     0.076 A 
HETATM   16  C   UNL     1     -44.406 -54.559  13.571  1.00  0.00     0.025 A 
HETATM   17  C   UNL     1     -45.618 -55.356  13.882  1.00  0.00     0.070 C 
HETATM   18  N   UNL     1     -43.277 -54.732  14.263  1.00  0.00    -0.302 N 
HETATM   19  N   UNL     1     -42.400 -53.886  13.683  1.00  0.00    -0.281 N 
ATOM     20  HN  UNL     1     -43.114 -55.360  15.050  1.00  0.00     0.186 HD
HETATM   21  C   UNL     1     -41.033 -53.916  14.145  1.00  0.00     0.179 C 
ENDBRANCH   4  14
TORSDOF 3
ENDMDL
MODEL 5
REMARK VINA RESULT:      -5.6      1.897      7.094
REMARK  3 active torsions:
REMARK  status: ('A' for Active; 'I' for Inactive)
REMARK    1  A    between atoms: C_2  and  N_3 
REMARK    2  A    between atoms: C_2  and  C_15 
REMARK       I    between atoms: N_3  and  C_4 
REMARK       I    between atoms: C_4  and  N_6 
REMARK    3  A    between atoms: N_6  and  C_7 
ROOT
HETATM    1  N   UNL     1     -41.935 -47.553   9.958  1.00  0.00    -0.336 N 
HETATM    2  C   UNL     1     -41.827 -48.486  10.942  1.00  0.00     0.322 C 
HETATM    3  O   UNL     1     -42.520 -48.545  11.939  1.00  0.00    -0.247 OA
HETATM    4  N   UNL     1     -40.823 -49.461  10.652  1.00  0.00    -0.293 N 
HETATM    5  H   UNL     1     -41.152 -47.363   9.350  1.00  0.00     0.164 HD
HETATM    6  H   UNL     1     -40.402 -49.476   9.738  1.00  0.00     0.172 HD
ENDROOT
BRANCH   1   7
HETATM    7  C   UNL     1     -42.952 -46.495  10.084  1.00  0.00     0.111 C 
HETATM    8  C   UNL     1     -43.665 -46.321   8.742  1.00  0.00     0.035 C 
BRANCH   7   9
HETATM    9  C   UNL     1     -42.349 -45.179  10.634  1.00  0.00     0.143 C 
HETATM   10  C   UNL     1     -42.350 -45.057  12.155  1.00  0.00     0.036 C 
HETATM   11  C   UNL     1     -42.617 -43.592  12.428  1.00  0.00     0.029 C 
HETATM   12  C   UNL     1     -42.809 -42.967  11.063  1.00  0.00     0.168 C 
HETATM   13  O   UNL     1     -43.084 -44.040  10.154  1.00  0.00    -0.384 OA
ENDBRANCH   7   9
ENDBRANCH   1   7
BRANCH   4  14
HETATM   14  C   UNL     1     -40.491 -50.471  11.566  1.00  0.00     0.127 A 
HETATM   15  C   UNL     1     -41.169 -51.654  11.778  1.00  0.00     0.076 A 
HETATM   16  C   UNL     1     -40.456 -52.343  12.778  1.00  0.00     0.025 A 
HETATM   17  C   UNL     1     -40.746 -53.685  13.339  1.00  0.00     0.070 C 
HETATM   18  N   UNL     1     -39.406 -51.635  13.204  1.00  0.00    -0.302 N 
HETATM   19  N   UNL     1     -39.437 -50.513  12.454  1.00  0.00    -0.281 N 
ATOM     20  HN  UNL     1     -38.735 -51.885  13.930  1.00  0.00     0.186 HD
HETATM   21  C   UNL     1     -38.350 -49.576  12.606  1.00  0.00     0.179 C 
ENDBRANCH   4  14
TORSDOF 3
ENDMDL
MODEL 6
REMARK VINA RESULT:      -5.4      1.934      3.176
REMARK  3 active torsions:
REMARK  status: ('A' for Active; 'I' for Inactive)
REMARK    1  A    between atoms: C_2  and  N_3 
REMARK    2  A    between atoms: C_2  and  C_15 
REMARK       I    between atoms: N_3  and  C_4 
REMARK       I    between atoms: C_4  and  N_6 
REMARK    3  A    between atoms: N_6  and  C_7 
ROOT
HETATM    1  N   UNL     1     -39.318 -48.886  11.212  1.00  0.00    -0.336 N 
HETATM    2  C   UNL     1     -39.839 -47.718  11.676  1.00  0.00     0.322 C 
HETATM    3  O   UNL     1     -40.183 -47.504  12.822  1.00  0.00    -0.247 OA
HETATM    4  N   UNL     1     -39.893 -46.712  10.662  1.00  0.00    -0.293 N 
HETATM    5  H   UNL     1     -39.362 -49.106  10.227  1.00  0.00     0.164 HD
HETATM    6  H   UNL     1     -39.435 -46.876   9.781  1.00  0.00     0.172 HD
ENDROOT
BRANCH   1   7
HETATM    7  C   UNL     1     -39.157 -50.018  12.140  1.00  0.00     0.111 C 
HETATM    8  C   UNL     1     -37.697 -50.472  12.133  1.00  0.00     0.035 C 
BRANCH   7   9
HETATM    9  C   UNL     1     -40.157 -51.160  11.834  1.00  0.00     0.143 C 
HETATM   10  C   UNL     1     -41.604 -50.869  12.221  1.00  0.00     0.036 C 
HETATM   11  C   UNL     1     -42.153 -52.197  12.701  1.00  0.00     0.029 C 
HETATM   12  C   UNL     1     -40.986 -53.157  12.618  1.00  0.00     0.168 C 
HETATM   13  O   UNL     1     -39.799 -52.357  12.546  1.00  0.00    -0.384 OA
ENDBRANCH   7   9
ENDBRANCH   1   7
BRANCH   4  14
HETATM   14  C   UNL     1     -40.466 -45.455  10.902  1.00  0.00     0.127 A 
HETATM   15  C   UNL     1     -39.827 -44.329  11.379  1.00  0.00     0.076 A 
HETATM   16  C   UNL     1     -40.806 -43.318  11.443  1.00  0.00     0.025 A 
HETATM   17  C   UNL     1     -40.624 -41.904  11.852  1.00  0.00     0.070 C 
HETATM   18  N   UNL     1     -42.002 -43.773  11.064  1.00  0.00    -0.302 N 
HETATM   19  N   UNL     1     -41.777 -45.061  10.731  1.00  0.00    -0.281 N 
ATOM     20  HN  UNL     1     -42.886 -43.263  11.033  1.00  0.00     0.186 HD
HETATM   21  C   UNL     1     -42.875 -45.811  10.170  1.00  0.00     0.179 C 
ENDBRANCH   4  14
TORSDOF 3
ENDMDL
MODEL 7
REMARK VINA RESULT:      -5.3      2.901      6.989
REMARK  3 active torsions:
REMARK  status: ('A' for Active; 'I' for Inactive)
REMARK    1  A    between atoms: C_2  and  N_3 
REMARK    2  A    between atoms: C_2  and  C_15 
REMARK       I    between atoms: N_3  and  C_4 
REMARK       I    between atoms: C_4  and  N_6 
REMARK    3  A    between atoms: N_6  and  C_7 
ROOT
HETATM    1  N   UNL     1     -42.115 -49.523  11.610  1.00  0.00    -0.336 N 
HETATM    2  C   UNL     1     -42.764 -50.401  12.420  1.00  0.00     0.322 C 
HETATM    3  O   UNL     1     -43.461 -50.103  13.371  1.00  0.00    -0.247 OA
HETATM    4  N   UNL     1     -42.590 -51.755  11.997  1.00  0.00    -0.293 N 
HETATM    5  H   UNL     1     -41.318 -49.825  11.068  1.00  0.00     0.164 HD
HETATM    6  H   UNL     1     -42.156 -51.940  11.107  1.00  0.00     0.172 HD
ENDROOT
BRANCH   1   7
HETATM    7  C   UNL     1     -42.224 -48.079  11.885  1.00  0.00     0.111 C 
HETATM    8  C   UNL     1     -43.345 -47.487  11.031  1.00  0.00     0.035 C 
BRANCH   7   9
HETATM    9  C   UNL     1     -40.866 -47.355  11.705  1.00  0.00     0.143 C 
HETATM   10  C   UNL     1     -40.537 -46.329  12.785  1.00  0.00     0.036 C 
HETATM   11  C   UNL     1     -39.815 -45.215  12.056  1.00  0.00     0.029 C 
HETATM   12  C   UNL     1     -39.818 -45.632  10.601  1.00  0.00     0.168 C 
HETATM   13  O   UNL     1     -40.834 -46.634  10.462  1.00  0.00    -0.384 OA
ENDBRANCH   7   9
ENDBRANCH   1   7
BRANCH   4  14
HETATM   14  C   UNL     1     -43.109 -52.830  12.732  1.00  0.00     0.127 A 
HETATM   15  C   UNL     1     -44.378 -53.363  12.638  1.00  0.00     0.076 A 
HETATM   16  C   UNL     1     -44.428 -54.426  13.561  1.00  0.00     0.025 A 
HETATM   17  C   UNL     1     -45.558 -55.351  13.819  1.00  0.00     0.070 C 
HETATM   18  N   UNL     1     -43.278 -54.547  14.228  1.00  0.00    -0.302 N 
HETATM   19  N   UNL     1     -42.490 -53.583  13.708  1.00  0.00    -0.281 N 
ATOM     20  HN  UNL     1     -43.047 -55.216  14.963  1.00  0.00     0.186 HD
HETATM   21  C   UNL     1     -41.119 -53.523  14.155  1.00  0.00     0.179 C 
ENDBRANCH   4  14
TORSDOF 3
ENDMDL
MODEL 8
REMARK VINA RESULT:      -5.0      2.346      2.994
REMARK  3 active torsions:
REMARK  status: ('A' for Active; 'I' for Inactive)
REMARK    1  A    between atoms: C_2  and  N_3 
REMARK    2  A    between atoms: C_2  and  C_15 
REMARK       I    between atoms: N_3  and  C_4 
REMARK       I    between atoms: C_4  and  N_6 
REMARK    3  A    between atoms: N_6  and  C_7 
ROOT
HETATM    1  N   UNL     1     -42.363 -51.150  12.757  1.00  0.00    -0.336 N 
HETATM    2  C   UNL     1     -42.619 -49.851  12.444  1.00  0.00     0.322 C 
HETATM    3  O   UNL     1     -43.263 -49.075  13.123  1.00  0.00    -0.247 OA
HETATM    4  N   UNL     1     -41.987 -49.456  11.225  1.00  0.00    -0.293 N 
HETATM    5  H   UNL     1     -42.121 -51.809  12.031  1.00  0.00     0.164 HD
HETATM    6  H   UNL     1     -41.322 -50.074  10.793  1.00  0.00     0.172 HD
ENDROOT
BRANCH   1   7
HETATM    7  C   UNL     1     -42.911 -51.708  14.006  1.00  0.00     0.111 C 
HETATM    8  C   UNL     1     -41.817 -52.497  14.726  1.00  0.00     0.035 C 
BRANCH   7   9
HETATM    9  C   UNL     1     -44.198 -52.532  13.752  1.00  0.00     0.143 C 
HETATM   10  C   UNL     1     -45.089 -52.724  14.976  1.00  0.00     0.036 C 
HETATM   11  C   UNL     1     -45.657 -54.120  14.829  1.00  0.00     0.029 C 
HETATM   12  C   UNL     1     -45.022 -54.671  13.569  1.00  0.00     0.168 C 
HETATM   13  O   UNL     1     -43.874 -53.856  13.297  1.00  0.00    -0.384 OA
ENDBRANCH   7   9
ENDBRANCH   1   7
BRANCH   4  14
HETATM   14  C   UNL     1     -42.181 -48.180  10.675  1.00  0.00     0.127 A 
HETATM   15  C   UNL     1     -43.298 -47.727  10.003  1.00  0.00     0.076 A 
HETATM   16  C   UNL     1     -43.031 -46.390   9.652  1.00  0.00     0.025 A 
HETATM   17  C   UNL     1     -43.928 -45.439   8.953  1.00  0.00     0.070 C 
HETATM   18  N   UNL     1     -41.809 -46.018  10.043  1.00  0.00    -0.302 N 
HETATM   19  N   UNL     1     -41.315 -47.107  10.668  1.00  0.00    -0.281 N 
ATOM     20  HN  UNL     1     -41.353 -45.116   9.902  1.00  0.00     0.186 HD
HETATM   21  C   UNL     1     -40.026 -46.987  11.307  1.00  0.00     0.179 C 
ENDBRANCH   4  14
TORSDOF 3
ENDMDL
MODEL 9
REMARK VINA RESULT:      -5.0      4.820      6.016
REMARK  3 active torsions:
REMARK  status: ('A' for Active; 'I' for Inactive)
REMARK    1  A    between atoms: C_2  and  N_3 
REMARK    2  A    between atoms: C_2  and  C_15 
REMARK       I    between atoms: N_3  and  C_4 
REMARK       I    between atoms: C_4  and  N_6 
REMARK    3  A    between atoms: N_6  and  C_7 
ROOT
HETATM    1  N   UNL     1     -40.974 -52.448  14.685  1.00  0.00    -0.336 N 
HETATM    2  C   UNL     1     -42.066 -52.793  13.951  1.00  0.00     0.322 C 
HETATM    3  O   UNL     1     -42.071 -53.567  13.013  1.00  0.00    -0.247 OA
HETATM    4  N   UNL     1     -43.260 -52.181  14.440  1.00  0.00    -0.293 N 
HETATM    5  H   UNL     1     -40.968 -51.585  15.211  1.00  0.00     0.164 HD
HETATM    6  H   UNL     1     -43.238 -51.693  15.321  1.00  0.00     0.172 HD
ENDROOT
BRANCH   1   7
HETATM    7  C   UNL     1     -39.664 -53.024  14.336  1.00  0.00     0.111 C 
HETATM    8  C   UNL     1     -39.128 -53.814  15.529  1.00  0.00     0.035 C 
BRANCH   7   9
HETATM    9  C   UNL     1     -38.680 -51.944  13.821  1.00  0.00     0.143 C 
HETATM   10  C   UNL     1     -38.671 -50.647  14.625  1.00  0.00     0.036 C 
HETATM   11  C   UNL     1     -38.457 -49.554  13.598  1.00  0.00     0.029 C 
HETATM   12  C   UNL     1     -38.412 -50.272  12.265  1.00  0.00     0.168 C 
HETATM   13  O   UNL     1     -39.001 -51.562  12.473  1.00  0.00    -0.384 OA
ENDBRANCH   7   9
ENDBRANCH   1   7
BRANCH   4  14
HETATM   14  C   UNL     1     -44.491 -52.338  13.786  1.00  0.00     0.127 A 
HETATM   15  C   UNL     1     -45.086 -51.449  12.915  1.00  0.00     0.076 A 
HETATM   16  C   UNL     1     -46.297 -52.045  12.511  1.00  0.00     0.025 A 
HETATM   17  C   UNL     1     -47.291 -51.517  11.546  1.00  0.00     0.070 C 
HETATM   18  N   UNL     1     -46.483 -53.225  13.109  1.00  0.00    -0.302 N 
HETATM   19  N   UNL     1     -45.379 -53.391  13.866  1.00  0.00    -0.281 N 
ATOM     20  HN  UNL     1     -47.278 -53.857  13.014  1.00  0.00     0.186 HD
HETATM   21  C   UNL     1     -45.227 -54.643  14.567  1.00  0.00     0.179 C 
ENDBRANCH   4  14
TORSDOF 3
ENDMDL
