MODEL 1
REMARK VINA RESULT:      -6.3      0.000      0.000
REMARK  2 active torsions:
REMARK  status: ('A' for Active; 'I' for Inactive)
REMARK       I    between atoms: C_2  and  N_4 
REMARK    1  A    between atoms: C_7  and  N_10 
REMARK       I    between atoms: N_10  and  C_11 
REMARK       I    between atoms: C_11  and  N_13 
REMARK    2  A    between atoms: N_13  and  C_14 
ROOT
HETATM    1  N   UNL     1     -42.614 -50.861  12.167  1.00  0.00    -0.338 N 
HETATM    2  C   UNL     1     -41.843 -49.720  12.042  1.00  0.00     0.322 C 
HETATM    3  O   UNL     1     -40.938 -49.470  12.825  1.00  0.00    -0.247 OA
HETATM    4  N   UNL     1     -42.266 -48.919  11.015  1.00  0.00    -0.288 N 
HETATM    5  H   UNL     1     -43.025 -51.231  11.323  1.00  0.00     0.164 HD
HETATM    6  H   UNL     1     -43.216 -48.993  10.694  1.00  0.00     0.172 HD
ENDROOT
BRANCH   1   7
HETATM    7  C   UNL     1     -42.356 -51.765  13.289  1.00  0.00     0.089 C 
HETATM    8  C   UNL     1     -42.354 -53.237  12.873  1.00  0.00     0.045 C 
HETATM    9  C   UNL     1     -43.751 -53.772  12.583  1.00  0.00     0.127 C 
HETATM   10  N   UNL     1     -44.685 -53.454  13.659  1.00  0.00    -0.352 N 
HETATM   11  C   UNL     1     -45.628 -54.406  14.027  1.00  0.00     0.215 C 
HETATM   12  C   UNL     1     -44.746 -52.046  14.047  1.00  0.00     0.127 C 
HETATM   13  C   UNL     1     -46.609 -54.013  15.102  1.00  0.00     0.117 C 
HETATM   14  O   UNL     1     -45.673 -55.529  13.527  1.00  0.00    -0.274 OA
HETATM   15  C   UNL     1     -43.367 -51.520  14.415  1.00  0.00     0.045 C 
ENDBRANCH   1   7
BRANCH   4  16
HETATM   16  C   UNL     1     -41.593 -47.756  10.750  1.00  0.00     0.168 A 
HETATM   17  N   UNL     1     -40.305 -47.546  10.611  1.00  0.00    -0.279 N 
HETATM   18  N   UNL     1     -40.017 -46.211  10.413  1.00  0.00    -0.303 N 
ATOM     19  HN  UNL     1     -39.601 -48.282  10.643  1.00  0.00     0.189 HD
HETATM   20  C   UNL     1     -41.108 -45.477  10.408  1.00  0.00     0.160 A 
ATOM     21  HN  UNL     1     -39.075 -45.839  10.287  1.00  0.00     0.186 HD
HETATM   22  S   UNL     1     -42.569 -46.365  10.587  1.00  0.00    -0.046 SA
ENDBRANCH   4  16
TORSDOF 2
ENDMDL
MODEL 2
REMARK VINA RESULT:      -5.8      3.665      7.690
REMARK  2 active torsions:
REMARK  status: ('A' for Active; 'I' for Inactive)
REMARK       I    between atoms: C_2  and  N_4 
REMARK    1  A    between atoms: C_7  and  N_10 
REMARK       I    between atoms: N_10  and  C_11 
REMARK       I    between atoms: C_11  and  N_13 
REMARK    2  A    between atoms: N_13  and  C_14 
ROOT
HETATM    1  N   UNL     1     -41.614 -48.075  11.604  1.00  0.00    -0.338 N 
HETATM    2  C   UNL     1     -41.046 -49.321  11.795  1.00  0.00     0.322 C 
HETATM    3  O   UNL     1     -39.835 -49.469  11.861  1.00  0.00    -0.247 OA
HETATM    4  N   UNL     1     -41.984 -50.318  11.822  1.00  0.00    -0.288 N 
HETATM    5  H   UNL     1     -42.546 -47.936  11.966  1.00  0.00     0.164 HD
HETATM    6  H   UNL     1     -42.873 -50.169  11.378  1.00  0.00     0.172 HD
ENDROOT
BRANCH   1   7
HETATM    7  C   UNL     1     -40.733 -46.918  11.442  1.00  0.00     0.089 C 
HETATM    8  C   UNL     1     -40.538 -46.136  12.742  1.00  0.00     0.045 C 
HETATM    9  C   UNL     1     -41.766 -45.321  13.131  1.00  0.00     0.127 C 
HETATM   10  N   UNL     1     -42.256 -44.517  12.016  1.00  0.00    -0.352 N 
HETATM   11  C   UNL     1     -42.724 -43.234  12.273  1.00  0.00     0.215 C 
HETATM   12  C   UNL     1     -42.499 -45.244  10.771  1.00  0.00     0.127 C 
HETATM   13  C   UNL     1     -43.276 -42.462  11.101  1.00  0.00     0.117 C 
HETATM   14  O   UNL     1     -42.688 -42.722  13.391  1.00  0.00    -0.274 OA
HETATM   15  C   UNL     1     -41.255 -46.001  10.329  1.00  0.00     0.045 C 
ENDBRANCH   1   7
BRANCH   4  16
HETATM   16  C   UNL     1     -41.582 -51.613  12.021  1.00  0.00     0.168 A 
HETATM   17  N   UNL     1     -41.050 -52.464  11.176  1.00  0.00    -0.279 N 
HETATM   18  N   UNL     1     -40.843 -53.702  11.749  1.00  0.00    -0.303 N 
ATOM     19  HN  UNL     1     -40.816 -52.237  10.210  1.00  0.00     0.189 HD
HETATM   20  C   UNL     1     -41.227 -53.721  13.007  1.00  0.00     0.160 A 
ATOM     21  HN  UNL     1     -40.444 -54.502  11.259  1.00  0.00     0.186 HD
HETATM   22  S   UNL     1     -41.814 -52.218  13.600  1.00  0.00    -0.046 SA
ENDBRANCH   4  16
TORSDOF 2
ENDMDL
MODEL 3
REMARK VINA RESULT:      -5.5      3.458      8.350
REMARK  2 active torsions:
REMARK  status: ('A' for Active; 'I' for Inactive)
REMARK       I    between atoms: C_2  and  N_4 
REMARK    1  A    between atoms: C_7  and  N_10 
REMARK       I    between atoms: N_10  and  C_11 
REMARK       I    between atoms: C_11  and  N_13 
REMARK    2  A    between atoms: N_13  and  C_14 
ROOT
HETATM    1  N   UNL     1     -40.626 -46.939  11.565  1.00  0.00    -0.338 N 
HETATM    2  C   UNL     1     -41.048 -48.213  11.230  1.00  0.00     0.322 C 
HETATM    3  O   UNL     1     -41.598 -48.445  10.164  1.00  0.00    -0.247 OA
HETATM    4  N   UNL     1     -40.838 -49.110  12.242  1.00  0.00    -0.288 N 
HETATM    5  H   UNL     1     -39.847 -46.867  12.202  1.00  0.00     0.164 HD
HETATM    6  H   UNL     1     -40.758 -48.775  13.187  1.00  0.00     0.172 HD
ENDROOT
BRANCH   1   7
HETATM    7  C   UNL     1     -40.882 -45.844  10.628  1.00  0.00     0.089 C 
HETATM    8  C   UNL     1     -39.736 -44.833  10.572  1.00  0.00     0.045 C 
HETATM    9  C   UNL     1     -39.670 -43.945  11.809  1.00  0.00     0.127 C 
HETATM   10  N   UNL     1     -40.970 -43.360  12.123  1.00  0.00    -0.352 N 
HETATM   11  C   UNL     1     -41.020 -42.046  12.572  1.00  0.00     0.215 C 
HETATM   12  C   UNL     1     -42.079 -44.306  12.232  1.00  0.00     0.127 C 
HETATM   13  C   UNL     1     -42.378 -41.503  12.941  1.00  0.00     0.117 C 
HETATM   14  O   UNL     1     -40.022 -41.332  12.661  1.00  0.00    -0.274 OA
HETATM   15  C   UNL     1     -42.205 -45.148  10.970  1.00  0.00     0.045 C 
ENDBRANCH   1   7
BRANCH   4  16
HETATM   16  C   UNL     1     -41.188 -50.422  12.060  1.00  0.00     0.168 A 
HETATM   17  N   UNL     1     -40.694 -51.313  11.233  1.00  0.00    -0.279 N 
HETATM   18  N   UNL     1     -41.367 -52.516  11.307  1.00  0.00    -0.303 N 
ATOM     19  HN  UNL     1     -39.906 -51.138  10.610  1.00  0.00     0.189 HD
HETATM   20  C   UNL     1     -42.336 -52.473  12.195  1.00  0.00     0.160 A 
ATOM     21  HN  UNL     1     -41.141 -53.336  10.744  1.00  0.00     0.186 HD
HETATM   22  S   UNL     1     -42.463 -50.984  13.045  1.00  0.00    -0.046 SA
ENDBRANCH   4  16
TORSDOF 2
ENDMDL
MODEL 4
REMARK VINA RESULT:      -5.3      2.081      2.362
REMARK  2 active torsions:
REMARK  status: ('A' for Active; 'I' for Inactive)
REMARK       I    between atoms: C_2  and  N_4 
REMARK    1  A    between atoms: C_7  and  N_10 
REMARK       I    between atoms: N_10  and  C_11 
REMARK       I    between atoms: C_11  and  N_13 
REMARK    2  A    between atoms: N_13  and  C_14 
ROOT
HETATM    1  N   UNL     1     -41.108 -50.731  12.953  1.00  0.00    -0.338 N 
HETATM    2  C   UNL     1     -40.755 -49.737  12.060  1.00  0.00     0.322 C 
HETATM    3  O   UNL     1     -40.270 -49.999  10.969  1.00  0.00    -0.247 OA
HETATM    4  N   UNL     1     -40.948 -48.484  12.578  1.00  0.00    -0.288 N 
HETATM    5  H   UNL     1     -41.850 -50.521  13.604  1.00  0.00     0.164 HD
HETATM    6  H   UNL     1     -40.966 -48.363  13.576  1.00  0.00     0.172 HD
ENDROOT
BRANCH   1   7
HETATM    7  C   UNL     1     -40.857 -52.127  12.588  1.00  0.00     0.089 C 
HETATM    8  C   UNL     1     -42.120 -52.852  12.122  1.00  0.00     0.045 C 
HETATM    9  C   UNL     1     -43.072 -53.178  13.267  1.00  0.00     0.127 C 
HETATM   10  N   UNL     1     -42.380 -53.831  14.374  1.00  0.00    -0.352 N 
HETATM   11  C   UNL     1     -43.023 -54.862  15.048  1.00  0.00     0.215 C 
HETATM   12  C   UNL     1     -41.196 -53.137  14.876  1.00  0.00     0.127 C 
HETATM   13  C   UNL     1     -42.296 -55.466  16.222  1.00  0.00     0.117 C 
HETATM   14  O   UNL     1     -44.127 -55.291  14.715  1.00  0.00    -0.274 OA
HETATM   15  C   UNL     1     -40.201 -52.874  13.755  1.00  0.00     0.045 C 
ENDBRANCH   1   7
BRANCH   4  16
HETATM   16  C   UNL     1     -40.660 -47.388  11.808  1.00  0.00     0.168 A 
HETATM   17  N   UNL     1     -40.858 -47.189  10.527  1.00  0.00    -0.279 N 
HETATM   18  N   UNL     1     -40.366 -45.968  10.110  1.00  0.00    -0.303 N 
ATOM     19  HN  UNL     1     -41.321 -47.857   9.911  1.00  0.00     0.189 HD
HETATM   20  C   UNL     1     -39.824 -45.302  11.106  1.00  0.00     0.160 A 
ATOM     21  HN  UNL     1     -40.417 -45.626   9.151  1.00  0.00     0.186 HD
HETATM   22  S   UNL     1     -39.923 -46.087  12.632  1.00  0.00    -0.046 SA
ENDBRANCH   4  16
TORSDOF 2
ENDMDL
MODEL 5
REMARK VINA RESULT:      -5.2      2.085      2.132
REMARK  2 active torsions:
REMARK  status: ('A' for Active; 'I' for Inactive)
REMARK       I    between atoms: C_2  and  N_4 
REMARK    1  A    between atoms: C_7  and  N_10 
REMARK       I    between atoms: N_10  and  C_11 
REMARK       I    between atoms: C_11  and  N_13 
REMARK    2  A    between atoms: N_13  and  C_14 
ROOT
HETATM    1  N   UNL     1     -42.934 -50.458  12.480  1.00  0.00    -0.338 N 
HETATM    2  C   UNL     1     -42.615 -49.251  11.885  1.00  0.00     0.322 C 
HETATM    3  O   UNL     1     -41.473 -48.818  11.892  1.00  0.00    -0.247 OA
HETATM    4  N   UNL     1     -43.718 -48.614  11.384  1.00  0.00    -0.288 N 
HETATM    5  H   UNL     1     -43.728 -50.958  12.106  1.00  0.00     0.164 HD
HETATM    6  H   UNL     1     -44.625 -48.833  11.759  1.00  0.00     0.172 HD
ENDROOT
BRANCH   1   7
HETATM    7  C   UNL     1     -41.878 -51.208  13.162  1.00  0.00     0.089 C 
HETATM    8  C   UNL     1     -41.809 -52.669  12.715  1.00  0.00     0.045 C 
HETATM    9  C   UNL     1     -42.953 -53.512  13.266  1.00  0.00     0.127 C 
HETATM   10  N   UNL     1     -43.111 -53.332  14.706  1.00  0.00    -0.352 N 
HETATM   11  C   UNL     1     -43.424 -54.438  15.487  1.00  0.00     0.215 C 
HETATM   12  C   UNL     1     -43.230 -51.948  15.161  1.00  0.00     0.127 C 
HETATM   13  C   UNL     1     -43.636 -54.195  16.959  1.00  0.00     0.117 C 
HETATM   14  O   UNL     1     -43.515 -55.575  15.027  1.00  0.00    -0.274 OA
HETATM   15  C   UNL     1     -42.052 -51.112  14.682  1.00  0.00     0.045 C 
ENDBRANCH   1   7
BRANCH   4  16
HETATM   16  C   UNL     1     -43.566 -47.411  10.746  1.00  0.00     0.168 A 
HETATM   17  N   UNL     1     -43.204 -46.247  11.231  1.00  0.00    -0.279 N 
HETATM   18  N   UNL     1     -43.234 -45.255  10.271  1.00  0.00    -0.303 N 
ATOM     19  HN  UNL     1     -42.932 -46.093  12.201  1.00  0.00     0.189 HD
HETATM   20  C   UNL     1     -43.614 -45.725   9.103  1.00  0.00     0.160 A 
ATOM     21  HN  UNL     1     -42.991 -44.280  10.446  1.00  0.00     0.186 HD
HETATM   22  S   UNL     1     -43.908 -47.419   9.074  1.00  0.00    -0.046 SA
ENDBRANCH   4  16
TORSDOF 2
ENDMDL
MODEL 6
REMARK VINA RESULT:      -5.1      4.231      4.639
REMARK  2 active torsions:
REMARK  status: ('A' for Active; 'I' for Inactive)
REMARK       I    between atoms: C_2  and  N_4 
REMARK    1  A    between atoms: C_7  and  N_10 
REMARK       I    between atoms: N_10  and  C_11 
REMARK       I    between atoms: C_11  and  N_13 
REMARK    2  A    between atoms: N_13  and  C_14 
ROOT
HETATM    1  N   UNL     1     -40.352 -51.878  14.422  1.00  0.00    -0.338 N 
HETATM    2  C   UNL     1     -39.094 -51.312  14.509  1.00  0.00     0.322 C 
HETATM    3  O   UNL     1     -38.189 -51.647  13.758  1.00  0.00    -0.247 OA
HETATM    4  N   UNL     1     -38.995 -50.428  15.549  1.00  0.00    -0.288 N 
HETATM    5  H   UNL     1     -41.130 -51.315  14.733  1.00  0.00     0.164 HD
HETATM    6  H   UNL     1     -39.628 -50.510  16.325  1.00  0.00     0.172 HD
ENDROOT
BRANCH   1   7
HETATM    7  C   UNL     1     -40.586 -52.927  13.428  1.00  0.00     0.089 C 
HETATM    8  C   UNL     1     -41.455 -52.453  12.262  1.00  0.00     0.045 C 
HETATM    9  C   UNL     1     -42.922 -52.296  12.643  1.00  0.00     0.127 C 
HETATM   10  N   UNL     1     -43.432 -53.480  13.328  1.00  0.00    -0.352 N 
HETATM   11  C   UNL     1     -44.723 -53.910  13.048  1.00  0.00     0.215 C 
HETATM   12  C   UNL     1     -42.650 -53.930  14.478  1.00  0.00     0.127 C 
HETATM   13  C   UNL     1     -45.228 -55.101  13.822  1.00  0.00     0.117 C 
HETATM   14  O   UNL     1     -45.436 -53.372  12.202  1.00  0.00    -0.274 OA
HETATM   15  C   UNL     1     -41.197 -54.166  14.093  1.00  0.00     0.045 C 
ENDBRANCH   1   7
BRANCH   4  16
HETATM   16  C   UNL     1     -37.812 -49.769  15.759  1.00  0.00     0.168 A 
HETATM   17  N   UNL     1     -36.614 -50.251  15.988  1.00  0.00    -0.279 N 
HETATM   18  N   UNL     1     -35.688 -49.252  16.214  1.00  0.00    -0.303 N 
ATOM     19  HN  UNL     1     -36.392 -51.246  15.998  1.00  0.00     0.189 HD
HETATM   20  C   UNL     1     -36.238 -48.059  16.138  1.00  0.00     0.160 A 
ATOM     21  HN  UNL     1     -34.702 -49.418  16.415  1.00  0.00     0.186 HD
HETATM   22  S   UNL     1     -37.908 -48.065  15.729  1.00  0.00    -0.046 SA
ENDBRANCH   4  16
TORSDOF 2
ENDMDL
MODEL 7
REMARK VINA RESULT:      -5.0      3.971      4.473
REMARK  2 active torsions:
REMARK  status: ('A' for Active; 'I' for Inactive)
REMARK       I    between atoms: C_2  and  N_4 
REMARK    1  A    between atoms: C_7  and  N_10 
REMARK       I    between atoms: N_10  and  C_11 
REMARK       I    between atoms: C_11  and  N_13 
REMARK    2  A    between atoms: N_13  and  C_14 
ROOT
HETATM    1  N   UNL     1     -41.528 -53.014  14.490  1.00  0.00    -0.338 N 
HETATM    2  C   UNL     1     -40.626 -52.646  13.509  1.00  0.00     0.322 C 
HETATM    3  O   UNL     1     -40.104 -53.474  12.777  1.00  0.00    -0.247 OA
HETATM    4  N   UNL     1     -40.362 -51.303  13.526  1.00  0.00    -0.288 N 
HETATM    5  H   UNL     1     -42.217 -52.328  14.760  1.00  0.00     0.164 HD
HETATM    6  H   UNL     1     -40.512 -50.784  14.374  1.00  0.00     0.172 HD
ENDROOT
BRANCH   1   7
HETATM    7  C   UNL     1     -41.829 -54.435  14.672  1.00  0.00     0.089 C 
HETATM    8  C   UNL     1     -43.324 -54.705  14.846  1.00  0.00     0.045 C 
HETATM    9  C   UNL     1     -43.848 -54.277  16.212  1.00  0.00     0.127 C 
HETATM   10  N   UNL     1     -43.016 -54.792  17.295  1.00  0.00    -0.352 N 
HETATM   11  C   UNL     1     -43.634 -55.238  18.457  1.00  0.00     0.215 C 
HETATM   12  C   UNL     1     -41.587 -54.509  17.184  1.00  0.00     0.127 C 
HETATM   13  C   UNL     1     -42.733 -55.707  19.571  1.00  0.00     0.117 C 
HETATM   14  O   UNL     1     -44.856 -55.274  18.592  1.00  0.00    -0.274 OA
HETATM   15  C   UNL     1     -41.033 -55.002  15.855  1.00  0.00     0.045 C 
ENDBRANCH   1   7
BRANCH   4  16
HETATM   16  C   UNL     1     -39.499 -50.777  12.602  1.00  0.00     0.168 A 
HETATM   17  N   UNL     1     -39.698 -50.489  11.338  1.00  0.00    -0.279 N 
HETATM   18  N   UNL     1     -38.549 -50.032  10.723  1.00  0.00    -0.303 N 
ATOM     19  HN  UNL     1     -40.596 -50.591  10.865  1.00  0.00     0.189 HD
HETATM   20  C   UNL     1     -37.537 -49.993  11.562  1.00  0.00     0.160 A 
ATOM     21  HN  UNL     1     -38.493 -49.760   9.742  1.00  0.00     0.186 HD
HETATM   22  S   UNL     1     -37.922 -50.455  13.172  1.00  0.00    -0.046 SA
ENDBRANCH   4  16
TORSDOF 2
ENDMDL
MODEL 8
REMARK VINA RESULT:      -5.0      3.160      4.035
REMARK  2 active torsions:
REMARK  status: ('A' for Active; 'I' for Inactive)
REMARK       I    between atoms: C_2  and  N_4 
REMARK    1  A    between atoms: C_7  and  N_10 
REMARK       I    between atoms: N_10  and  C_11 
REMARK       I    between atoms: C_11  and  N_13 
REMARK    2  A    between atoms: N_13  and  C_14 
ROOT
HETATM    1  N   UNL     1     -44.308 -51.152  14.293  1.00  0.00    -0.338 N 
HETATM    2  C   UNL     1     -43.311 -51.211  13.337  1.00  0.00     0.322 C 
HETATM    3  O   UNL     1     -43.161 -52.198  12.631  1.00  0.00    -0.247 OA
HETATM    4  N   UNL     1     -42.515 -50.098  13.349  1.00  0.00    -0.288 N 
HETATM    5  H   UNL     1     -44.658 -50.236  14.534  1.00  0.00     0.164 HD
HETATM    6  H   UNL     1     -42.458 -49.544  14.186  1.00  0.00     0.172 HD
ENDROOT
BRANCH   1   7
HETATM    7  C   UNL     1     -45.175 -52.316  14.480  1.00  0.00     0.089 C 
HETATM    8  C   UNL     1     -46.658 -51.948  14.525  1.00  0.00     0.045 C 
HETATM    9  C   UNL     1     -47.060 -51.266  15.827  1.00  0.00     0.127 C 
HETATM   10  N   UNL     1     -46.593 -52.010  16.992  1.00  0.00    -0.352 N 
HETATM   11  C   UNL     1     -47.422 -52.100  18.104  1.00  0.00     0.215 C 
HETATM   12  C   UNL     1     -45.168 -52.336  17.004  1.00  0.00     0.127 C 
HETATM   13  C   UNL     1     -46.874 -52.828  19.305  1.00  0.00     0.117 C 
HETATM   14  O   UNL     1     -48.558 -51.631  18.128  1.00  0.00    -0.274 OA
HETATM   15  C   UNL     1     -44.768 -53.087  15.742  1.00  0.00     0.045 C 
ENDBRANCH   1   7
BRANCH   4  16
HETATM   16  C   UNL     1     -41.489 -49.997  12.448  1.00  0.00     0.168 A 
HETATM   17  N   UNL     1     -41.516 -50.049  11.137  1.00  0.00    -0.279 N 
HETATM   18  N   UNL     1     -40.252 -49.971  10.589  1.00  0.00    -0.303 N 
ATOM     19  HN  UNL     1     -42.371 -50.135  10.588  1.00  0.00     0.189 HD
HETATM   20  C   UNL     1     -39.329 -49.859  11.519  1.00  0.00     0.160 A 
ATOM     21  HN  UNL     1     -40.058 -49.998   9.588  1.00  0.00     0.186 HD
HETATM   22  S   UNL     1     -39.936 -49.782  13.125  1.00  0.00    -0.046 SA
ENDBRANCH   4  16
TORSDOF 2
ENDMDL
MODEL 9
REMARK VINA RESULT:      -5.0      2.980      3.773
REMARK  2 active torsions:
REMARK  status: ('A' for Active; 'I' for Inactive)
REMARK       I    between atoms: C_2  and  N_4 
REMARK    1  A    between atoms: C_7  and  N_10 
REMARK       I    between atoms: N_10  and  C_11 
REMARK       I    between atoms: C_11  and  N_13 
REMARK    2  A    between atoms: N_13  and  C_14 
ROOT
HETATM    1  N   UNL     1     -42.847 -52.762  14.557  1.00  0.00    -0.338 N 
HETATM    2  C   UNL     1     -42.598 -52.216  13.311  1.00  0.00     0.322 C 
HETATM    3  O   UNL     1     -43.028 -52.731  12.290  1.00  0.00    -0.247 OA
HETATM    4  N   UNL     1     -41.782 -51.119  13.381  1.00  0.00    -0.288 N 
HETATM    5  H   UNL     1     -42.855 -52.128  15.342  1.00  0.00     0.164 HD
HETATM    6  H   UNL     1     -41.174 -51.008  14.175  1.00  0.00     0.172 HD
ENDROOT
BRANCH   1   7
HETATM    7  C   UNL     1     -43.614 -54.006  14.640  1.00  0.00     0.089 C 
HETATM    8  C   UNL     1     -45.092 -53.769  14.954  1.00  0.00     0.045 C 
HETATM    9  C   UNL     1     -45.332 -53.362  16.403  1.00  0.00     0.127 C 
HETATM   10  N   UNL     1     -44.658 -54.263  17.334  1.00  0.00    -0.352 N 
HETATM   11  C   UNL     1     -45.307 -54.613  18.512  1.00  0.00     0.215 C 
HETATM   12  C   UNL     1     -43.232 -54.472  17.090  1.00  0.00     0.127 C 
HETATM   13  C   UNL     1     -44.550 -55.497  19.470  1.00  0.00     0.117 C 
HETATM   14  O   UNL     1     -46.450 -54.246  18.778  1.00  0.00    -0.274 OA
HETATM   15  C   UNL     1     -42.986 -54.954  15.668  1.00  0.00     0.045 C 
ENDBRANCH   1   7
BRANCH   4  16
HETATM   16  C   UNL     1     -41.453 -50.453  12.230  1.00  0.00     0.168 A 
HETATM   17  N   UNL     1     -40.699 -50.835  11.227  1.00  0.00    -0.279 N 
HETATM   18  N   UNL     1     -40.559 -49.843  10.277  1.00  0.00    -0.303 N 
ATOM     19  HN  UNL     1     -40.268 -51.756  11.157  1.00  0.00     0.189 HD
HETATM   20  C   UNL     1     -41.223 -48.758  10.612  1.00  0.00     0.160 A 
ATOM     21  HN  UNL     1     -40.009 -49.939   9.424  1.00  0.00     0.186 HD
HETATM   22  S   UNL     1     -42.113 -48.885  12.077  1.00  0.00    -0.046 SA
ENDBRANCH   4  16
TORSDOF 2
ENDMDL
