MODEL 1
REMARK VINA RESULT:      -6.6      0.000      0.000
REMARK  8 active torsions:
REMARK  status: ('A' for Active; 'I' for Inactive)
REMARK    1  A    between atoms: O_1  and  C_2 
REMARK    2  A    between atoms: C_2  and  C_3 
REMARK    3  A    between atoms: C_3  and  N_4 
REMARK    4  A    between atoms: N_4  and  C_5 
REMARK    5  A    between atoms: N_14  and  C_15 
REMARK    6  A    between atoms: C_15  and  C_16 
REMARK    7  A    between atoms: C_16  and  O_17 
REMARK    8  A    between atoms: C_16  and  C_18 
ROOT
HETATM    1  C   UNL     1     -40.243 -52.608  13.094  1.00  0.00     0.160 A 
HETATM    2  N   UNL     1     -39.563 -53.329  13.955  1.00  0.00    -0.331 N 
ATOM      3  HN  UNL     1     -38.549 -53.361  14.063  1.00  0.00     0.168 HD
HETATM    4  C   UNL     1     -40.491 -54.029  14.678  1.00  0.00     0.061 A 
HETATM    5  C   UNL     1     -40.298 -54.982  15.689  1.00  0.00     0.032 A 
HETATM    6  C   UNL     1     -41.417 -55.603  16.254  1.00  0.00     0.002 A 
HETATM    7  C   UNL     1     -42.705 -55.275  15.827  1.00  0.00     0.002 A 
HETATM    8  C   UNL     1     -42.919 -54.318  14.827  1.00  0.00     0.032 A 
HETATM    9  C   UNL     1     -41.785 -53.713  14.270  1.00  0.00     0.063 A 
HETATM   10  N   UNL     1     -41.601 -52.768  13.288  1.00  0.00    -0.319 N 
ENDROOT
BRANCH  10  11
HETATM   11  C   UNL     1     -42.644 -52.137  12.504  1.00  0.00     0.168 C 
BRANCH  11  12
HETATM   12  C   UNL     1     -43.144 -50.813  13.105  1.00  0.00     0.172 C 
BRANCH  12  13
HETATM   13  O   UNL     1     -43.422 -49.785  12.158  1.00  0.00    -0.389 OA
HETATM   14  H   UNL     1     -44.269 -49.976  11.715  1.00  0.00     0.210 HD
ENDBRANCH  12  13
BRANCH  12  15
HETATM   15  C   UNL     1     -44.415 -51.015  13.899  1.00  0.00     0.011 A 
HETATM   16  C   UNL     1     -45.623 -51.341  13.264  1.00  0.00     0.016 A 
HETATM   17  C   UNL     1     -46.789 -51.503  14.018  1.00  0.00     0.043 A 
HETATM   18  C   UNL     1     -46.750 -51.345  15.400  1.00  0.00     0.119 A 
HETATM   19  F   UNL     1     -47.873 -51.489  16.112  1.00  0.00    -0.206 F 
HETATM   20  C   UNL     1     -45.564 -51.042  16.051  1.00  0.00     0.085 A 
HETATM   21  C   UNL     1     -44.409 -50.885  15.298  1.00  0.00     0.128 A 
HETATM   22  F   UNL     1     -43.265 -50.590  15.932  1.00  0.00    -0.205 F 
ENDBRANCH  12  15
ENDBRANCH  11  12
ENDBRANCH  10  11
BRANCH   1  23
HETATM   23  N   UNL     1     -39.746 -51.844  12.089  1.00  0.00    -0.262 NA
HETATM   24  H   UNL     1     -39.017 -52.247  11.507  1.00  0.00     0.130 HD
BRANCH  23  25
HETATM   25  C   UNL     1     -39.306 -50.495  12.468  1.00  0.00     0.121 C 
BRANCH  25  26
HETATM   26  C   UNL     1     -39.940 -49.453  11.533  1.00  0.00     0.178 C 
BRANCH  26  27
HETATM   27  O   UNL     1     -40.396 -50.090  10.333  1.00  0.00    -0.400 OA
HETATM   28  H   UNL     1     -41.340 -50.281  10.472  1.00  0.00     0.209 HD
ENDBRANCH  26  27
ENDBRANCH  25  26
ENDBRANCH  23  25
ENDBRANCH   1  23
TORSDOF 8
ENDMDL
MODEL 2
REMARK VINA RESULT:      -6.4      4.525      7.645
REMARK  8 active torsions:
REMARK  status: ('A' for Active; 'I' for Inactive)
REMARK    1  A    between atoms: O_1  and  C_2 
REMARK    2  A    between atoms: C_2  and  C_3 
REMARK    3  A    between atoms: C_3  and  N_4 
REMARK    4  A    between atoms: N_4  and  C_5 
REMARK    5  A    between atoms: N_14  and  C_15 
REMARK    6  A    between atoms: C_15  and  C_16 
REMARK    7  A    between atoms: C_16  and  O_17 
REMARK    8  A    between atoms: C_16  and  C_18 
ROOT
HETATM    1  C   UNL     1     -42.055 -47.291  10.012  1.00  0.00     0.160 A 
HETATM    2  N   UNL     1     -41.613 -46.082   9.752  1.00  0.00    -0.331 N 
ATOM      3  HN  UNL     1     -41.791 -45.532   8.912  1.00  0.00     0.168 HD
HETATM    4  C   UNL     1     -40.866 -45.711  10.838  1.00  0.00     0.061 A 
HETATM    5  C   UNL     1     -40.130 -44.537  11.053  1.00  0.00     0.032 A 
HETATM    6  C   UNL     1     -39.400 -44.405  12.238  1.00  0.00     0.002 A 
HETATM    7  C   UNL     1     -39.409 -45.420  13.197  1.00  0.00     0.002 A 
HETATM    8  C   UNL     1     -40.147 -46.595  13.006  1.00  0.00     0.032 A 
HETATM    9  C   UNL     1     -40.866 -46.710  11.809  1.00  0.00     0.063 A 
HETATM   10  N   UNL     1     -41.670 -47.690  11.277  1.00  0.00    -0.319 N 
ENDROOT
BRANCH  10  11
HETATM   11  C   UNL     1     -41.967 -48.973  11.882  1.00  0.00     0.168 C 
BRANCH  11  12
HETATM   12  C   UNL     1     -40.980 -50.082  11.479  1.00  0.00     0.172 C 
BRANCH  12  13
HETATM   13  O   UNL     1     -40.456 -49.975  10.158  1.00  0.00    -0.389 OA
HETATM   14  H   UNL     1     -40.608 -50.812   9.683  1.00  0.00     0.210 HD
ENDBRANCH  12  13
BRANCH  12  15
HETATM   15  C   UNL     1     -39.788 -50.122  12.408  1.00  0.00     0.011 A 
HETATM   16  C   UNL     1     -38.528 -49.664  11.993  1.00  0.00     0.016 A 
HETATM   17  C   UNL     1     -37.437 -49.729  12.864  1.00  0.00     0.043 A 
HETATM   18  C   UNL     1     -37.602 -50.246  14.145  1.00  0.00     0.119 A 
HETATM   19  F   UNL     1     -36.548 -50.317  14.968  1.00  0.00    -0.206 F 
HETATM   20  C   UNL     1     -38.840 -50.688  14.584  1.00  0.00     0.085 A 
HETATM   21  C   UNL     1     -39.921 -50.617  13.716  1.00  0.00     0.128 A 
HETATM   22  F   UNL     1     -41.117 -51.046  14.145  1.00  0.00    -0.205 F 
ENDBRANCH  12  15
ENDBRANCH  11  12
ENDBRANCH  10  11
BRANCH   1  23
HETATM   23  N   UNL     1     -42.739 -48.113   9.177  1.00  0.00    -0.262 NA
HETATM   24  H   UNL     1     -42.201 -48.755   8.601  1.00  0.00     0.130 HD
BRANCH  23  25
HETATM   25  C   UNL     1     -43.722 -47.461   8.302  1.00  0.00     0.121 C 
BRANCH  25  26
HETATM   26  C   UNL     1     -45.122 -47.542   8.932  1.00  0.00     0.178 C 
BRANCH  26  27
HETATM   27  O   UNL     1     -46.081 -47.922   7.937  1.00  0.00    -0.400 OA
HETATM   28  H   UNL     1     -46.952 -47.679   8.297  1.00  0.00     0.209 HD
ENDBRANCH  26  27
ENDBRANCH  25  26
ENDBRANCH  23  25
ENDBRANCH   1  23
TORSDOF 8
ENDMDL
MODEL 3
REMARK VINA RESULT:      -6.3      2.952      5.853
REMARK  8 active torsions:
REMARK  status: ('A' for Active; 'I' for Inactive)
REMARK    1  A    between atoms: O_1  and  C_2 
REMARK    2  A    between atoms: C_2  and  C_3 
REMARK    3  A    between atoms: C_3  and  N_4 
REMARK    4  A    between atoms: N_4  and  C_5 
REMARK    5  A    between atoms: N_14  and  C_15 
REMARK    6  A    between atoms: C_15  and  C_16 
REMARK    7  A    between atoms: C_16  and  O_17 
REMARK    8  A    between atoms: C_16  and  C_18 
ROOT
HETATM    1  C   UNL     1     -41.423 -52.676  12.343  1.00  0.00     0.160 A 
HETATM    2  N   UNL     1     -42.576 -52.602  11.719  1.00  0.00    -0.331 N 
ATOM      3  HN  UNL     1     -42.738 -52.269  10.769  1.00  0.00     0.168 HD
HETATM    4  C   UNL     1     -43.515 -53.064  12.602  1.00  0.00     0.061 A 
HETATM    5  C   UNL     1     -44.907 -53.149  12.458  1.00  0.00     0.032 A 
HETATM    6  C   UNL     1     -45.670 -53.619  13.532  1.00  0.00     0.002 A 
HETATM    7  C   UNL     1     -45.057 -54.006  14.725  1.00  0.00     0.002 A 
HETATM    8  C   UNL     1     -43.667 -53.939  14.885  1.00  0.00     0.032 A 
HETATM    9  C   UNL     1     -42.922 -53.460  13.799  1.00  0.00     0.063 A 
HETATM   10  N   UNL     1     -41.580 -53.244  13.592  1.00  0.00    -0.319 N 
ENDROOT
BRANCH  10  11
HETATM   11  C   UNL     1     -40.522 -53.460  14.558  1.00  0.00     0.168 C 
BRANCH  11  12
HETATM   12  C   UNL     1     -39.729 -54.757  14.318  1.00  0.00     0.172 C 
BRANCH  12  13
HETATM   13  O   UNL     1     -38.543 -54.606  13.543  1.00  0.00    -0.389 OA
HETATM   14  H   UNL     1     -37.778 -54.517  14.140  1.00  0.00     0.210 HD
ENDBRANCH  12  13
BRANCH  12  15
HETATM   15  C   UNL     1     -39.308 -55.392  15.623  1.00  0.00     0.011 A 
HETATM   16  C   UNL     1     -37.969 -55.370  16.042  1.00  0.00     0.016 A 
HETATM   17  C   UNL     1     -37.601 -55.983  17.243  1.00  0.00     0.043 A 
HETATM   18  C   UNL     1     -38.564 -56.612  18.026  1.00  0.00     0.119 A 
HETATM   19  F   UNL     1     -38.200 -57.207  19.168  1.00  0.00    -0.206 F 
HETATM   20  C   UNL     1     -39.896 -56.631  17.642  1.00  0.00     0.085 A 
HETATM   21  C   UNL     1     -40.256 -56.018  16.450  1.00  0.00     0.128 A 
HETATM   22  F   UNL     1     -41.546 -56.040  16.081  1.00  0.00    -0.205 F 
ENDBRANCH  12  15
ENDBRANCH  11  12
ENDBRANCH  10  11
BRANCH   1  23
HETATM   23  N   UNL     1     -40.223 -52.217  11.908  1.00  0.00    -0.262 NA
HETATM   24  H   UNL     1     -39.415 -52.823  12.028  1.00  0.00     0.130 HD
BRANCH  23  25
HETATM   25  C   UNL     1     -39.839 -50.881  12.381  1.00  0.00     0.121 C 
BRANCH  25  26
HETATM   26  C   UNL     1     -40.587 -49.805  11.579  1.00  0.00     0.178 C 
BRANCH  26  27
HETATM   27  O   UNL     1     -40.369 -50.004  10.177  1.00  0.00    -0.400 OA
HETATM   28  H   UNL     1     -41.252 -50.101   9.778  1.00  0.00     0.209 HD
ENDBRANCH  26  27
ENDBRANCH  25  26
ENDBRANCH  23  25
ENDBRANCH   1  23
TORSDOF 8
ENDMDL
MODEL 4
REMARK VINA RESULT:      -6.2      3.176      5.270
REMARK  8 active torsions:
REMARK  status: ('A' for Active; 'I' for Inactive)
REMARK    1  A    between atoms: O_1  and  C_2 
REMARK    2  A    between atoms: C_2  and  C_3 
REMARK    3  A    between atoms: C_3  and  N_4 
REMARK    4  A    between atoms: N_4  and  C_5 
REMARK    5  A    between atoms: N_14  and  C_15 
REMARK    6  A    between atoms: C_15  and  C_16 
REMARK    7  A    between atoms: C_16  and  O_17 
REMARK    8  A    between atoms: C_16  and  C_18 
ROOT
HETATM    1  C   UNL     1     -41.393 -52.828  12.959  1.00  0.00     0.160 A 
HETATM    2  N   UNL     1     -42.290 -53.783  12.872  1.00  0.00    -0.331 N 
ATOM      3  HN  UNL     1     -42.114 -54.782  12.764  1.00  0.00     0.168 HD
HETATM    4  C   UNL     1     -43.509 -53.165  12.956  1.00  0.00     0.061 A 
HETATM    5  C   UNL     1     -44.795 -53.717  12.867  1.00  0.00     0.032 A 
HETATM    6  C   UNL     1     -45.903 -52.866  12.938  1.00  0.00     0.002 A 
HETATM    7  C   UNL     1     -45.733 -51.490  13.102  1.00  0.00     0.002 A 
HETATM    8  C   UNL     1     -44.457 -50.920  13.205  1.00  0.00     0.032 A 
HETATM    9  C   UNL     1     -43.362 -51.790  13.126  1.00  0.00     0.063 A 
HETATM   10  N   UNL     1     -42.000 -51.606  13.170  1.00  0.00    -0.319 N 
ENDROOT
BRANCH  10  11
HETATM   11  C   UNL     1     -41.314 -50.335  13.293  1.00  0.00     0.168 C 
BRANCH  11  12
HETATM   12  C   UNL     1     -40.716 -49.831  11.969  1.00  0.00     0.172 C 
BRANCH  12  13
HETATM   13  O   UNL     1     -40.851 -50.723  10.866  1.00  0.00    -0.389 OA
HETATM   14  H   UNL     1     -40.578 -50.268  10.048  1.00  0.00     0.210 HD
ENDBRANCH  12  13
BRANCH  12  15
HETATM   15  C   UNL     1     -41.350 -48.527  11.541  1.00  0.00     0.011 A 
HETATM   16  C   UNL     1     -42.743 -48.397  11.433  1.00  0.00     0.016 A 
HETATM   17  C   UNL     1     -43.303 -47.187  11.016  1.00  0.00     0.043 A 
HETATM   18  C   UNL     1     -42.479 -46.108  10.712  1.00  0.00     0.119 A 
HETATM   19  F   UNL     1     -43.024 -44.957  10.301  1.00  0.00    -0.206 F 
HETATM   20  C   UNL     1     -41.101 -46.206  10.829  1.00  0.00     0.085 A 
HETATM   21  C   UNL     1     -40.550 -47.410  11.246  1.00  0.00     0.128 A 
HETATM   22  F   UNL     1     -39.217 -47.501  11.357  1.00  0.00    -0.205 F 
ENDBRANCH  12  15
ENDBRANCH  11  12
ENDBRANCH  10  11
BRANCH   1  23
HETATM   23  N   UNL     1     -40.050 -52.946  12.805  1.00  0.00    -0.262 NA
HETATM   24  H   UNL     1     -39.711 -53.641  12.145  1.00  0.00     0.130 HD
BRANCH  23  25
HETATM   25  C   UNL     1     -39.276 -53.105  14.043  1.00  0.00     0.121 C 
BRANCH  25  26
HETATM   26  C   UNL     1     -39.204 -54.590  14.431  1.00  0.00     0.178 C 
BRANCH  26  27
HETATM   27  O   UNL     1     -38.705 -55.358  13.329  1.00  0.00    -0.400 OA
HETATM   28  H   UNL     1     -39.102 -56.242  13.415  1.00  0.00     0.209 HD
ENDBRANCH  26  27
ENDBRANCH  25  26
ENDBRANCH  23  25
ENDBRANCH   1  23
TORSDOF 8
ENDMDL
MODEL 5
REMARK VINA RESULT:      -6.2      2.812      5.010
REMARK  8 active torsions:
REMARK  status: ('A' for Active; 'I' for Inactive)
REMARK    1  A    between atoms: O_1  and  C_2 
REMARK    2  A    between atoms: C_2  and  C_3 
REMARK    3  A    between atoms: C_3  and  N_4 
REMARK    4  A    between atoms: N_4  and  C_5 
REMARK    5  A    between atoms: N_14  and  C_15 
REMARK    6  A    between atoms: C_15  and  C_16 
REMARK    7  A    between atoms: C_16  and  O_17 
REMARK    8  A    between atoms: C_16  and  C_18 
ROOT
HETATM    1  C   UNL     1     -41.319 -49.111  11.219  1.00  0.00     0.160 A 
HETATM    2  N   UNL     1     -40.125 -48.667  10.898  1.00  0.00    -0.331 N 
ATOM      3  HN  UNL     1     -39.905 -47.919  10.240  1.00  0.00     0.168 HD
HETATM    4  C   UNL     1     -39.237 -49.412  11.626  1.00  0.00     0.061 A 
HETATM    5  C   UNL     1     -37.835 -49.381  11.622  1.00  0.00     0.032 A 
HETATM    6  C   UNL     1     -37.136 -50.283  12.430  1.00  0.00     0.002 A 
HETATM    7  C   UNL     1     -37.821 -51.196  13.235  1.00  0.00     0.002 A 
HETATM    8  C   UNL     1     -39.221 -51.235  13.262  1.00  0.00     0.032 A 
HETATM    9  C   UNL     1     -39.901 -50.327  12.440  1.00  0.00     0.063 A 
HETATM   10  N   UNL     1     -41.232 -50.083  12.195  1.00  0.00    -0.319 N 
ENDROOT
BRANCH  10  11
HETATM   11  C   UNL     1     -42.351 -50.802  12.769  1.00  0.00     0.168 C 
BRANCH  11  12
HETATM   12  C   UNL     1     -42.563 -52.196  12.154  1.00  0.00     0.172 C 
BRANCH  12  13
HETATM   13  O   UNL     1     -41.565 -52.604  11.222  1.00  0.00    -0.389 OA
HETATM   14  H   UNL     1     -41.924 -52.542  10.318  1.00  0.00     0.210 HD
ENDBRANCH  12  13
BRANCH  12  15
HETATM   15  C   UNL     1     -42.614 -53.266  13.220  1.00  0.00     0.011 A 
HETATM   16  C   UNL     1     -41.479 -53.586  13.981  1.00  0.00     0.016 A 
HETATM   17  C   UNL     1     -41.545 -54.593  14.948  1.00  0.00     0.043 A 
HETATM   18  C   UNL     1     -42.740 -55.276  15.158  1.00  0.00     0.119 A 
HETATM   19  F   UNL     1     -42.790 -56.248  16.077  1.00  0.00    -0.206 F 
HETATM   20  C   UNL     1     -43.878 -54.965  14.432  1.00  0.00     0.085 A 
HETATM   21  C   UNL     1     -43.807 -53.962  13.476  1.00  0.00     0.128 A 
HETATM   22  F   UNL     1     -44.911 -53.664  12.775  1.00  0.00    -0.205 F 
ENDBRANCH  12  15
ENDBRANCH  11  12
ENDBRANCH  10  11
BRANCH   1  23
HETATM   23  N   UNL     1     -42.504 -48.756  10.661  1.00  0.00    -0.262 NA
HETATM   24  H   UNL     1     -42.596 -48.846   9.653  1.00  0.00     0.130 HD
BRANCH  23  25
HETATM   25  C   UNL     1     -43.012 -47.428  11.028  1.00  0.00     0.121 C 
BRANCH  25  26
HETATM   26  C   UNL     1     -42.962 -46.491   9.811  1.00  0.00     0.178 C 
BRANCH  26  27
HETATM   27  O   UNL     1     -41.627 -46.004   9.626  1.00  0.00    -0.400 OA
HETATM   28  H   UNL     1     -41.039 -46.761   9.791  1.00  0.00     0.209 HD
ENDBRANCH  26  27
ENDBRANCH  25  26
ENDBRANCH  23  25
ENDBRANCH   1  23
TORSDOF 8
ENDMDL
MODEL 6
REMARK VINA RESULT:      -6.1      2.937      4.241
REMARK  8 active torsions:
REMARK  status: ('A' for Active; 'I' for Inactive)
REMARK    1  A    between atoms: O_1  and  C_2 
REMARK    2  A    between atoms: C_2  and  C_3 
REMARK    3  A    between atoms: C_3  and  N_4 
REMARK    4  A    between atoms: N_4  and  C_5 
REMARK    5  A    between atoms: N_14  and  C_15 
REMARK    6  A    between atoms: C_15  and  C_16 
REMARK    7  A    between atoms: C_16  and  O_17 
REMARK    8  A    between atoms: C_16  and  C_18 
ROOT
HETATM    1  C   UNL     1     -41.456 -49.108  11.388  1.00  0.00     0.160 A 
HETATM    2  N   UNL     1     -40.297 -49.086  10.771  1.00  0.00    -0.331 N 
ATOM      3  HN  UNL     1     -40.098 -48.683   9.856  1.00  0.00     0.168 HD
HETATM    4  C   UNL     1     -39.412 -49.713  11.606  1.00  0.00     0.061 A 
HETATM    5  C   UNL     1     -38.054 -50.004  11.408  1.00  0.00     0.032 A 
HETATM    6  C   UNL     1     -37.361 -50.704  12.401  1.00  0.00     0.002 A 
HETATM    7  C   UNL     1     -38.006 -51.100  13.574  1.00  0.00     0.002 A 
HETATM    8  C   UNL     1     -39.358 -50.809  13.796  1.00  0.00     0.032 A 
HETATM    9  C   UNL     1     -40.035 -50.113  12.786  1.00  0.00     0.063 A 
HETATM   10  N   UNL     1     -41.330 -49.675  12.641  1.00  0.00    -0.319 N 
ENDROOT
BRANCH  10  11
HETATM   11  C   UNL     1     -42.410 -49.877  13.586  1.00  0.00     0.168 C 
BRANCH  11  12
HETATM   12  C   UNL     1     -43.244 -51.138  13.301  1.00  0.00     0.172 C 
BRANCH  12  13
HETATM   13  O   UNL     1     -42.577 -52.373  13.550  1.00  0.00    -0.389 OA
HETATM   14  H   UNL     1     -42.358 -52.797  12.700  1.00  0.00     0.210 HD
ENDBRANCH  12  13
BRANCH  12  15
HETATM   15  C   UNL     1     -44.507 -51.161  14.132  1.00  0.00     0.011 A 
HETATM   16  C   UNL     1     -44.494 -50.784  15.484  1.00  0.00     0.016 A 
HETATM   17  C   UNL     1     -45.671 -50.833  16.236  1.00  0.00     0.043 A 
HETATM   18  C   UNL     1     -46.858 -51.253  15.642  1.00  0.00     0.119 A 
HETATM   19  F   UNL     1     -47.977 -51.310  16.374  1.00  0.00    -0.206 F 
HETATM   20  C   UNL     1     -46.899 -51.613  14.304  1.00  0.00     0.085 A 
HETATM   21  C   UNL     1     -45.727 -51.559  13.562  1.00  0.00     0.128 A 
HETATM   22  F   UNL     1     -45.772 -51.909  12.268  1.00  0.00    -0.205 F 
ENDBRANCH  12  15
ENDBRANCH  11  12
ENDBRANCH  10  11
BRANCH   1  23
HETATM   23  N   UNL     1     -42.656 -48.710  10.897  1.00  0.00    -0.262 NA
HETATM   24  H   UNL     1     -43.122 -49.325  10.235  1.00  0.00     0.130 HD
BRANCH  23  25
HETATM   25  C   UNL     1     -42.700 -47.354  10.337  1.00  0.00     0.121 C 
BRANCH  25  26
HETATM   26  C   UNL     1     -43.223 -47.398   8.893  1.00  0.00     0.178 C 
BRANCH  26  27
HETATM   27  O   UNL     1     -42.893 -46.178   8.218  1.00  0.00    -0.400 OA
HETATM   28  H   UNL     1     -41.930 -46.201   8.076  1.00  0.00     0.209 HD
ENDBRANCH  26  27
ENDBRANCH  25  26
ENDBRANCH  23  25
ENDBRANCH   1  23
TORSDOF 8
ENDMDL
MODEL 7
REMARK VINA RESULT:      -6.1      2.762      5.112
REMARK  8 active torsions:
REMARK  status: ('A' for Active; 'I' for Inactive)
REMARK    1  A    between atoms: O_1  and  C_2 
REMARK    2  A    between atoms: C_2  and  C_3 
REMARK    3  A    between atoms: C_3  and  N_4 
REMARK    4  A    between atoms: N_4  and  C_5 
REMARK    5  A    between atoms: N_14  and  C_15 
REMARK    6  A    between atoms: C_15  and  C_16 
REMARK    7  A    between atoms: C_16  and  O_17 
REMARK    8  A    between atoms: C_16  and  C_18 
ROOT
HETATM    1  C   UNL     1     -40.078 -49.123  11.402  1.00  0.00     0.160 A 
HETATM    2  N   UNL     1     -40.140 -47.854  11.070  1.00  0.00    -0.331 N 
ATOM      3  HN  UNL     1     -39.582 -47.377  10.362  1.00  0.00     0.168 HD
HETATM    4  C   UNL     1     -41.108 -47.302  11.867  1.00  0.00     0.061 A 
HETATM    5  C   UNL     1     -41.535 -45.970  11.955  1.00  0.00     0.032 A 
HETATM    6  C   UNL     1     -42.520 -45.637  12.891  1.00  0.00     0.002 A 
HETATM    7  C   UNL     1     -43.075 -46.614  13.719  1.00  0.00     0.002 A 
HETATM    8  C   UNL     1     -42.669 -47.952  13.638  1.00  0.00     0.032 A 
HETATM    9  C   UNL     1     -41.677 -48.263  12.699  1.00  0.00     0.063 A 
HETATM   10  N   UNL     1     -41.034 -49.427  12.350  1.00  0.00    -0.319 N 
ENDROOT
BRANCH  10  11
HETATM   11  C   UNL     1     -41.235 -50.728  12.955  1.00  0.00     0.168 C 
BRANCH  11  12
HETATM   12  C   UNL     1     -42.054 -51.691  12.079  1.00  0.00     0.172 C 
BRANCH  12  13
HETATM   13  O   UNL     1     -41.287 -52.632  11.333  1.00  0.00    -0.389 OA
HETATM   14  H   UNL     1     -40.792 -52.163  10.636  1.00  0.00     0.210 HD
ENDBRANCH  12  13
BRANCH  12  15
HETATM   15  C   UNL     1     -43.027 -52.497  12.909  1.00  0.00     0.011 A 
HETATM   16  C   UNL     1     -42.743 -53.821  13.278  1.00  0.00     0.016 A 
HETATM   17  C   UNL     1     -43.667 -54.552  14.029  1.00  0.00     0.043 A 
HETATM   18  C   UNL     1     -44.869 -53.966  14.414  1.00  0.00     0.119 A 
HETATM   19  F   UNL     1     -45.753 -54.678  15.122  1.00  0.00    -0.206 F 
HETATM   20  C   UNL     1     -45.164 -52.654  14.077  1.00  0.00     0.085 A 
HETATM   21  C   UNL     1     -44.241 -51.931  13.334  1.00  0.00     0.128 A 
HETATM   22  F   UNL     1     -44.531 -50.663  13.009  1.00  0.00    -0.205 F 
ENDBRANCH  12  15
ENDBRANCH  11  12
ENDBRANCH  10  11
BRANCH   1  23
HETATM   23  N   UNL     1     -39.182 -50.043  10.963  1.00  0.00    -0.262 NA
HETATM   24  H   UNL     1     -39.414 -51.024  11.090  1.00  0.00     0.130 HD
BRANCH  23  25
HETATM   25  C   UNL     1     -37.799 -49.859  11.422  1.00  0.00     0.121 C 
BRANCH  25  26
HETATM   26  C   UNL     1     -37.495 -50.824  12.578  1.00  0.00     0.178 C 
BRANCH  26  27
HETATM   27  O   UNL     1     -36.752 -51.948  12.090  1.00  0.00    -0.400 OA
HETATM   28  H   UNL     1     -36.152 -52.207  12.811  1.00  0.00     0.209 HD
ENDBRANCH  26  27
ENDBRANCH  25  26
ENDBRANCH  23  25
ENDBRANCH   1  23
TORSDOF 8
ENDMDL
MODEL 8
REMARK VINA RESULT:      -6.0      2.394      4.304
REMARK  8 active torsions:
REMARK  status: ('A' for Active; 'I' for Inactive)
REMARK    1  A    between atoms: O_1  and  C_2 
REMARK    2  A    between atoms: C_2  and  C_3 
REMARK    3  A    between atoms: C_3  and  N_4 
REMARK    4  A    between atoms: N_4  and  C_5 
REMARK    5  A    between atoms: N_14  and  C_15 
REMARK    6  A    between atoms: C_15  and  C_16 
REMARK    7  A    between atoms: C_16  and  O_17 
REMARK    8  A    between atoms: C_16  and  C_18 
ROOT
HETATM    1  C   UNL     1     -40.589 -52.546  12.530  1.00  0.00     0.160 A 
HETATM    2  N   UNL     1     -40.021 -51.562  11.871  1.00  0.00    -0.331 N 
ATOM      3  HN  UNL     1     -39.107 -51.574  11.420  1.00  0.00     0.168 HD
HETATM    4  C   UNL     1     -40.907 -50.519  11.913  1.00  0.00     0.061 A 
HETATM    5  C   UNL     1     -40.773 -49.217  11.408  1.00  0.00     0.032 A 
HETATM    6  C   UNL     1     -41.809 -48.302  11.618  1.00  0.00     0.002 A 
HETATM    7  C   UNL     1     -42.962 -48.678  12.310  1.00  0.00     0.002 A 
HETATM    8  C   UNL     1     -43.120 -49.976  12.811  1.00  0.00     0.032 A 
HETATM    9  C   UNL     1     -42.067 -50.875  12.596  1.00  0.00     0.063 A 
HETATM   10  N   UNL     1     -41.858 -52.190  12.941  1.00  0.00    -0.319 N 
ENDROOT
BRANCH  10  11
HETATM   11  C   UNL     1     -42.761 -53.025  13.708  1.00  0.00     0.168 C 
BRANCH  11  12
HETATM   12  C   UNL     1     -44.193 -53.054  13.148  1.00  0.00     0.172 C 
BRANCH  12  13
HETATM   13  O   UNL     1     -44.607 -54.308  12.612  1.00  0.00    -0.389 OA
HETATM   14  H   UNL     1     -45.560 -54.274  12.412  1.00  0.00     0.210 HD
ENDBRANCH  12  13
BRANCH  12  15
HETATM   15  C   UNL     1     -45.206 -52.689  14.209  1.00  0.00     0.011 A 
HETATM   16  C   UNL     1     -45.184 -53.297  15.474  1.00  0.00     0.016 A 
HETATM   17  C   UNL     1     -46.143 -52.956  16.431  1.00  0.00     0.043 A 
HETATM   18  C   UNL     1     -47.120 -52.011  16.130  1.00  0.00     0.119 A 
HETATM   19  F   UNL     1     -48.043 -51.702  17.049  1.00  0.00    -0.206 F 
HETATM   20  C   UNL     1     -47.151 -51.384  14.894  1.00  0.00     0.085 A 
HETATM   21  C   UNL     1     -46.193 -51.724  13.949  1.00  0.00     0.128 A 
HETATM   22  F   UNL     1     -46.227 -51.115  12.754  1.00  0.00    -0.205 F 
ENDBRANCH  12  15
ENDBRANCH  11  12
ENDBRANCH  10  11
BRANCH   1  23
HETATM   23  N   UNL     1     -40.039 -53.743  12.854  1.00  0.00    -0.262 NA
HETATM   24  H   UNL     1     -40.669 -54.527  13.004  1.00  0.00     0.130 HD
BRANCH  23  25
HETATM   25  C   UNL     1     -39.088 -53.728  13.973  1.00  0.00     0.121 C 
BRANCH  25  26
HETATM   26  C   UNL     1     -39.374 -54.902  14.922  1.00  0.00     0.178 C 
BRANCH  26  27
HETATM   27  O   UNL     1     -38.225 -55.756  14.999  1.00  0.00    -0.400 OA
HETATM   28  H   UNL     1     -37.466 -55.210  14.731  1.00  0.00     0.209 HD
ENDBRANCH  26  27
ENDBRANCH  25  26
ENDBRANCH  23  25
ENDBRANCH   1  23
TORSDOF 8
ENDMDL
MODEL 9
REMARK VINA RESULT:      -5.9      3.574      6.300
REMARK  8 active torsions:
REMARK  status: ('A' for Active; 'I' for Inactive)
REMARK    1  A    between atoms: O_1  and  C_2 
REMARK    2  A    between atoms: C_2  and  C_3 
REMARK    3  A    between atoms: C_3  and  N_4 
REMARK    4  A    between atoms: N_4  and  C_5 
REMARK    5  A    between atoms: N_14  and  C_15 
REMARK    6  A    between atoms: C_15  and  C_16 
REMARK    7  A    between atoms: C_16  and  O_17 
REMARK    8  A    between atoms: C_16  and  C_18 
ROOT
HETATM    1  C   UNL     1     -41.579 -47.292  10.370  1.00  0.00     0.160 A 
HETATM    2  N   UNL     1     -41.231 -46.028  10.293  1.00  0.00    -0.331 N 
ATOM      3  HN  UNL     1     -41.485 -45.365   9.561  1.00  0.00     0.168 HD
HETATM    4  C   UNL     1     -40.459 -45.782  11.397  1.00  0.00     0.061 A 
HETATM    5  C   UNL     1     -39.793 -44.606  11.773  1.00  0.00     0.032 A 
HETATM    6  C   UNL     1     -39.017 -44.612  12.937  1.00  0.00     0.002 A 
HETATM    7  C   UNL     1     -38.914 -45.765  13.717  1.00  0.00     0.002 A 
HETATM    8  C   UNL     1     -39.581 -46.945  13.365  1.00  0.00     0.032 A 
HETATM    9  C   UNL     1     -40.347 -46.920  12.193  1.00  0.00     0.063 A 
HETATM   10  N   UNL     1     -41.109 -47.858  11.538  1.00  0.00    -0.319 N 
ENDROOT
BRANCH  10  11
HETATM   11  C   UNL     1     -41.291 -49.240  11.937  1.00  0.00     0.168 C 
BRANCH  11  12
HETATM   12  C   UNL     1     -42.633 -49.500  12.643  1.00  0.00     0.172 C 
BRANCH  12  13
HETATM   13  O   UNL     1     -43.792 -49.197  11.871  1.00  0.00    -0.389 OA
HETATM   14  H   UNL     1     -43.552 -48.570  11.164  1.00  0.00     0.210 HD
ENDBRANCH  12  13
BRANCH  12  15
HETATM   15  C   UNL     1     -42.764 -50.949  13.055  1.00  0.00     0.011 A 
HETATM   16  C   UNL     1     -41.953 -51.943  12.485  1.00  0.00     0.016 A 
HETATM   17  C   UNL     1     -42.108 -53.277  12.869  1.00  0.00     0.043 A 
HETATM   18  C   UNL     1     -43.064 -53.621  13.821  1.00  0.00     0.119 A 
HETATM   19  F   UNL     1     -43.213 -54.903  14.172  1.00  0.00    -0.206 F 
HETATM   20  C   UNL     1     -43.864 -52.655  14.411  1.00  0.00     0.085 A 
HETATM   21  C   UNL     1     -43.704 -51.330  14.028  1.00  0.00     0.128 A 
HETATM   22  F   UNL     1     -44.480 -50.399  14.601  1.00  0.00    -0.205 F 
ENDBRANCH  12  15
ENDBRANCH  11  12
ENDBRANCH  10  11
BRANCH   1  23
HETATM   23  N   UNL     1     -42.247 -48.017   9.438  1.00  0.00    -0.262 NA
HETATM   24  H   UNL     1     -41.702 -48.449   8.696  1.00  0.00     0.130 HD
BRANCH  23  25
HETATM   25  C   UNL     1     -43.390 -47.348   8.804  1.00  0.00     0.121 C 
BRANCH  25  26
HETATM   26  C   UNL     1     -43.820 -48.119   7.547  1.00  0.00     0.178 C 
BRANCH  26  27
HETATM   27  O   UNL     1     -42.675 -48.717   6.927  1.00  0.00    -0.400 OA
HETATM   28  H   UNL     1     -42.739 -48.504   5.980  1.00  0.00     0.209 HD
ENDBRANCH  26  27
ENDBRANCH  25  26
ENDBRANCH  23  25
ENDBRANCH   1  23
TORSDOF 8
ENDMDL
