MODEL 1
REMARK VINA RESULT:      -6.2      0.000      0.000
REMARK  4 active torsions:
REMARK  status: ('A' for Active; 'I' for Inactive)
REMARK    1  A    between atoms: C_2  and  C_3 
REMARK    2  A    between atoms: N_8  and  C_9 
REMARK    3  A    between atoms: C_9  and  C_10 
REMARK       I    between atoms: C_10  and  N_12 
REMARK    4  A    between atoms: N_12  and  C_13 
ROOT
HETATM    1  C   UNL     1     -42.382 -51.158  12.761  1.00  0.00     0.237 C 
HETATM    2  O   UNL     1     -42.538 -50.393  13.712  1.00  0.00    -0.272 OA
HETATM    3  N   UNL     1     -43.258 -52.192  12.480  1.00  0.00    -0.355 N 
HETATM    4  H   UNL     1     -43.217 -52.612  11.551  1.00  0.00     0.162 HD
ENDROOT
BRANCH   1   5
HETATM    5  C   UNL     1     -41.128 -51.087  11.914  1.00  0.00     0.250 C 
BRANCH   5   6
HETATM    6  N   UNL     1     -39.965 -51.630  12.573  1.00  0.00    -0.256 N 
HETATM    7  C   UNL     1     -38.749 -51.060  12.855  1.00  0.00     0.109 A 
HETATM    8  N   UNL     1     -38.056 -51.934  13.558  1.00  0.00    -0.274 N 
HETATM    9  N   UNL     1     -38.865 -53.027  13.730  1.00  0.00    -0.007 NA
ATOM     10  HN  UNL     1     -37.104 -51.819  13.906  1.00  0.00     0.185 HD
HETATM   11  N   UNL     1     -40.040 -52.841  13.155  1.00  0.00    -0.005 NA
BRANCH   7  12
HETATM   12  C   UNL     1     -38.280 -49.706  12.454  1.00  0.00     0.074 C 
HETATM   13  C   UNL     1     -37.451 -49.746  11.179  1.00  0.00     0.013 C 
ENDBRANCH   7  12
ENDBRANCH   5   6
ENDBRANCH   1   5
BRANCH   3  14
HETATM   14  C   UNL     1     -44.453 -52.436  13.297  1.00  0.00     0.084 C 
HETATM   15  C   UNL     1     -44.833 -53.923  13.232  1.00  0.00     0.025 C 
HETATM   16  C   UNL     1     -45.841 -54.431  14.273  1.00  0.00     0.002 C 
HETATM   17  C   UNL     1     -45.684 -53.858  15.683  1.00  0.00     0.000 C 
HETATM   18  C   UNL     1     -46.663 -52.732  16.032  1.00  0.00     0.000 C 
HETATM   19  C   UNL     1     -46.522 -51.403  15.282  1.00  0.00     0.000 C 
HETATM   20  C   UNL     1     -46.825 -51.469  13.783  1.00  0.00     0.002 C 
HETATM   21  C   UNL     1     -45.588 -51.492  12.879  1.00  0.00     0.025 C 
ENDBRANCH   3  14
TORSDOF 4
ENDMDL
MODEL 2
REMARK VINA RESULT:      -6.1      1.587      2.131
REMARK  4 active torsions:
REMARK  status: ('A' for Active; 'I' for Inactive)
REMARK    1  A    between atoms: C_2  and  C_3 
REMARK    2  A    between atoms: N_8  and  C_9 
REMARK    3  A    between atoms: C_9  and  C_10 
REMARK       I    between atoms: C_10  and  N_12 
REMARK    4  A    between atoms: N_12  and  C_13 
ROOT
HETATM    1  C   UNL     1     -41.851 -51.849  13.013  1.00  0.00     0.237 C 
HETATM    2  O   UNL     1     -41.651 -52.050  14.211  1.00  0.00    -0.272 OA
HETATM    3  N   UNL     1     -43.102 -51.967  12.432  1.00  0.00    -0.355 N 
HETATM    4  H   UNL     1     -43.243 -51.541  11.517  1.00  0.00     0.162 HD
ENDROOT
BRANCH   1   5
HETATM    5  C   UNL     1     -40.692 -51.589  12.073  1.00  0.00     0.250 C 
BRANCH   5   6
HETATM    6  N   UNL     1     -40.494 -50.189  11.788  1.00  0.00    -0.256 N 
HETATM    7  C   UNL     1     -39.343 -49.445  11.718  1.00  0.00     0.109 A 
HETATM    8  N   UNL     1     -39.680 -48.231  11.328  1.00  0.00    -0.274 N 
HETATM    9  N   UNL     1     -41.037 -48.246  11.130  1.00  0.00    -0.007 NA
ATOM     10  HN  UNL     1     -39.054 -47.436  11.199  1.00  0.00     0.185 HD
HETATM   11  N   UNL     1     -41.538 -49.443  11.384  1.00  0.00    -0.005 NA
BRANCH   7  12
HETATM   12  C   UNL     1     -37.960 -49.903  12.021  1.00  0.00     0.074 C 
HETATM   13  C   UNL     1     -37.121 -50.051  10.760  1.00  0.00     0.013 C 
ENDBRANCH   7  12
ENDBRANCH   5   6
ENDBRANCH   1   5
BRANCH   3  14
HETATM   14  C   UNL     1     -44.287 -52.326  13.219  1.00  0.00     0.084 C 
HETATM   15  C   UNL     1     -44.633 -53.806  12.992  1.00  0.00     0.025 C 
HETATM   16  C   UNL     1     -45.626 -54.449  13.972  1.00  0.00     0.002 C 
HETATM   17  C   UNL     1     -45.477 -54.030  15.436  1.00  0.00     0.000 C 
HETATM   18  C   UNL     1     -46.480 -52.972  15.907  1.00  0.00     0.000 C 
HETATM   19  C   UNL     1     -46.373 -51.566  15.307  1.00  0.00     0.000 C 
HETATM   20  C   UNL     1     -46.679 -51.475  13.810  1.00  0.00     0.002 C 
HETATM   21  C   UNL     1     -45.446 -51.369  12.908  1.00  0.00     0.025 C 
ENDBRANCH   3  14
TORSDOF 4
ENDMDL
MODEL 3
REMARK VINA RESULT:      -5.8      2.553      6.589
REMARK  4 active torsions:
REMARK  status: ('A' for Active; 'I' for Inactive)
REMARK    1  A    between atoms: C_2  and  C_3 
REMARK    2  A    between atoms: N_8  and  C_9 
REMARK    3  A    between atoms: C_9  and  C_10 
REMARK       I    between atoms: C_10  and  N_12 
REMARK    4  A    between atoms: N_12  and  C_13 
ROOT
HETATM    1  C   UNL     1     -43.039 -52.513  13.089  1.00  0.00     0.237 C 
HETATM    2  O   UNL     1     -42.763 -52.374  14.280  1.00  0.00    -0.272 OA
HETATM    3  N   UNL     1     -42.687 -51.585  12.125  1.00  0.00    -0.355 N 
HETATM    4  H   UNL     1     -42.713 -51.880  11.149  1.00  0.00     0.162 HD
ENDROOT
BRANCH   1   5
HETATM    5  C   UNL     1     -43.912 -53.664  12.631  1.00  0.00     0.250 C 
BRANCH   5   6
HETATM    6  N   UNL     1     -45.082 -53.853  13.454  1.00  0.00    -0.256 N 
HETATM    7  C   UNL     1     -46.189 -53.061  13.630  1.00  0.00     0.109 A 
HETATM    8  N   UNL     1     -47.025 -53.719  14.409  1.00  0.00    -0.274 N 
HETATM    9  N   UNL     1     -46.438 -54.927  14.683  1.00  0.00    -0.007 NA
ATOM     10  HN  UNL     1     -47.932 -53.392  14.743  1.00  0.00     0.185 HD
HETATM   11  N   UNL     1     -45.264 -55.028  14.084  1.00  0.00    -0.005 NA
BRANCH   7  12
HETATM   12  C   UNL     1     -46.424 -51.709  13.055  1.00  0.00     0.074 C 
HETATM   13  C   UNL     1     -47.008 -51.780  11.652  1.00  0.00     0.013 C 
ENDBRANCH   7  12
ENDBRANCH   5   6
ENDBRANCH   1   5
BRANCH   3  14
HETATM   14  C   UNL     1     -41.938 -50.369  12.461  1.00  0.00     0.084 C 
HETATM   15  C   UNL     1     -42.891 -49.165  12.500  1.00  0.00     0.025 C 
HETATM   16  C   UNL     1     -42.364 -47.879  13.154  1.00  0.00     0.002 C 
HETATM   17  C   UNL     1     -41.508 -48.075  14.406  1.00  0.00     0.000 C 
HETATM   18  C   UNL     1     -39.997 -47.972  14.174  1.00  0.00     0.000 C 
HETATM   19  C   UNL     1     -39.326 -49.058  13.327  1.00  0.00     0.000 C 
HETATM   20  C   UNL     1     -39.749 -49.088  11.857  1.00  0.00     0.002 C 
HETATM   21  C   UNL     1     -40.755 -50.186  11.500  1.00  0.00     0.025 C 
ENDBRANCH   3  14
TORSDOF 4
ENDMDL
MODEL 4
REMARK VINA RESULT:      -5.7      1.432      1.978
REMARK  4 active torsions:
REMARK  status: ('A' for Active; 'I' for Inactive)
REMARK    1  A    between atoms: C_2  and  C_3 
REMARK    2  A    between atoms: N_8  and  C_9 
REMARK    3  A    between atoms: C_9  and  C_10 
REMARK       I    between atoms: C_10  and  N_12 
REMARK    4  A    between atoms: N_12  and  C_13 
ROOT
HETATM    1  C   UNL     1     -42.117 -53.507  13.524  1.00  0.00     0.237 C 
HETATM    2  O   UNL     1     -42.134 -53.376  14.747  1.00  0.00    -0.272 OA
HETATM    3  N   UNL     1     -43.265 -53.482  12.751  1.00  0.00    -0.355 N 
HETATM    4  H   UNL     1     -43.161 -53.335  11.747  1.00  0.00     0.162 HD
ENDROOT
BRANCH   1   5
HETATM    5  C   UNL     1     -40.827 -53.845  12.804  1.00  0.00     0.250 C 
BRANCH   5   6
HETATM    6  N   UNL     1     -39.856 -52.780  12.847  1.00  0.00    -0.256 N 
HETATM    7  C   UNL     1     -39.935 -51.478  12.421  1.00  0.00     0.109 A 
HETATM    8  N   UNL     1     -38.815 -50.878  12.773  1.00  0.00    -0.274 N 
HETATM    9  N   UNL     1     -38.065 -51.809  13.443  1.00  0.00    -0.007 NA
ATOM     10  HN  UNL     1     -38.558 -49.909  12.584  1.00  0.00     0.185 HD
HETATM   11  N   UNL     1     -38.702 -52.965  13.515  1.00  0.00    -0.005 NA
BRANCH   7  12
HETATM   12  C   UNL     1     -41.068 -50.841  11.696  1.00  0.00     0.074 C 
HETATM   13  C   UNL     1     -41.936 -50.002  12.622  1.00  0.00     0.013 C 
ENDBRANCH   7  12
ENDBRANCH   5   6
ENDBRANCH   1   5
BRANCH   3  14
HETATM   14  C   UNL     1     -44.591 -53.276  13.346  1.00  0.00     0.084 C 
HETATM   15  C   UNL     1     -45.209 -54.631  13.722  1.00  0.00     0.025 C 
HETATM   16  C   UNL     1     -46.432 -54.608  14.650  1.00  0.00     0.002 C 
HETATM   17  C   UNL     1     -46.388 -53.575  15.778  1.00  0.00     0.000 C 
HETATM   18  C   UNL     1     -47.197 -52.302  15.515  1.00  0.00     0.000 C 
HETATM   19  C   UNL     1     -46.721 -51.367  14.399  1.00  0.00     0.000 C 
HETATM   20  C   UNL     1     -46.806 -51.948  12.986  1.00  0.00     0.002 C 
HETATM   21  C   UNL     1     -45.472 -52.437  12.411  1.00  0.00     0.025 C 
ENDBRANCH   3  14
TORSDOF 4
ENDMDL
MODEL 5
REMARK VINA RESULT:      -5.7      3.095      4.048
REMARK  4 active torsions:
REMARK  status: ('A' for Active; 'I' for Inactive)
REMARK    1  A    between atoms: C_2  and  C_3 
REMARK    2  A    between atoms: N_8  and  C_9 
REMARK    3  A    between atoms: C_9  and  C_10 
REMARK       I    between atoms: C_10  and  N_12 
REMARK    4  A    between atoms: N_12  and  C_13 
ROOT
HETATM    1  C   UNL     1     -42.392 -50.684  12.742  1.00  0.00     0.237 C 
HETATM    2  O   UNL     1     -41.716 -51.449  13.428  1.00  0.00    -0.272 OA
HETATM    3  N   UNL     1     -43.768 -50.791  12.633  1.00  0.00    -0.355 N 
HETATM    4  H   UNL     1     -44.281 -49.987  12.272  1.00  0.00     0.162 HD
ENDROOT
BRANCH   1   5
HETATM    5  C   UNL     1     -41.724 -49.649  11.859  1.00  0.00     0.250 C 
BRANCH   5   6
HETATM    6  N   UNL     1     -42.309 -48.336  11.980  1.00  0.00    -0.256 N 
HETATM    7  C   UNL     1     -42.834 -47.500  11.027  1.00  0.00     0.109 A 
HETATM    8  N   UNL     1     -43.333 -46.451  11.653  1.00  0.00    -0.274 N 
HETATM    9  N   UNL     1     -43.137 -46.665  12.992  1.00  0.00    -0.007 NA
ATOM     10  HN  UNL     1     -43.778 -45.640  11.223  1.00  0.00     0.185 HD
HETATM   11  N   UNL     1     -42.536 -47.823  13.203  1.00  0.00    -0.005 NA
BRANCH   7  12
HETATM   12  C   UNL     1     -42.851 -47.717   9.555  1.00  0.00     0.074 C 
HETATM   13  C   UNL     1     -44.210 -47.401   8.948  1.00  0.00     0.013 C 
ENDBRANCH   7  12
ENDBRANCH   5   6
ENDBRANCH   1   5
BRANCH   3  14
HETATM   14  C   UNL     1     -44.520 -51.826  13.351  1.00  0.00     0.084 C 
HETATM   15  C   UNL     1     -44.473 -53.144  12.563  1.00  0.00     0.025 C 
HETATM   16  C   UNL     1     -44.911 -54.416  13.303  1.00  0.00     0.002 C 
HETATM   17  C   UNL     1     -44.476 -54.515  14.767  1.00  0.00     0.000 C 
HETATM   18  C   UNL     1     -45.562 -54.158  15.786  1.00  0.00     0.000 C 
HETATM   19  C   UNL     1     -46.044 -52.704  15.840  1.00  0.00     0.000 C 
HETATM   20  C   UNL     1     -46.780 -52.218  14.590  1.00  0.00     0.002 C 
HETATM   21  C   UNL     1     -45.944 -51.341  13.653  1.00  0.00     0.025 C 
ENDBRANCH   3  14
TORSDOF 4
ENDMDL
MODEL 6
REMARK VINA RESULT:      -5.6      1.917      3.072
REMARK  4 active torsions:
REMARK  status: ('A' for Active; 'I' for Inactive)
REMARK    1  A    between atoms: C_2  and  C_3 
REMARK    2  A    between atoms: N_8  and  C_9 
REMARK    3  A    between atoms: C_9  and  C_10 
REMARK       I    between atoms: C_10  and  N_12 
REMARK    4  A    between atoms: N_12  and  C_13 
ROOT
HETATM    1  C   UNL     1     -40.368 -51.954  13.674  1.00  0.00     0.237 C 
HETATM    2  O   UNL     1     -40.580 -52.594  12.644  1.00  0.00    -0.272 OA
HETATM    3  N   UNL     1     -41.366 -51.645  14.582  1.00  0.00    -0.355 N 
HETATM    4  H   UNL     1     -41.084 -51.351  15.517  1.00  0.00     0.162 HD
ENDROOT
BRANCH   1   5
HETATM    5  C   UNL     1     -39.005 -51.348  13.936  1.00  0.00     0.250 C 
BRANCH   5   6
HETATM    6  N   UNL     1     -38.270 -51.057  12.730  1.00  0.00    -0.256 N 
HETATM    7  C   UNL     1     -38.397 -50.028  11.831  1.00  0.00     0.109 A 
HETATM    8  N   UNL     1     -37.425 -50.153  10.948  1.00  0.00    -0.274 N 
HETATM    9  N   UNL     1     -36.687 -51.242  11.330  1.00  0.00    -0.007 NA
ATOM     10  HN  UNL     1     -37.256 -49.554  10.139  1.00  0.00     0.185 HD
HETATM   11  N   UNL     1     -37.179 -51.785  12.429  1.00  0.00    -0.005 NA
BRANCH   7  12
HETATM   12  C   UNL     1     -39.431 -48.959  11.834  1.00  0.00     0.074 C 
HETATM   13  C   UNL     1     -40.686 -49.377  11.081  1.00  0.00     0.013 C 
ENDBRANCH   7  12
ENDBRANCH   5   6
ENDBRANCH   1   5
BRANCH   3  14
HETATM   14  C   UNL     1     -42.753 -52.079  14.383  1.00  0.00     0.084 C 
HETATM   15  C   UNL     1     -43.711 -51.084  15.054  1.00  0.00     0.025 C 
HETATM   16  C   UNL     1     -45.197 -51.180  14.676  1.00  0.00     0.002 C 
HETATM   17  C   UNL     1     -45.487 -51.474  13.203  1.00  0.00     0.000 C 
HETATM   18  C   UNL     1     -45.836 -52.934  12.895  1.00  0.00     0.000 C 
HETATM   19  C   UNL     1     -44.737 -53.987  13.074  1.00  0.00     0.000 C 
HETATM   20  C   UNL     1     -44.269 -54.196  14.515  1.00  0.00     0.002 C 
HETATM   21  C   UNL     1     -42.935 -53.526  14.861  1.00  0.00     0.025 C 
ENDBRANCH   3  14
TORSDOF 4
ENDMDL
MODEL 7
REMARK VINA RESULT:      -5.6      4.221      6.728
REMARK  4 active torsions:
REMARK  status: ('A' for Active; 'I' for Inactive)
REMARK    1  A    between atoms: C_2  and  C_3 
REMARK    2  A    between atoms: N_8  and  C_9 
REMARK    3  A    between atoms: C_9  and  C_10 
REMARK       I    between atoms: C_10  and  N_12 
REMARK    4  A    between atoms: N_12  and  C_13 
ROOT
HETATM    1  C   UNL     1     -42.572 -54.208  13.583  1.00  0.00     0.237 C 
HETATM    2  O   UNL     1     -41.502 -54.398  13.007  1.00  0.00    -0.272 OA
HETATM    3  N   UNL     1     -42.732 -54.392  14.946  1.00  0.00    -0.355 N 
HETATM    4  H   UNL     1     -43.550 -53.975  15.390  1.00  0.00     0.162 HD
ENDROOT
BRANCH   1   5
HETATM    5  C   UNL     1     -43.825 -53.886  12.794  1.00  0.00     0.250 C 
BRANCH   5   6
HETATM    6  N   UNL     1     -45.039 -54.084  13.548  1.00  0.00    -0.256 N 
HETATM    7  C   UNL     1     -46.036 -53.204  13.885  1.00  0.00     0.109 A 
HETATM    8  N   UNL     1     -46.980 -53.892  14.497  1.00  0.00    -0.274 N 
HETATM    9  N   UNL     1     -46.569 -55.200  14.505  1.00  0.00    -0.007 NA
ATOM     10  HN  UNL     1     -47.847 -53.523  14.888  1.00  0.00     0.185 HD
HETATM   11  N   UNL     1     -45.398 -55.330  13.907  1.00  0.00    -0.005 NA
BRANCH   7  12
HETATM   12  C   UNL     1     -46.068 -51.741  13.616  1.00  0.00     0.074 C 
HETATM   13  C   UNL     1     -45.169 -50.967  14.568  1.00  0.00     0.013 C 
ENDBRANCH   7  12
ENDBRANCH   5   6
ENDBRANCH   1   5
BRANCH   3  14
HETATM   14  C   UNL     1     -41.619 -54.815  15.803  1.00  0.00     0.084 C 
HETATM   15  C   UNL     1     -42.161 -55.590  17.014  1.00  0.00     0.025 C 
HETATM   16  C   UNL     1     -41.145 -56.392  17.841  1.00  0.00     0.002 C 
HETATM   17  C   UNL     1     -40.059 -57.111  17.038  1.00  0.00     0.000 C 
HETATM   18  C   UNL     1     -38.704 -56.397  17.007  1.00  0.00     0.000 C 
HETATM   19  C   UNL     1     -38.616 -55.058  16.266  1.00  0.00     0.000 C 
HETATM   20  C   UNL     1     -39.425 -53.918  16.890  1.00  0.00     0.002 C 
HETATM   21  C   UNL     1     -40.749 -53.609  16.183  1.00  0.00     0.025 C 
ENDBRANCH   3  14
TORSDOF 4
ENDMDL
MODEL 8
REMARK VINA RESULT:      -5.5      1.869      2.592
REMARK  4 active torsions:
REMARK  status: ('A' for Active; 'I' for Inactive)
REMARK    1  A    between atoms: C_2  and  C_3 
REMARK    2  A    between atoms: N_8  and  C_9 
REMARK    3  A    between atoms: C_9  and  C_10 
REMARK       I    between atoms: C_10  and  N_12 
REMARK    4  A    between atoms: N_12  and  C_13 
ROOT
HETATM    1  C   UNL     1     -41.833 -51.645  12.877  1.00  0.00     0.237 C 
HETATM    2  O   UNL     1     -41.549 -51.996  14.021  1.00  0.00    -0.272 OA
HETATM    3  N   UNL     1     -43.118 -51.715  12.368  1.00  0.00    -0.355 N 
HETATM    4  H   UNL     1     -43.329 -51.176  11.529  1.00  0.00     0.162 HD
ENDROOT
BRANCH   1   5
HETATM    5  C   UNL     1     -40.745 -51.236  11.905  1.00  0.00     0.250 C 
BRANCH   5   6
HETATM    6  N   UNL     1     -40.238 -49.906  12.144  1.00  0.00    -0.256 N 
HETATM    7  C   UNL     1     -40.713 -48.683  11.745  1.00  0.00     0.109 A 
HETATM    8  N   UNL     1     -39.951 -47.762  12.302  1.00  0.00    -0.274 N 
HETATM    9  N   UNL     1     -39.028 -48.427  13.066  1.00  0.00    -0.007 NA
ATOM     10  HN  UNL     1     -40.032 -46.752  12.186  1.00  0.00     0.185 HD
HETATM   11  N   UNL     1     -39.211 -49.734  12.996  1.00  0.00    -0.005 NA
BRANCH   7  12
HETATM   12  C   UNL     1     -41.874 -48.421  10.852  1.00  0.00     0.074 C 
HETATM   13  C   UNL     1     -43.152 -48.167  11.638  1.00  0.00     0.013 C 
ENDBRANCH   7  12
ENDBRANCH   5   6
ENDBRANCH   1   5
BRANCH   3  14
HETATM   14  C   UNL     1     -44.242 -52.203  13.177  1.00  0.00     0.084 C 
HETATM   15  C   UNL     1     -44.553 -53.662  12.808  1.00  0.00     0.025 C 
HETATM   16  C   UNL     1     -45.463 -54.445  13.766  1.00  0.00     0.002 C 
HETATM   17  C   UNL     1     -45.240 -54.181  15.256  1.00  0.00     0.000 C 
HETATM   18  C   UNL     1     -46.246 -53.220  15.897  1.00  0.00     0.000 C 
HETATM   19  C   UNL     1     -46.222 -51.755  15.450  1.00  0.00     0.000 C 
HETATM   20  C   UNL     1     -46.620 -51.514  13.993  1.00  0.00     0.002 C 
HETATM   21  C   UNL     1     -45.448 -51.264  13.039  1.00  0.00     0.025 C 
ENDBRANCH   3  14
TORSDOF 4
ENDMDL
MODEL 9
REMARK VINA RESULT:      -5.5      2.837      6.700
REMARK  4 active torsions:
REMARK  status: ('A' for Active; 'I' for Inactive)
REMARK    1  A    between atoms: C_2  and  C_3 
REMARK    2  A    between atoms: N_8  and  C_9 
REMARK    3  A    between atoms: C_9  and  C_10 
REMARK       I    between atoms: C_10  and  N_12 
REMARK    4  A    between atoms: N_12  and  C_13 
ROOT
HETATM    1  C   UNL     1     -43.595 -52.194  16.075  1.00  0.00     0.237 C 
HETATM    2  O   UNL     1     -42.880 -51.287  16.500  1.00  0.00    -0.272 OA
HETATM    3  N   UNL     1     -43.254 -52.966  14.978  1.00  0.00    -0.355 N 
HETATM    4  H   UNL     1     -43.748 -53.848  14.843  1.00  0.00     0.162 HD
ENDROOT
BRANCH   1   5
HETATM    5  C   UNL     1     -44.972 -52.428  16.661  1.00  0.00     0.250 C 
BRANCH   5   6
HETATM    6  N   UNL     1     -45.830 -53.210  15.805  1.00  0.00    -0.256 N 
HETATM    7  C   UNL     1     -46.586 -52.844  14.720  1.00  0.00     0.109 A 
HETATM    8  N   UNL     1     -47.116 -53.943  14.219  1.00  0.00    -0.274 N 
HETATM    9  N   UNL     1     -46.656 -54.983  14.984  1.00  0.00    -0.007 NA
ATOM     10  HN  UNL     1     -47.745 -54.005  13.418  1.00  0.00     0.185 HD
HETATM   11  N   UNL     1     -45.852 -54.549  15.938  1.00  0.00    -0.005 NA
BRANCH   7  12
HETATM   12  C   UNL     1     -46.782 -51.468  14.189  1.00  0.00     0.074 C 
HETATM   13  C   UNL     1     -46.136 -51.288  12.823  1.00  0.00     0.013 C 
ENDBRANCH   7  12
ENDBRANCH   5   6
ENDBRANCH   1   5
BRANCH   3  14
HETATM   14  C   UNL     1     -41.995 -52.762  14.252  1.00  0.00     0.084 C 
HETATM   15  C   UNL     1     -42.289 -52.458  12.775  1.00  0.00     0.025 C 
HETATM   16  C   UNL     1     -41.135 -51.891  11.936  1.00  0.00     0.002 C 
HETATM   17  C   UNL     1     -40.235 -50.876  12.645  1.00  0.00     0.000 C 
HETATM   18  C   UNL     1     -38.909 -51.443  13.161  1.00  0.00     0.000 C 
HETATM   19  C   UNL     1     -38.962 -52.464  14.302  1.00  0.00     0.000 C 
HETATM   20  C   UNL     1     -39.622 -53.799  13.949  1.00  0.00     0.002 C 
HETATM   21  C   UNL     1     -41.058 -53.960  14.458  1.00  0.00     0.025 C 
ENDBRANCH   3  14
TORSDOF 4
ENDMDL
