MODEL 1
REMARK VINA RESULT:      -5.9      0.000      0.000
REMARK  1 active torsions:
REMARK  status: ('A' for Active; 'I' for Inactive)
REMARK    1  A    between atoms: C_4  and  C_8 
ROOT
HETATM    1  C   UNL     1     -43.975 -47.044   9.358  1.00  0.00     0.142 C 
HETATM    2  C   UNL     1     -43.526 -45.628   9.011  1.00  0.00     0.055 C 
HETATM    3  N   UNL     1     -45.353 -47.046   9.808  1.00  0.00    -0.321 N 
HETATM    4  C   UNL     1     -46.207 -47.599   8.890  1.00  0.00     0.324 C 
HETATM    5  O   UNL     1     -47.413 -47.688   9.023  1.00  0.00    -0.247 OA
HETATM    6  N   UNL     1     -45.485 -48.041   7.836  1.00  0.00    -0.277 N 
HETATM    7  C   UNL     1     -44.155 -47.849   8.052  1.00  0.00     0.258 C 
HETATM    8  O   UNL     1     -43.271 -48.221   7.291  1.00  0.00    -0.270 OA
HETATM    9  H   UNL     1     -45.685 -46.686  10.689  1.00  0.00     0.165 HD
HETATM   10  H   UNL     1     -45.876 -48.531   7.051  1.00  0.00     0.173 HD
ENDROOT
BRANCH   1  11
HETATM   11  C   UNL     1     -43.108 -47.708  10.380  1.00  0.00     0.013 A 
HETATM   12  C   UNL     1     -41.780 -48.093  10.278  1.00  0.00     0.121 A 
HETATM   13  N   UNL     1     -41.445 -48.667  11.470  1.00  0.00    -0.307 N 
HETATM   14  C   UNL     1     -40.154 -49.181  11.859  1.00  0.00     0.177 C 
HETATM   15  N   UNL     1     -42.467 -48.724  12.336  1.00  0.00    -0.310 N 
HETATM   16  C   UNL     1     -43.475 -48.144  11.679  1.00  0.00     0.118 A 
ATOM     17  HN  UNL     1     -42.473 -49.118  13.277  1.00  0.00     0.186 HD
ENDBRANCH   1  11
TORSDOF 1
ENDMDL
MODEL 2
REMARK VINA RESULT:      -5.8      2.697      4.865
REMARK  1 active torsions:
REMARK  status: ('A' for Active; 'I' for Inactive)
REMARK    1  A    between atoms: C_4  and  C_8 
ROOT
HETATM    1  C   UNL     1     -42.489 -46.776  10.810  1.00  0.00     0.142 C 
HETATM    2  C   UNL     1     -42.998 -46.791  12.248  1.00  0.00     0.055 C 
HETATM    3  N   UNL     1     -42.018 -45.454  10.449  1.00  0.00    -0.321 N 
HETATM    4  C   UNL     1     -40.653 -45.389  10.344  1.00  0.00     0.324 C 
HETATM    5  O   UNL     1     -40.020 -44.384  10.082  1.00  0.00    -0.247 OA
HETATM    6  N   UNL     1     -40.143 -46.623  10.556  1.00  0.00    -0.277 N 
HETATM    7  C   UNL     1     -41.141 -47.529  10.745  1.00  0.00     0.258 C 
HETATM    8  O   UNL     1     -40.964 -48.732  10.889  1.00  0.00    -0.270 OA
HETATM    9  H   UNL     1     -42.599 -44.645  10.290  1.00  0.00     0.165 HD
HETATM   10  H   UNL     1     -39.166 -46.849  10.484  1.00  0.00     0.173 HD
ENDROOT
BRANCH   1  11
HETATM   11  C   UNL     1     -43.505 -47.240   9.815  1.00  0.00     0.013 A 
HETATM   12  C   UNL     1     -44.825 -47.608  10.026  1.00  0.00     0.121 A 
HETATM   13  N   UNL     1     -45.331 -47.966   8.810  1.00  0.00    -0.307 N 
HETATM   14  C   UNL     1     -46.682 -48.381   8.515  1.00  0.00     0.177 C 
HETATM   15  N   UNL     1     -44.430 -47.900   7.820  1.00  0.00    -0.310 N 
HETATM   16  C   UNL     1     -43.323 -47.461   8.426  1.00  0.00     0.118 A 
ATOM     17  HN  UNL     1     -44.558 -48.131   6.835  1.00  0.00     0.186 HD
ENDBRANCH   1  11
TORSDOF 1
ENDMDL
MODEL 3
REMARK VINA RESULT:      -5.3      2.157      3.073
REMARK  1 active torsions:
REMARK  status: ('A' for Active; 'I' for Inactive)
REMARK    1  A    between atoms: C_4  and  C_8 
ROOT
HETATM    1  C   UNL     1     -42.243 -47.435  10.868  1.00  0.00     0.142 C 
HETATM    2  C   UNL     1     -43.006 -46.959  12.100  1.00  0.00     0.055 C 
HETATM    3  N   UNL     1     -43.113 -48.188   9.988  1.00  0.00    -0.321 N 
HETATM    4  C   UNL     1     -43.428 -47.505   8.843  1.00  0.00     0.324 C 
HETATM    5  O   UNL     1     -44.165 -47.914   7.966  1.00  0.00    -0.247 OA
HETATM    6  N   UNL     1     -42.769 -46.325   8.847  1.00  0.00    -0.277 N 
HETATM    7  C   UNL     1     -41.971 -46.225   9.946  1.00  0.00     0.258 C 
HETATM    8  O   UNL     1     -41.212 -45.290  10.164  1.00  0.00    -0.270 OA
HETATM    9  H   UNL     1     -43.473 -49.114  10.167  1.00  0.00     0.165 HD
HETATM   10  H   UNL     1     -42.794 -45.663   8.092  1.00  0.00     0.173 HD
ENDROOT
BRANCH   1  11
HETATM   11  C   UNL     1     -41.030 -48.246  11.196  1.00  0.00     0.013 A 
HETATM   12  C   UNL     1     -39.974 -47.932  12.038  1.00  0.00     0.121 A 
HETATM   13  N   UNL     1     -39.110 -48.988  11.994  1.00  0.00    -0.307 N 
HETATM   14  C   UNL     1     -37.884 -49.144  12.740  1.00  0.00     0.177 C 
HETATM   15  N   UNL     1     -39.500 -49.958  11.155  1.00  0.00    -0.310 N 
HETATM   16  C   UNL     1     -40.662 -49.511  10.671  1.00  0.00     0.118 A 
ATOM     17  HN  UNL     1     -39.022 -50.832  10.937  1.00  0.00     0.186 HD
ENDBRANCH   1  11
TORSDOF 1
ENDMDL
MODEL 4
REMARK VINA RESULT:      -5.2      5.356      6.763
REMARK  1 active torsions:
REMARK  status: ('A' for Active; 'I' for Inactive)
REMARK    1  A    between atoms: C_4  and  C_8 
ROOT
HETATM    1  C   UNL     1     -43.868 -52.463  13.753  1.00  0.00     0.142 C 
HETATM    2  C   UNL     1     -44.643 -51.448  14.587  1.00  0.00     0.055 C 
HETATM    3  N   UNL     1     -43.288 -53.484  14.602  1.00  0.00    -0.321 N 
HETATM    4  C   UNL     1     -43.915 -54.695  14.477  1.00  0.00     0.324 C 
HETATM    5  O   UNL     1     -43.631 -55.697  15.105  1.00  0.00    -0.247 OA
HETATM    6  N   UNL     1     -44.876 -54.590  13.532  1.00  0.00    -0.277 N 
HETATM    7  C   UNL     1     -44.869 -53.347  12.977  1.00  0.00     0.258 C 
HETATM    8  O   UNL     1     -45.588 -53.002  12.049  1.00  0.00    -0.270 OA
HETATM    9  H   UNL     1     -42.511 -53.354  15.232  1.00  0.00     0.165 HD
HETATM   10  H   UNL     1     -45.446 -55.357  13.220  1.00  0.00     0.173 HD
ENDROOT
BRANCH   1  11
HETATM   11  C   UNL     1     -42.802 -51.844  12.905  1.00  0.00     0.013 A 
HETATM   12  C   UNL     1     -42.508 -50.503  12.719  1.00  0.00     0.121 A 
HETATM   13  N   UNL     1     -41.461 -50.448  11.845  1.00  0.00    -0.307 N 
HETATM   14  C   UNL     1     -40.771 -49.269  11.380  1.00  0.00     0.177 C 
HETATM   15  N   UNL     1     -41.070 -51.655  11.411  1.00  0.00    -0.310 N 
HETATM   16  C   UNL     1     -41.881 -52.502  12.051  1.00  0.00     0.118 A 
ATOM     17  HN  UNL     1     -40.328 -51.876  10.747  1.00  0.00     0.186 HD
ENDBRANCH   1  11
TORSDOF 1
ENDMDL
MODEL 5
REMARK VINA RESULT:      -5.1      3.885      4.954
REMARK  1 active torsions:
REMARK  status: ('A' for Active; 'I' for Inactive)
REMARK    1  A    between atoms: C_4  and  C_8 
ROOT
HETATM    1  C   UNL     1     -41.493 -45.249  11.670  1.00  0.00     0.142 C 
HETATM    2  C   UNL     1     -40.471 -45.777  12.672  1.00  0.00     0.055 C 
HETATM    3  N   UNL     1     -42.626 -44.665  12.358  1.00  0.00    -0.321 N 
HETATM    4  C   UNL     1     -42.656 -43.298  12.263  1.00  0.00     0.324 C 
HETATM    5  O   UNL     1     -43.490 -42.580  12.780  1.00  0.00    -0.247 OA
HETATM    6  N   UNL     1     -41.625 -42.895  11.487  1.00  0.00    -0.277 N 
HETATM    7  C   UNL     1     -40.935 -43.968  11.010  1.00  0.00     0.258 C 
HETATM    8  O   UNL     1     -39.997 -43.893  10.228  1.00  0.00    -0.270 OA
HETATM    9  H   UNL     1     -43.334 -45.174  12.865  1.00  0.00     0.165 HD
HETATM   10  H   UNL     1     -41.457 -41.940  11.225  1.00  0.00     0.173 HD
ENDROOT
BRANCH   1  11
HETATM   11  C   UNL     1     -41.967 -46.286  10.702  1.00  0.00     0.013 A 
HETATM   12  C   UNL     1     -42.929 -46.177   9.710  1.00  0.00     0.121 A 
HETATM   13  N   UNL     1     -43.011 -47.398   9.107  1.00  0.00    -0.307 N 
HETATM   14  C   UNL     1     -43.843 -47.764   7.985  1.00  0.00     0.177 C 
HETATM   15  N   UNL     1     -42.202 -48.316   9.656  1.00  0.00    -0.310 N 
HETATM   16  C   UNL     1     -41.569 -47.645  10.622  1.00  0.00     0.118 A 
ATOM     17  HN  UNL     1     -42.095 -49.296   9.396  1.00  0.00     0.186 HD
ENDBRANCH   1  11
TORSDOF 1
ENDMDL
MODEL 6
REMARK VINA RESULT:      -4.9      3.424      5.555
REMARK  1 active torsions:
REMARK  status: ('A' for Active; 'I' for Inactive)
REMARK    1  A    between atoms: C_4  and  C_8 
ROOT
HETATM    1  C   UNL     1     -40.221 -49.207  11.742  1.00  0.00     0.142 C 
HETATM    2  C   UNL     1     -38.709 -49.031  11.845  1.00  0.00     0.055 C 
HETATM    3  N   UNL     1     -40.544 -50.456  11.084  1.00  0.00    -0.321 N 
HETATM    4  C   UNL     1     -41.055 -51.391  11.945  1.00  0.00     0.324 C 
HETATM    5  O   UNL     1     -41.373 -52.524  11.638  1.00  0.00    -0.247 OA
HETATM    6  N   UNL     1     -41.161 -50.837  13.173  1.00  0.00    -0.277 N 
HETATM    7  C   UNL     1     -40.787 -49.528  13.143  1.00  0.00     0.258 C 
HETATM    8  O   UNL     1     -40.852 -48.770  14.102  1.00  0.00    -0.270 OA
HETATM    9  H   UNL     1     -40.418 -50.655  10.103  1.00  0.00     0.165 HD
HETATM   10  H   UNL     1     -41.555 -51.305  13.971  1.00  0.00     0.173 HD
ENDROOT
BRANCH   1  11
HETATM   11  C   UNL     1     -40.904 -48.074  11.044  1.00  0.00     0.013 A 
HETATM   12  C   UNL     1     -42.096 -48.080  10.337  1.00  0.00     0.121 A 
HETATM   13  N   UNL     1     -42.287 -46.808   9.879  1.00  0.00    -0.307 N 
HETATM   14  C   UNL     1     -43.414 -46.310   9.128  1.00  0.00     0.177 C 
HETATM   15  N   UNL     1     -41.287 -45.974  10.199  1.00  0.00    -0.310 N 
HETATM   16  C   UNL     1     -40.448 -46.738  10.904  1.00  0.00     0.118 A 
ATOM     17  HN  UNL     1     -41.189 -44.988   9.961  1.00  0.00     0.186 HD
ENDBRANCH   1  11
TORSDOF 1
ENDMDL
MODEL 7
REMARK VINA RESULT:      -4.9      2.699      3.785
REMARK  1 active torsions:
REMARK  status: ('A' for Active; 'I' for Inactive)
REMARK    1  A    between atoms: C_4  and  C_8 
ROOT
HETATM    1  C   UNL     1     -42.151 -47.458  11.552  1.00  0.00     0.142 C 
HETATM    2  C   UNL     1     -42.732 -46.905  12.850  1.00  0.00     0.055 C 
HETATM    3  N   UNL     1     -43.057 -47.222  10.447  1.00  0.00    -0.321 N 
HETATM    4  C   UNL     1     -42.603 -46.258   9.586  1.00  0.00     0.324 C 
HETATM    5  O   UNL     1     -43.199 -45.863   8.602  1.00  0.00    -0.247 OA
HETATM    6  N   UNL     1     -41.386 -45.843  10.004  1.00  0.00    -0.277 N 
HETATM    7  C   UNL     1     -40.986 -46.551  11.096  1.00  0.00     0.258 C 
HETATM    8  O   UNL     1     -39.895 -46.428  11.636  1.00  0.00    -0.270 OA
HETATM    9  H   UNL     1     -43.936 -47.694  10.295  1.00  0.00     0.165 HD
HETATM   10  H   UNL     1     -40.820 -45.173   9.513  1.00  0.00     0.173 HD
ENDROOT
BRANCH   1  11
HETATM   11  C   UNL     1     -41.809 -48.912  11.626  1.00  0.00     0.013 A 
HETATM   12  C   UNL     1     -42.394 -49.905  12.396  1.00  0.00     0.121 A 
HETATM   13  N   UNL     1     -41.722 -51.061  12.122  1.00  0.00    -0.307 N 
HETATM   14  C   UNL     1     -41.996 -52.377  12.648  1.00  0.00     0.177 C 
HETATM   15  N   UNL     1     -40.711 -50.894  11.257  1.00  0.00    -0.310 N 
HETATM   16  C   UNL     1     -40.762 -49.594  10.955  1.00  0.00     0.118 A 
ATOM     17  HN  UNL     1     -40.057 -51.595  10.910  1.00  0.00     0.186 HD
ENDBRANCH   1  11
TORSDOF 1
ENDMDL
MODEL 8
REMARK VINA RESULT:      -4.8      7.070      8.056
REMARK  1 active torsions:
REMARK  status: ('A' for Active; 'I' for Inactive)
REMARK    1  A    between atoms: C_4  and  C_8 
ROOT
HETATM    1  C   UNL     1     -44.518 -53.735  13.911  1.00  0.00     0.142 C 
HETATM    2  C   UNL     1     -44.194 -53.537  12.434  1.00  0.00     0.055 C 
HETATM    3  N   UNL     1     -45.112 -52.537  14.468  1.00  0.00    -0.321 N 
HETATM    4  C   UNL     1     -46.450 -52.682  14.729  1.00  0.00     0.324 C 
HETATM    5  O   UNL     1     -47.174 -51.810  15.170  1.00  0.00    -0.247 OA
HETATM    6  N   UNL     1     -46.813 -53.950  14.436  1.00  0.00    -0.277 N 
HETATM    7  C   UNL     1     -45.734 -54.679  14.038  1.00  0.00     0.258 C 
HETATM    8  O   UNL     1     -45.767 -55.875  13.780  1.00  0.00    -0.270 OA
HETATM    9  H   UNL     1     -44.629 -51.671  14.653  1.00  0.00     0.165 HD
HETATM   10  H   UNL     1     -47.735 -54.322  14.588  1.00  0.00     0.173 HD
ENDROOT
BRANCH   1  11
HETATM   11  C   UNL     1     -43.333 -54.140  14.730  1.00  0.00     0.013 A 
HETATM   12  C   UNL     1     -42.013 -54.291  14.336  1.00  0.00     0.121 A 
HETATM   13  N   UNL     1     -41.316 -54.687  15.440  1.00  0.00    -0.307 N 
HETATM   14  C   UNL     1     -39.896 -54.927  15.537  1.00  0.00     0.177 C 
HETATM   15  N   UNL     1     -42.088 -54.846  16.525  1.00  0.00    -0.310 N 
HETATM   16  C   UNL     1     -43.310 -54.516  16.098  1.00  0.00     0.118 A 
ATOM     17  HN  UNL     1     -41.809 -55.148  17.458  1.00  0.00     0.186 HD
ENDBRANCH   1  11
TORSDOF 1
ENDMDL
MODEL 9
REMARK VINA RESULT:      -4.7      4.362      6.361
REMARK  1 active torsions:
REMARK  status: ('A' for Active; 'I' for Inactive)
REMARK    1  A    between atoms: C_4  and  C_8 
ROOT
HETATM    1  C   UNL     1     -38.564 -49.623  12.023  1.00  0.00     0.142 C 
HETATM    2  C   UNL     1     -37.385 -49.967  11.118  1.00  0.00     0.055 C 
HETATM    3  N   UNL     1     -39.426 -48.647  11.388  1.00  0.00    -0.321 N 
HETATM    4  C   UNL     1     -40.618 -49.183  10.975  1.00  0.00     0.324 C 
HETATM    5  O   UNL     1     -41.493 -48.572  10.391  1.00  0.00    -0.247 OA
HETATM    6  N   UNL     1     -40.660 -50.482  11.344  1.00  0.00    -0.277 N 
HETATM    7  C   UNL     1     -39.544 -50.818  12.048  1.00  0.00     0.258 C 
HETATM    8  O   UNL     1     -39.355 -51.912  12.562  1.00  0.00    -0.270 OA
HETATM    9  H   UNL     1     -39.207 -47.673  11.244  1.00  0.00     0.165 HD
HETATM   10  H   UNL     1     -41.452 -51.084  11.200  1.00  0.00     0.173 HD
ENDROOT
BRANCH   1  11
HETATM   11  C   UNL     1     -38.152 -49.133  13.374  1.00  0.00     0.013 A 
HETATM   12  C   UNL     1     -37.454 -49.801  14.368  1.00  0.00     0.121 A 
HETATM   13  N   UNL     1     -37.336 -48.935  15.415  1.00  0.00    -0.307 N 
HETATM   14  C   UNL     1     -36.648 -49.162  16.664  1.00  0.00     0.177 C 
HETATM   15  N   UNL     1     -37.941 -47.757  15.200  1.00  0.00    -0.310 N 
HETATM   16  C   UNL     1     -38.435 -47.875  13.965  1.00  0.00     0.118 A 
ATOM     17  HN  UNL     1     -38.008 -46.959  15.831  1.00  0.00     0.186 HD
ENDBRANCH   1  11
TORSDOF 1
ENDMDL
