MODEL 1
REMARK VINA RESULT:      -6.7      0.000      0.000
REMARK  4 active torsions:
REMARK  status: ('A' for Active; 'I' for Inactive)
REMARK    1  A    between atoms: C_8  and  C_9 
REMARK    2  A    between atoms: C_9  and  C_10 
REMARK    3  A    between atoms: C_10  and  N_11 
REMARK       I    between atoms: N_11  and  C_12 
REMARK       I    between atoms: C_12  and  N_14 
REMARK    4  A    between atoms: N_14  and  C_15 
ROOT
HETATM    1  N   UNL     1     -41.826 -47.022   9.941  1.00  0.00    -0.343 N 
HETATM    2  C   UNL     1     -41.760 -48.142  10.747  1.00  0.00     0.321 C 
HETATM    3  O   UNL     1     -42.646 -48.398  11.551  1.00  0.00    -0.247 OA
HETATM    4  N   UNL     1     -40.576 -48.819  10.575  1.00  0.00    -0.293 N 
HETATM    5  H   UNL     1     -41.306 -47.029   9.074  1.00  0.00     0.164 HD
HETATM    6  H   UNL     1     -39.825 -48.336  10.107  1.00  0.00     0.172 HD
ENDROOT
BRANCH   1   7
HETATM    7  C   UNL     1     -42.895 -46.061  10.097  1.00  0.00     0.125 C 
BRANCH   7   8
HETATM    8  C   UNL     1     -43.973 -46.204   9.021  1.00  0.00     0.040 C 
BRANCH   8   9
HETATM    9  C   UNL     1     -44.505 -47.611   8.772  1.00  0.00     0.128 C 
HETATM   10  C   UNL     1     -45.987 -47.755   8.530  1.00  0.00     0.013 C 
HETATM   11  C   UNL     1     -47.014 -47.186   9.450  1.00  0.00     0.066 C 
HETATM   12  N   UNL     1     -46.280 -48.481   7.494  1.00  0.00    -0.306 N 
HETATM   13  N   UNL     1     -45.089 -48.811   6.908  1.00  0.00    -0.270 N 
ATOM     14  HN  UNL     1     -47.212 -48.751   7.179  1.00  0.00     0.186 HD
HETATM   15  C   UNL     1     -43.970 -48.272   7.524  1.00  0.00     0.245 C 
HETATM   16  H   UNL     1     -45.081 -49.273   6.007  1.00  0.00     0.190 HD
HETATM   17  O   UNL     1     -42.814 -48.326   7.137  1.00  0.00    -0.271 OA
ENDBRANCH   8   9
ENDBRANCH   7   8
ENDBRANCH   1   7
BRANCH   4  18
HETATM   18  C   UNL     1     -40.243 -49.939  11.318  1.00  0.00     0.132 A 
HETATM   19  C   UNL     1     -39.238 -49.973  12.316  1.00  0.00     0.084 A 
HETATM   20  C   UNL     1     -39.322 -51.239  12.847  1.00  0.00     0.076 A 
HETATM   21  C   UNL     1     -38.666 -51.955  13.952  1.00  0.00     0.079 C 
HETATM   22  O   UNL     1     -40.260 -51.941  12.166  1.00  0.00    -0.241 OA
HETATM   23  N   UNL     1     -40.826 -51.137  11.206  1.00  0.00    -0.245 N 
ATOM     24  HN  UNL     1     -41.550 -51.403  10.538  1.00  0.00     0.196 HD
ENDBRANCH   4  18
TORSDOF 4
ENDMDL
MODEL 2
REMARK VINA RESULT:      -6.5      4.442      6.557
REMARK  4 active torsions:
REMARK  status: ('A' for Active; 'I' for Inactive)
REMARK    1  A    between atoms: C_8  and  C_9 
REMARK    2  A    between atoms: C_9  and  C_10 
REMARK    3  A    between atoms: C_10  and  N_11 
REMARK       I    between atoms: N_11  and  C_12 
REMARK       I    between atoms: C_12  and  N_14 
REMARK    4  A    between atoms: N_14  and  C_15 
ROOT
HETATM    1  N   UNL     1     -41.581 -52.620  11.906  1.00  0.00    -0.343 N 
HETATM    2  C   UNL     1     -41.400 -51.272  12.151  1.00  0.00     0.321 C 
HETATM    3  O   UNL     1     -41.762 -50.764  13.205  1.00  0.00    -0.247 OA
HETATM    4  N   UNL     1     -40.873 -50.626  11.058  1.00  0.00    -0.293 N 
HETATM    5  H   UNL     1     -40.975 -53.065  11.232  1.00  0.00     0.164 HD
HETATM    6  H   UNL     1     -40.903 -51.105  10.173  1.00  0.00     0.172 HD
ENDROOT
BRANCH   1   7
HETATM    7  C   UNL     1     -42.298 -53.452  12.846  1.00  0.00     0.125 C 
BRANCH   7   8
HETATM    8  C   UNL     1     -43.795 -53.527  12.539  1.00  0.00     0.040 C 
BRANCH   8   9
HETATM    9  C   UNL     1     -44.740 -53.436  13.732  1.00  0.00     0.128 C 
HETATM   10  C   UNL     1     -46.106 -52.844  13.485  1.00  0.00     0.013 C 
HETATM   11  C   UNL     1     -46.305 -51.523  12.821  1.00  0.00     0.066 C 
HETATM   12  N   UNL     1     -47.079 -53.554  13.971  1.00  0.00    -0.306 N 
HETATM   13  N   UNL     1     -46.508 -54.683  14.489  1.00  0.00    -0.270 N 
ATOM     14  HN  UNL     1     -48.071 -53.317  13.966  1.00  0.00     0.186 HD
HETATM   15  C   UNL     1     -45.135 -54.769  14.321  1.00  0.00     0.245 C 
HETATM   16  H   UNL     1     -47.095 -55.443  14.811  1.00  0.00     0.190 HD
HETATM   17  O   UNL     1     -44.413 -55.715  14.594  1.00  0.00    -0.271 OA
ENDBRANCH   8   9
ENDBRANCH   7   8
ENDBRANCH   1   7
BRANCH   4  18
HETATM   18  C   UNL     1     -40.660 -49.258  11.033  1.00  0.00     0.132 A 
HETATM   19  C   UNL     1     -41.621 -48.301  10.621  1.00  0.00     0.084 A 
HETATM   20  C   UNL     1     -41.019 -47.087  10.849  1.00  0.00     0.076 A 
HETATM   21  C   UNL     1     -41.431 -45.679  10.741  1.00  0.00     0.079 C 
HETATM   22  O   UNL     1     -39.757 -47.298  11.296  1.00  0.00    -0.241 OA
HETATM   23  N   UNL     1     -39.527 -48.649  11.399  1.00  0.00    -0.245 N 
ATOM     24  HN  UNL     1     -38.662 -49.099  11.698  1.00  0.00     0.196 HD
ENDBRANCH   4  18
TORSDOF 4
ENDMDL
MODEL 3
REMARK VINA RESULT:      -6.3      2.588      6.822
REMARK  4 active torsions:
REMARK  status: ('A' for Active; 'I' for Inactive)
REMARK    1  A    between atoms: C_8  and  C_9 
REMARK    2  A    between atoms: C_9  and  C_10 
REMARK    3  A    between atoms: C_10  and  N_11 
REMARK       I    between atoms: N_11  and  C_12 
REMARK       I    between atoms: C_12  and  N_14 
REMARK    4  A    between atoms: N_14  and  C_15 
ROOT
HETATM    1  N   UNL     1     -40.033 -50.590  11.529  1.00  0.00    -0.343 N 
HETATM    2  C   UNL     1     -40.345 -49.256  11.350  1.00  0.00     0.321 C 
HETATM    3  O   UNL     1     -39.877 -48.390  12.078  1.00  0.00    -0.247 OA
HETATM    4  N   UNL     1     -41.274 -49.084  10.351  1.00  0.00    -0.293 N 
HETATM    5  H   UNL     1     -40.123 -51.209  10.736  1.00  0.00     0.164 HD
HETATM    6  H   UNL     1     -41.786 -49.896  10.044  1.00  0.00     0.172 HD
ENDROOT
BRANCH   1   7
HETATM    7  C   UNL     1     -39.225 -51.015  12.650  1.00  0.00     0.125 C 
BRANCH   7   8
HETATM    8  C   UNL     1     -40.059 -51.297  13.900  1.00  0.00     0.040 C 
BRANCH   8   9
HETATM    9  C   UNL     1     -40.868 -52.589  13.902  1.00  0.00     0.128 C 
HETATM   10  C   UNL     1     -42.101 -52.632  13.034  1.00  0.00     0.013 C 
HETATM   11  C   UNL     1     -43.167 -51.591  13.094  1.00  0.00     0.066 C 
HETATM   12  N   UNL     1     -42.180 -53.694  12.290  1.00  0.00    -0.306 N 
HETATM   13  N   UNL     1     -41.027 -54.397  12.502  1.00  0.00    -0.270 N 
ATOM     14  HN  UNL     1     -42.948 -53.952  11.671  1.00  0.00     0.186 HD
HETATM   15  C   UNL     1     -40.128 -53.792  13.367  1.00  0.00     0.245 C 
HETATM   16  H   UNL     1     -40.815 -55.204  11.928  1.00  0.00     0.190 HD
HETATM   17  O   UNL     1     -38.995 -54.158  13.633  1.00  0.00    -0.271 OA
ENDBRANCH   8   9
ENDBRANCH   7   8
ENDBRANCH   1   7
BRANCH   4  18
HETATM   18  C   UNL     1     -41.798 -47.844  10.026  1.00  0.00     0.132 A 
HETATM   19  C   UNL     1     -43.098 -47.631   9.503  1.00  0.00     0.084 A 
HETATM   20  C   UNL     1     -43.219 -46.264   9.426  1.00  0.00     0.076 A 
HETATM   21  C   UNL     1     -44.294 -45.328   9.062  1.00  0.00     0.079 C 
HETATM   22  O   UNL     1     -42.048 -45.696   9.804  1.00  0.00    -0.241 OA
HETATM   23  N   UNL     1     -41.158 -46.678  10.166  1.00  0.00    -0.245 N 
ATOM     24  HN  UNL     1     -40.197 -46.544  10.481  1.00  0.00     0.196 HD
ENDBRANCH   4  18
TORSDOF 4
ENDMDL
MODEL 4
REMARK VINA RESULT:      -6.2      4.531      6.969
REMARK  4 active torsions:
REMARK  status: ('A' for Active; 'I' for Inactive)
REMARK    1  A    between atoms: C_8  and  C_9 
REMARK    2  A    between atoms: C_9  and  C_10 
REMARK    3  A    between atoms: C_10  and  N_11 
REMARK       I    between atoms: N_11  and  C_12 
REMARK       I    between atoms: C_12  and  N_14 
REMARK    4  A    between atoms: N_14  and  C_15 
ROOT
HETATM    1  N   UNL     1     -40.745 -50.603  11.105  1.00  0.00    -0.343 N 
HETATM    2  C   UNL     1     -41.491 -51.181  12.114  1.00  0.00     0.321 C 
HETATM    3  O   UNL     1     -41.551 -50.676  13.228  1.00  0.00    -0.247 OA
HETATM    4  N   UNL     1     -42.035 -52.379  11.717  1.00  0.00    -0.293 N 
HETATM    5  H   UNL     1     -40.996 -50.814  10.149  1.00  0.00     0.164 HD
HETATM    6  H   UNL     1     -41.663 -52.809  10.886  1.00  0.00     0.172 HD
ENDROOT
BRANCH   1   7
HETATM    7  C   UNL     1     -39.929 -49.438  11.364  1.00  0.00     0.125 C 
BRANCH   7   8
HETATM    8  C   UNL     1     -38.456 -49.790  11.578  1.00  0.00     0.040 C 
BRANCH   8   9
HETATM    9  C   UNL     1     -37.992 -49.928  13.024  1.00  0.00     0.128 C 
HETATM   10  C   UNL     1     -38.602 -48.989  14.036  1.00  0.00     0.013 C 
HETATM   11  C   UNL     1     -38.629 -47.509  13.851  1.00  0.00     0.066 C 
HETATM   12  N   UNL     1     -39.029 -49.583  15.109  1.00  0.00    -0.306 N 
HETATM   13  N   UNL     1     -38.843 -50.922  14.906  1.00  0.00    -0.270 N 
ATOM     14  HN  UNL     1     -39.425 -49.140  15.938  1.00  0.00     0.186 HD
HETATM   15  C   UNL     1     -38.322 -51.254  13.665  1.00  0.00     0.245 C 
HETATM   16  H   UNL     1     -39.222 -51.590  15.566  1.00  0.00     0.190 HD
HETATM   17  O   UNL     1     -38.167 -52.373  13.202  1.00  0.00    -0.271 OA
ENDBRANCH   8   9
ENDBRANCH   7   8
ENDBRANCH   1   7
BRANCH   4  18
HETATM   18  C   UNL     1     -42.771 -53.183  12.572  1.00  0.00     0.132 A 
HETATM   19  C   UNL     1     -44.156 -53.449  12.435  1.00  0.00     0.084 A 
HETATM   20  C   UNL     1     -44.434 -54.356  13.430  1.00  0.00     0.076 A 
HETATM   21  C   UNL     1     -45.616 -55.128  13.841  1.00  0.00     0.079 C 
HETATM   22  O   UNL     1     -43.312 -54.563  14.162  1.00  0.00    -0.241 OA
HETATM   23  N   UNL     1     -42.279 -53.825  13.637  1.00  0.00    -0.245 N 
ATOM     24  HN  UNL     1     -41.323 -53.776  13.991  1.00  0.00     0.196 HD
ENDBRANCH   4  18
TORSDOF 4
ENDMDL
MODEL 5
REMARK VINA RESULT:      -6.1      3.570      5.674
REMARK  4 active torsions:
REMARK  status: ('A' for Active; 'I' for Inactive)
REMARK    1  A    between atoms: C_8  and  C_9 
REMARK    2  A    between atoms: C_9  and  C_10 
REMARK    3  A    between atoms: C_10  and  N_11 
REMARK       I    between atoms: N_11  and  C_12 
REMARK       I    between atoms: C_12  and  N_14 
REMARK    4  A    between atoms: N_14  and  C_15 
ROOT
HETATM    1  N   UNL     1     -41.231 -49.779  14.274  1.00  0.00    -0.343 N 
HETATM    2  C   UNL     1     -42.128 -50.586  13.601  1.00  0.00     0.321 C 
HETATM    3  O   UNL     1     -42.838 -50.141  12.709  1.00  0.00    -0.247 OA
HETATM    4  N   UNL     1     -42.157 -51.856  14.127  1.00  0.00    -0.293 N 
HETATM    5  H   UNL     1     -40.437 -50.218  14.718  1.00  0.00     0.164 HD
HETATM    6  H   UNL     1     -41.745 -51.995  15.036  1.00  0.00     0.172 HD
ENDROOT
BRANCH   1   7
HETATM    7  C   UNL     1     -41.178 -48.357  14.013  1.00  0.00     0.125 C 
BRANCH   7   8
HETATM    8  C   UNL     1     -39.874 -47.935  13.334  1.00  0.00     0.040 C 
BRANCH   8   9
HETATM    9  C   UNL     1     -39.769 -48.199  11.836  1.00  0.00     0.128 C 
HETATM   10  C   UNL     1     -39.546 -49.627  11.402  1.00  0.00     0.013 C 
HETATM   11  C   UNL     1     -38.450 -50.476  11.951  1.00  0.00     0.066 C 
HETATM   12  N   UNL     1     -40.347 -50.017  10.457  1.00  0.00    -0.306 N 
HETATM   13  N   UNL     1     -41.206 -48.977  10.229  1.00  0.00    -0.270 N 
ATOM     14  HN  UNL     1     -40.338 -50.918   9.980  1.00  0.00     0.186 HD
HETATM   15  C   UNL     1     -41.020 -47.879  11.055  1.00  0.00     0.245 C 
HETATM   16  H   UNL     1     -42.001 -49.105   9.615  1.00  0.00     0.190 HD
HETATM   17  O   UNL     1     -41.717 -46.879  11.125  1.00  0.00    -0.271 OA
ENDBRANCH   8   9
ENDBRANCH   7   8
ENDBRANCH   1   7
BRANCH   4  18
HETATM   18  C   UNL     1     -43.024 -52.833  13.668  1.00  0.00     0.132 A 
HETATM   19  C   UNL     1     -43.783 -53.692  14.501  1.00  0.00     0.084 A 
HETATM   20  C   UNL     1     -44.560 -54.419  13.630  1.00  0.00     0.076 A 
HETATM   21  C   UNL     1     -45.628 -55.421  13.769  1.00  0.00     0.079 C 
HETATM   22  O   UNL     1     -44.238 -54.075  12.360  1.00  0.00    -0.241 OA
HETATM   23  N   UNL     1     -43.273 -53.097  12.380  1.00  0.00    -0.245 N 
ATOM     24  HN  UNL     1     -42.832 -52.658  11.571  1.00  0.00     0.196 HD
ENDBRANCH   4  18
TORSDOF 4
ENDMDL
MODEL 6
REMARK VINA RESULT:      -6.0      6.019      7.450
REMARK  4 active torsions:
REMARK  status: ('A' for Active; 'I' for Inactive)
REMARK    1  A    between atoms: C_8  and  C_9 
REMARK    2  A    between atoms: C_9  and  C_10 
REMARK    3  A    between atoms: C_10  and  N_11 
REMARK       I    between atoms: N_11  and  C_12 
REMARK       I    between atoms: C_12  and  N_14 
REMARK    4  A    between atoms: N_14  and  C_15 
ROOT
HETATM    1  N   UNL     1     -42.042 -52.890  13.826  1.00  0.00    -0.343 N 
HETATM    2  C   UNL     1     -40.965 -53.736  14.003  1.00  0.00     0.321 C 
HETATM    3  O   UNL     1     -40.452 -54.318  13.057  1.00  0.00    -0.247 OA
HETATM    4  N   UNL     1     -40.648 -53.880  15.334  1.00  0.00    -0.293 N 
HETATM    5  H   UNL     1     -42.201 -52.172  14.520  1.00  0.00     0.164 HD
HETATM    6  H   UNL     1     -41.332 -53.583  16.011  1.00  0.00     0.172 HD
ENDROOT
BRANCH   1   7
HETATM    7  C   UNL     1     -42.662 -52.746  12.529  1.00  0.00     0.125 C 
BRANCH   7   8
HETATM    8  C   UNL     1     -44.020 -53.445  12.448  1.00  0.00     0.040 C 
BRANCH   8   9
HETATM    9  C   UNL     1     -44.884 -53.402  13.703  1.00  0.00     0.128 C 
HETATM   10  C   UNL     1     -46.282 -52.852  13.560  1.00  0.00     0.013 C 
HETATM   11  C   UNL     1     -46.569 -51.530  12.932  1.00  0.00     0.066 C 
HETATM   12  N   UNL     1     -47.196 -53.601  14.099  1.00  0.00    -0.306 N 
HETATM   13  N   UNL     1     -46.555 -54.717  14.560  1.00  0.00    -0.270 N 
ATOM     14  HN  UNL     1     -48.193 -53.398  14.166  1.00  0.00     0.186 HD
HETATM   15  C   UNL     1     -45.194 -54.755  14.297  1.00  0.00     0.245 C 
HETATM   16  H   UNL     1     -47.093 -55.501  14.909  1.00  0.00     0.190 HD
HETATM   17  O   UNL     1     -44.425 -55.680  14.505  1.00  0.00    -0.271 OA
ENDBRANCH   8   9
ENDBRANCH   7   8
ENDBRANCH   1   7
BRANCH   4  18
HETATM   18  C   UNL     1     -39.647 -54.729  15.774  1.00  0.00     0.132 A 
HETATM   19  C   UNL     1     -39.556 -55.255  17.087  1.00  0.00     0.084 A 
HETATM   20  C   UNL     1     -38.480 -56.109  17.043  1.00  0.00     0.076 A 
HETATM   21  C   UNL     1     -37.851 -57.048  17.985  1.00  0.00     0.079 C 
HETATM   22  O   UNL     1     -37.917 -56.045  15.812  1.00  0.00    -0.241 OA
HETATM   23  N   UNL     1     -38.634 -55.177  15.024  1.00  0.00    -0.245 N 
ATOM     24  HN  UNL     1     -38.433 -54.925  14.056  1.00  0.00     0.196 HD
ENDBRANCH   4  18
TORSDOF 4
ENDMDL
MODEL 7
REMARK VINA RESULT:      -6.0      2.228      6.848
REMARK  4 active torsions:
REMARK  status: ('A' for Active; 'I' for Inactive)
REMARK    1  A    between atoms: C_8  and  C_9 
REMARK    2  A    between atoms: C_9  and  C_10 
REMARK    3  A    between atoms: C_10  and  N_11 
REMARK       I    between atoms: N_11  and  C_12 
REMARK       I    between atoms: C_12  and  N_14 
REMARK    4  A    between atoms: N_14  and  C_15 
ROOT
HETATM    1  N   UNL     1     -40.407 -46.197  10.912  1.00  0.00    -0.343 N 
HETATM    2  C   UNL     1     -41.782 -46.065  10.864  1.00  0.00     0.321 C 
HETATM    3  O   UNL     1     -42.433 -45.826  11.873  1.00  0.00    -0.247 OA
HETATM    4  N   UNL     1     -42.271 -46.323   9.605  1.00  0.00    -0.293 N 
HETATM    5  H   UNL     1     -39.884 -46.029  10.064  1.00  0.00     0.164 HD
HETATM    6  H   UNL     1     -41.661 -46.792   8.955  1.00  0.00     0.172 HD
ENDROOT
BRANCH   1   7
HETATM    7  C   UNL     1     -39.706 -46.159  12.176  1.00  0.00     0.125 C 
BRANCH   7   8
HETATM    8  C   UNL     1     -39.745 -47.501  12.909  1.00  0.00     0.040 C 
BRANCH   8   9
HETATM    9  C   UNL     1     -39.167 -48.700  12.165  1.00  0.00     0.128 C 
HETATM   10  C   UNL     1     -38.525 -49.783  12.997  1.00  0.00     0.013 C 
HETATM   11  C   UNL     1     -37.471 -49.502  14.014  1.00  0.00     0.066 C 
HETATM   12  N   UNL     1     -38.922 -50.981  12.691  1.00  0.00    -0.306 N 
HETATM   13  N   UNL     1     -39.886 -50.833  11.734  1.00  0.00    -0.270 N 
ATOM     14  HN  UNL     1     -38.582 -51.858  13.086  1.00  0.00     0.186 HD
HETATM   15  C   UNL     1     -40.185 -49.519  11.409  1.00  0.00     0.245 C 
HETATM   16  H   UNL     1     -40.428 -51.635  11.435  1.00  0.00     0.190 HD
HETATM   17  O   UNL     1     -41.074 -49.121  10.673  1.00  0.00    -0.271 OA
ENDBRANCH   8   9
ENDBRANCH   7   8
ENDBRANCH   1   7
BRANCH   4  18
HETATM   18  C   UNL     1     -43.625 -46.320   9.317  1.00  0.00     0.132 A 
HETATM   19  C   UNL     1     -44.434 -47.481   9.238  1.00  0.00     0.084 A 
HETATM   20  C   UNL     1     -45.705 -47.003   9.029  1.00  0.00     0.076 A 
HETATM   21  C   UNL     1     -47.045 -47.602   8.931  1.00  0.00     0.079 C 
HETATM   22  O   UNL     1     -45.655 -45.653   8.915  1.00  0.00    -0.241 OA
HETATM   23  N   UNL     1     -44.359 -45.227   9.081  1.00  0.00    -0.245 N 
ATOM     24  HN  UNL     1     -44.023 -44.265   9.035  1.00  0.00     0.196 HD
ENDBRANCH   4  18
TORSDOF 4
ENDMDL
MODEL 8
REMARK VINA RESULT:      -6.0      4.791      7.127
REMARK  4 active torsions:
REMARK  status: ('A' for Active; 'I' for Inactive)
REMARK    1  A    between atoms: C_8  and  C_9 
REMARK    2  A    between atoms: C_9  and  C_10 
REMARK    3  A    between atoms: C_10  and  N_11 
REMARK       I    between atoms: N_11  and  C_12 
REMARK       I    between atoms: C_12  and  N_14 
REMARK    4  A    between atoms: N_14  and  C_15 
ROOT
HETATM    1  N   UNL     1     -43.882 -53.379  12.068  1.00  0.00    -0.343 N 
HETATM    2  C   UNL     1     -42.970 -52.415  12.450  1.00  0.00     0.321 C 
HETATM    3  O   UNL     1     -43.229 -51.609  13.334  1.00  0.00    -0.247 OA
HETATM    4  N   UNL     1     -41.842 -52.447  11.664  1.00  0.00    -0.293 N 
HETATM    5  H   UNL     1     -43.530 -54.219  11.629  1.00  0.00     0.164 HD
HETATM    6  H   UNL     1     -41.891 -52.957  10.796  1.00  0.00     0.172 HD
ENDROOT
BRANCH   1   7
HETATM    7  C   UNL     1     -45.213 -53.401  12.632  1.00  0.00     0.125 C 
BRANCH   7   8
HETATM    8  C   UNL     1     -45.408 -54.543  13.631  1.00  0.00     0.040 C 
BRANCH   8   9
HETATM    9  C   UNL     1     -45.160 -54.214  15.099  1.00  0.00     0.128 C 
HETATM   10  C   UNL     1     -43.724 -54.100  15.547  1.00  0.00     0.013 C 
HETATM   11  C   UNL     1     -42.710 -55.162  15.285  1.00  0.00     0.066 C 
HETATM   12  N   UNL     1     -43.476 -53.032  16.243  1.00  0.00    -0.306 N 
HETATM   13  N   UNL     1     -44.636 -52.308  16.260  1.00  0.00    -0.270 N 
ATOM     14  HN  UNL     1     -42.593 -52.782  16.688  1.00  0.00     0.186 HD
HETATM   15  C   UNL     1     -45.678 -52.864  15.534  1.00  0.00     0.245 C 
HETATM   16  H   UNL     1     -44.640 -51.371  16.644  1.00  0.00     0.190 HD
HETATM   17  O   UNL     1     -46.769 -52.367  15.305  1.00  0.00    -0.271 OA
ENDBRANCH   8   9
ENDBRANCH   7   8
ENDBRANCH   1   7
BRANCH   4  18
HETATM   18  C   UNL     1     -40.809 -51.536  11.805  1.00  0.00     0.132 A 
HETATM   19  C   UNL     1     -39.822 -51.589  12.821  1.00  0.00     0.084 A 
HETATM   20  C   UNL     1     -38.960 -50.562  12.520  1.00  0.00     0.076 A 
HETATM   21  C   UNL     1     -37.687 -50.070  13.068  1.00  0.00     0.079 C 
HETATM   22  O   UNL     1     -39.435 -49.890  11.442  1.00  0.00    -0.241 OA
HETATM   23  N   UNL     1     -40.592 -50.488  11.004  1.00  0.00    -0.245 N 
ATOM     24  HN  UNL     1     -41.172 -50.189  10.219  1.00  0.00     0.196 HD
ENDBRANCH   4  18
TORSDOF 4
ENDMDL
MODEL 9
REMARK VINA RESULT:      -5.9      4.594      6.842
REMARK  4 active torsions:
REMARK  status: ('A' for Active; 'I' for Inactive)
REMARK    1  A    between atoms: C_8  and  C_9 
REMARK    2  A    between atoms: C_9  and  C_10 
REMARK    3  A    between atoms: C_10  and  N_11 
REMARK       I    between atoms: N_11  and  C_12 
REMARK       I    between atoms: C_12  and  N_14 
REMARK    4  A    between atoms: N_14  and  C_15 
ROOT
HETATM    1  N   UNL     1     -39.558 -52.218  14.279  1.00  0.00    -0.343 N 
HETATM    2  C   UNL     1     -40.612 -52.474  13.424  1.00  0.00     0.321 C 
HETATM    3  O   UNL     1     -40.475 -52.413  12.209  1.00  0.00    -0.247 OA
HETATM    4  N   UNL     1     -41.780 -52.698  14.115  1.00  0.00    -0.293 N 
HETATM    5  H   UNL     1     -39.590 -52.617  15.207  1.00  0.00     0.164 HD
HETATM    6  H   UNL     1     -41.808 -52.427  15.084  1.00  0.00     0.172 HD
ENDROOT
BRANCH   1   7
HETATM    7  C   UNL     1     -38.283 -51.768  13.765  1.00  0.00     0.125 C 
BRANCH   7   8
HETATM    8  C   UNL     1     -38.055 -50.272  13.994  1.00  0.00     0.040 C 
BRANCH   8   9
HETATM    9  C   UNL     1     -38.594 -49.330  12.923  1.00  0.00     0.128 C 
HETATM   10  C   UNL     1     -38.444 -49.762  11.485  1.00  0.00     0.013 C 
HETATM   11  C   UNL     1     -37.140 -50.191  10.903  1.00  0.00     0.066 C 
HETATM   12  N   UNL     1     -39.536 -49.654  10.790  1.00  0.00    -0.306 N 
HETATM   13  N   UNL     1     -40.506 -49.243  11.663  1.00  0.00    -0.270 N 
ATOM     14  HN  UNL     1     -39.649 -49.838   9.794  1.00  0.00     0.186 HD
HETATM   15  C   UNL     1     -40.086 -49.109  12.977  1.00  0.00     0.245 C 
HETATM   16  H   UNL     1     -41.473 -49.212  11.363  1.00  0.00     0.190 HD
HETATM   17  O   UNL     1     -40.776 -48.864  13.953  1.00  0.00    -0.271 OA
ENDBRANCH   8   9
ENDBRANCH   7   8
ENDBRANCH   1   7
BRANCH   4  18
HETATM   18  C   UNL     1     -42.991 -52.913  13.480  1.00  0.00     0.132 A 
HETATM   19  C   UNL     1     -44.146 -52.111  13.658  1.00  0.00     0.084 A 
HETATM   20  C   UNL     1     -45.064 -52.626  12.773  1.00  0.00     0.076 A 
HETATM   21  C   UNL     1     -46.426 -52.265  12.350  1.00  0.00     0.079 C 
HETATM   22  O   UNL     1     -44.525 -53.708  12.160  1.00  0.00    -0.241 OA
HETATM   23  N   UNL     1     -43.239 -53.896  12.608  1.00  0.00    -0.245 N 
ATOM     24  HN  UNL     1     -42.599 -54.639  12.329  1.00  0.00     0.196 HD
ENDBRANCH   4  18
TORSDOF 4
ENDMDL
