MODEL 1
REMARK VINA RESULT:      -7.0      0.000      0.000
REMARK  8 active torsions:
REMARK  status: ('A' for Active; 'I' for Inactive)
REMARK    1  A    between atoms: O_2  and  C_3 
REMARK    2  A    between atoms: C_8  and  C_9 
REMARK    3  A    between atoms: C_9  and  O_10 
REMARK    4  A    between atoms: O_10  and  C_11 
REMARK    5  A    between atoms: C_11  and  C_12 
REMARK    6  A    between atoms: C_12  and  O_13 
REMARK    7  A    between atoms: C_12  and  C_14 
REMARK    8  A    between atoms: C_14  and  N_15 
ROOT
HETATM    1  C   UNL     1     -40.012 -49.685  11.514  1.00  0.00     0.160 C 
ENDROOT
BRANCH   1   2
HETATM    2  C   UNL     1     -40.019 -51.029  12.276  1.00  0.00     0.201 C 
BRANCH   2   3
HETATM    3  O   UNL     1     -41.380 -51.352  12.549  1.00  0.00    -0.384 OA
BRANCH   3   4
HETATM    4  C   UNL     1     -41.830 -52.589  11.988  1.00  0.00     0.209 C 
BRANCH   4   5
HETATM    5  C   UNL     1     -42.331 -53.478  13.110  1.00  0.00    -0.001 A 
HETATM    6  C   UNL     1     -43.672 -53.901  13.183  1.00  0.00     0.076 A 
HETATM    7  C   UNL     1     -44.080 -54.726  14.243  1.00  0.00     0.037 A 
HETATM    8  C   UNL     1     -43.170 -55.137  15.220  1.00  0.00     0.003 A 
HETATM    9  C   UNL     1     -41.843 -54.748  15.139  1.00  0.00     0.001 A 
HETATM   10  C   UNL     1     -41.424 -53.933  14.087  1.00  0.00     0.012 A 
BRANCH   6  11
HETATM   11  O   UNL     1     -44.507 -53.462  12.186  1.00  0.00    -0.355 OA
HETATM   12  C   UNL     1     -45.650 -52.709  12.584  1.00  0.00     0.210 C 
ENDBRANCH   6  11
ENDBRANCH   4   5
ENDBRANCH   3   4
ENDBRANCH   2   3
ENDBRANCH   1   2
BRANCH   1  13
HETATM   13  O   UNL     1     -40.461 -49.892  10.163  1.00  0.00    -0.392 OA
HETATM   14  H   UNL     1     -39.808 -49.520   9.548  1.00  0.00     0.210 HD
ENDBRANCH   1  13
BRANCH   1  15
HETATM   15  C   UNL     1     -40.897 -48.626  12.179  1.00  0.00     0.164 C 
BRANCH  15  16
HETATM   16  N   UNL     1     -41.251 -47.550  11.265  1.00  0.00    -0.339 N 
HETATM   17  C   UNL     1     -40.403 -46.536  10.904  1.00  0.00     0.184 A 
HETATM   18  N   UNL     1     -40.982 -45.673  10.103  1.00  0.00    -0.350 N 
HETATM   19  C   UNL     1     -42.262 -46.133   9.947  1.00  0.00     0.063 A 
ATOM     20  HN  UNL     1     -40.568 -44.840   9.686  1.00  0.00     0.166 HD
HETATM   21  C   UNL     1     -43.316 -45.565   9.220  1.00  0.00     0.077 A 
HETATM   22  C   UNL     1     -42.458 -47.330  10.641  1.00  0.00     0.065 A 
HETATM   23  C   UNL     1     -44.535 -46.237   9.198  1.00  0.00     0.157 A 
HETATM   24  F   UNL     1     -45.556 -45.707   8.508  1.00  0.00    -0.203 F 
HETATM   25  C   UNL     1     -44.710 -47.436   9.880  1.00  0.00     0.157 A 
HETATM   26  F   UNL     1     -45.895 -48.061   9.829  1.00  0.00    -0.203 F 
HETATM   27  C   UNL     1     -43.679 -48.016  10.619  1.00  0.00     0.077 A 
ENDBRANCH  15  16
ENDBRANCH   1  15
TORSDOF 8
ENDMDL
MODEL 2
REMARK VINA RESULT:      -6.8      0.944      1.884
REMARK  8 active torsions:
REMARK  status: ('A' for Active; 'I' for Inactive)
REMARK    1  A    between atoms: O_2  and  C_3 
REMARK    2  A    between atoms: C_8  and  C_9 
REMARK    3  A    between atoms: C_9  and  O_10 
REMARK    4  A    between atoms: O_10  and  C_11 
REMARK    5  A    between atoms: C_11  and  C_12 
REMARK    6  A    between atoms: C_12  and  O_13 
REMARK    7  A    between atoms: C_12  and  C_14 
REMARK    8  A    between atoms: C_14  and  N_15 
ROOT
HETATM    1  C   UNL     1     -40.000 -49.636  11.585  1.00  0.00     0.160 C 
ENDROOT
BRANCH   1   2
HETATM    2  C   UNL     1     -39.844 -50.914  12.438  1.00  0.00     0.201 C 
BRANCH   2   3
HETATM    3  O   UNL     1     -41.145 -51.478  12.594  1.00  0.00    -0.384 OA
BRANCH   3   4
HETATM    4  C   UNL     1     -41.295 -52.800  12.069  1.00  0.00     0.209 C 
BRANCH   4   5
HETATM    5  C   UNL     1     -42.309 -53.546  12.914  1.00  0.00    -0.001 A 
HETATM    6  C   UNL     1     -41.938 -54.248  14.078  1.00  0.00     0.076 A 
HETATM    7  C   UNL     1     -42.920 -54.919  14.823  1.00  0.00     0.037 A 
HETATM    8  C   UNL     1     -44.260 -54.892  14.429  1.00  0.00     0.003 A 
HETATM    9  C   UNL     1     -44.636 -54.181  13.301  1.00  0.00     0.001 A 
HETATM   10  C   UNL     1     -43.671 -53.505  12.555  1.00  0.00     0.012 A 
BRANCH   6  11
HETATM   11  O   UNL     1     -40.605 -54.225  14.406  1.00  0.00    -0.355 OA
HETATM   12  C   UNL     1     -40.281 -54.024  15.778  1.00  0.00     0.210 C 
ENDBRANCH   6  11
ENDBRANCH   4   5
ENDBRANCH   3   4
ENDBRANCH   2   3
ENDBRANCH   1   2
BRANCH   1  13
HETATM   13  O   UNL     1     -40.454 -49.985  10.265  1.00  0.00    -0.392 OA
HETATM   14  H   UNL     1     -41.361 -50.327  10.319  1.00  0.00     0.210 HD
ENDBRANCH   1  13
BRANCH   1  15
HETATM   15  C   UNL     1     -40.978 -48.631  12.202  1.00  0.00     0.164 C 
BRANCH  15  16
HETATM   16  N   UNL     1     -41.323 -47.559  11.278  1.00  0.00    -0.339 N 
HETATM   17  C   UNL     1     -40.470 -46.548  10.919  1.00  0.00     0.184 A 
HETATM   18  N   UNL     1     -41.041 -45.689  10.109  1.00  0.00    -0.350 N 
HETATM   19  C   UNL     1     -42.321 -46.148   9.945  1.00  0.00     0.063 A 
ATOM     20  HN  UNL     1     -40.623 -44.859   9.690  1.00  0.00     0.166 HD
HETATM   21  C   UNL     1     -43.368 -45.582   9.206  1.00  0.00     0.077 A 
HETATM   22  C   UNL     1     -42.524 -47.341  10.644  1.00  0.00     0.065 A 
HETATM   23  C   UNL     1     -44.588 -46.252   9.178  1.00  0.00     0.157 A 
HETATM   24  F   UNL     1     -45.603 -45.724   8.477  1.00  0.00    -0.203 F 
HETATM   25  C   UNL     1     -44.770 -47.447   9.865  1.00  0.00     0.157 A 
HETATM   26  F   UNL     1     -45.956 -48.070   9.808  1.00  0.00    -0.203 F 
HETATM   27  C   UNL     1     -43.747 -48.024  10.615  1.00  0.00     0.077 A 
ENDBRANCH  15  16
ENDBRANCH   1  15
TORSDOF 8
ENDMDL
MODEL 3
REMARK VINA RESULT:      -6.6      2.285      3.911
REMARK  8 active torsions:
REMARK  status: ('A' for Active; 'I' for Inactive)
REMARK    1  A    between atoms: O_2  and  C_3 
REMARK    2  A    between atoms: C_8  and  C_9 
REMARK    3  A    between atoms: C_9  and  O_10 
REMARK    4  A    between atoms: O_10  and  C_11 
REMARK    5  A    between atoms: C_11  and  C_12 
REMARK    6  A    between atoms: C_12  and  O_13 
REMARK    7  A    between atoms: C_12  and  C_14 
REMARK    8  A    between atoms: C_14  and  N_15 
ROOT
HETATM    1  C   UNL     1     -41.049 -52.748  12.570  1.00  0.00     0.160 C 
ENDROOT
BRANCH   1   2
HETATM    2  C   UNL     1     -41.966 -53.678  13.397  1.00  0.00     0.201 C 
BRANCH   2   3
HETATM    3  O   UNL     1     -43.224 -53.731  12.728  1.00  0.00    -0.384 OA
BRANCH   3   4
HETATM    4  C   UNL     1     -44.255 -54.424  13.439  1.00  0.00     0.209 C 
BRANCH   4   5
HETATM    5  C   UNL     1     -45.203 -53.403  14.037  1.00  0.00    -0.001 A 
HETATM    6  C   UNL     1     -45.590 -53.448  15.390  1.00  0.00     0.076 A 
HETATM    7  C   UNL     1     -46.470 -52.475  15.890  1.00  0.00     0.037 A 
HETATM    8  C   UNL     1     -46.958 -51.461  15.065  1.00  0.00     0.003 A 
HETATM    9  C   UNL     1     -46.561 -51.394  13.739  1.00  0.00     0.001 A 
HETATM   10  C   UNL     1     -45.682 -52.351  13.232  1.00  0.00     0.012 A 
BRANCH   6  11
HETATM   11  O   UNL     1     -45.066 -54.470  16.142  1.00  0.00    -0.355 OA
HETATM   12  C   UNL     1     -44.517 -54.124  17.411  1.00  0.00     0.210 C 
ENDBRANCH   6  11
ENDBRANCH   4   5
ENDBRANCH   3   4
ENDBRANCH   2   3
ENDBRANCH   1   2
BRANCH   1  13
HETATM   13  O   UNL     1     -40.597 -53.436  11.390  1.00  0.00    -0.392 OA
HETATM   14  H   UNL     1     -40.524 -52.802  10.658  1.00  0.00     0.210 HD
ENDBRANCH   1  13
BRANCH   1  15
HETATM   15  C   UNL     1     -41.747 -51.449  12.157  1.00  0.00     0.164 C 
BRANCH  15  16
HETATM   16  N   UNL     1     -40.831 -50.317  12.124  1.00  0.00    -0.339 N 
HETATM   17  C   UNL     1     -39.589 -50.315  12.704  1.00  0.00     0.184 A 
HETATM   18  N   UNL     1     -38.986 -49.158  12.567  1.00  0.00    -0.350 N 
HETATM   19  C   UNL     1     -39.874 -48.369  11.886  1.00  0.00     0.063 A 
ATOM     20  HN  UNL     1     -38.056 -48.901  12.898  1.00  0.00     0.166 HD
HETATM   21  C   UNL     1     -39.746 -47.026  11.510  1.00  0.00     0.077 A 
HETATM   22  C   UNL     1     -41.036 -49.077  11.564  1.00  0.00     0.065 A 
HETATM   23  C   UNL     1     -40.790 -46.441  10.800  1.00  0.00     0.157 A 
HETATM   24  F   UNL     1     -40.686 -45.154  10.433  1.00  0.00    -0.203 F 
HETATM   25  C   UNL     1     -41.933 -47.162  10.473  1.00  0.00     0.157 A 
HETATM   26  F   UNL     1     -42.915 -46.569   9.779  1.00  0.00    -0.203 F 
HETATM   27  C   UNL     1     -42.088 -48.497  10.844  1.00  0.00     0.077 A 
ENDBRANCH  15  16
ENDBRANCH   1  15
TORSDOF 8
ENDMDL
MODEL 4
REMARK VINA RESULT:      -6.6      4.095      5.905
REMARK  8 active torsions:
REMARK  status: ('A' for Active; 'I' for Inactive)
REMARK    1  A    between atoms: O_2  and  C_3 
REMARK    2  A    between atoms: C_8  and  C_9 
REMARK    3  A    between atoms: C_9  and  O_10 
REMARK    4  A    between atoms: O_10  and  C_11 
REMARK    5  A    between atoms: C_11  and  C_12 
REMARK    6  A    between atoms: C_12  and  O_13 
REMARK    7  A    between atoms: C_12  and  C_14 
REMARK    8  A    between atoms: C_14  and  N_15 
ROOT
HETATM    1  C   UNL     1     -41.834 -54.123  14.067  1.00  0.00     0.160 C 
ENDROOT
BRANCH   1   2
HETATM    2  C   UNL     1     -43.068 -54.959  14.473  1.00  0.00     0.201 C 
BRANCH   2   3
HETATM    3  O   UNL     1     -44.115 -54.637  13.559  1.00  0.00    -0.384 OA
BRANCH   3   4
HETATM    4  C   UNL     1     -45.436 -54.900  14.040  1.00  0.00     0.209 C 
BRANCH   4   5
HETATM    5  C   UNL     1     -45.993 -53.629  14.652  1.00  0.00    -0.001 A 
HETATM    6  C   UNL     1     -46.137 -53.474  16.044  1.00  0.00     0.076 A 
HETATM    7  C   UNL     1     -46.657 -52.274  16.556  1.00  0.00     0.037 A 
HETATM    8  C   UNL     1     -47.023 -51.232  15.701  1.00  0.00     0.003 A 
HETATM    9  C   UNL     1     -46.858 -51.367  14.332  1.00  0.00     0.001 A 
HETATM   10  C   UNL     1     -46.338 -52.551  13.812  1.00  0.00     0.012 A 
BRANCH   6  11
HETATM   11  O   UNL     1     -45.751 -54.538  16.821  1.00  0.00    -0.355 OA
HETATM   12  C   UNL     1     -45.991 -54.435  18.222  1.00  0.00     0.210 C 
ENDBRANCH   6  11
ENDBRANCH   4   5
ENDBRANCH   3   4
ENDBRANCH   2   3
ENDBRANCH   1   2
BRANCH   1  13
HETATM   13  O   UNL     1     -41.702 -54.116  12.635  1.00  0.00    -0.392 OA
HETATM   14  H   UNL     1     -42.390 -53.547  12.253  1.00  0.00     0.210 HD
ENDBRANCH   1  13
BRANCH   1  15
HETATM   15  C   UNL     1     -41.911 -52.678  14.571  1.00  0.00     0.164 C 
BRANCH  15  16
HETATM   16  N   UNL     1     -41.617 -51.712  13.521  1.00  0.00    -0.339 N 
HETATM   17  C   UNL     1     -42.570 -51.105  12.745  1.00  0.00     0.184 A 
HETATM   18  N   UNL     1     -42.038 -50.311  11.847  1.00  0.00    -0.350 N 
HETATM   19  C   UNL     1     -40.685 -50.416  12.032  1.00  0.00     0.063 A 
ATOM     20  HN  UNL     1     -42.526 -49.739  11.158  1.00  0.00     0.166 HD
HETATM   21  C   UNL     1     -39.651 -49.804  11.313  1.00  0.00     0.077 A 
HETATM   22  C   UNL     1     -40.386 -51.267  13.100  1.00  0.00     0.065 A 
HETATM   23  C   UNL     1     -38.340 -50.055  11.707  1.00  0.00     0.157 A 
HETATM   24  F   UNL     1     -37.335 -49.479  11.029  1.00  0.00    -0.203 F 
HETATM   25  C   UNL     1     -38.057 -50.892  12.781  1.00  0.00     0.157 A 
HETATM   26  F   UNL     1     -36.782 -51.103  13.140  1.00  0.00    -0.203 F 
HETATM   27  C   UNL     1     -39.069 -51.519  13.507  1.00  0.00     0.077 A 
ENDBRANCH  15  16
ENDBRANCH   1  15
TORSDOF 8
ENDMDL
MODEL 5
REMARK VINA RESULT:      -6.5      4.089      5.783
REMARK  8 active torsions:
REMARK  status: ('A' for Active; 'I' for Inactive)
REMARK    1  A    between atoms: O_2  and  C_3 
REMARK    2  A    between atoms: C_8  and  C_9 
REMARK    3  A    between atoms: C_9  and  O_10 
REMARK    4  A    between atoms: O_10  and  C_11 
REMARK    5  A    between atoms: C_11  and  C_12 
REMARK    6  A    between atoms: C_12  and  O_13 
REMARK    7  A    between atoms: C_12  and  C_14 
REMARK    8  A    between atoms: C_14  and  N_15 
ROOT
HETATM    1  C   UNL     1     -39.894 -51.427  12.647  1.00  0.00     0.160 C 
ENDROOT
BRANCH   1   2
HETATM    2  C   UNL     1     -39.302 -52.171  13.865  1.00  0.00     0.201 C 
BRANCH   2   3
HETATM    3  O   UNL     1     -39.509 -53.565  13.648  1.00  0.00    -0.384 OA
BRANCH   3   4
HETATM    4  C   UNL     1     -38.910 -54.422  14.625  1.00  0.00     0.209 C 
BRANCH   4   5
HETATM    5  C   UNL     1     -40.011 -55.097  15.419  1.00  0.00    -0.001 A 
HETATM    6  C   UNL     1     -39.735 -56.088  16.382  1.00  0.00     0.076 A 
HETATM    7  C   UNL     1     -40.795 -56.677  17.089  1.00  0.00     0.037 A 
HETATM    8  C   UNL     1     -42.115 -56.288  16.856  1.00  0.00     0.003 A 
HETATM    9  C   UNL     1     -42.392 -55.294  15.930  1.00  0.00     0.001 A 
HETATM   10  C   UNL     1     -41.348 -54.697  15.225  1.00  0.00     0.012 A 
BRANCH   6  11
HETATM   11  O   UNL     1     -38.414 -56.416  16.561  1.00  0.00    -0.355 OA
HETATM   12  C   UNL     1     -37.855 -56.165  17.847  1.00  0.00     0.210 C 
ENDBRANCH   6  11
ENDBRANCH   4   5
ENDBRANCH   3   4
ENDBRANCH   2   3
ENDBRANCH   1   2
BRANCH   1  13
HETATM   13  O   UNL     1     -38.874 -51.239  11.650  1.00  0.00    -0.392 OA
HETATM   14  H   UNL     1     -38.049 -50.968  12.083  1.00  0.00     0.210 HD
ENDBRANCH   1  13
BRANCH   1  15
HETATM   15  C   UNL     1     -41.077 -52.171  12.021  1.00  0.00     0.164 C 
BRANCH  15  16
HETATM   16  N   UNL     1     -42.359 -51.647  12.470  1.00  0.00    -0.339 N 
HETATM   17  C   UNL     1     -42.628 -50.314  12.641  1.00  0.00     0.184 A 
HETATM   18  N   UNL     1     -43.843 -50.113  13.094  1.00  0.00    -0.350 N 
HETATM   19  C   UNL     1     -44.383 -51.363  13.240  1.00  0.00     0.063 A 
ATOM     20  HN  UNL     1     -44.289 -49.218  13.296  1.00  0.00     0.166 HD
HETATM   21  C   UNL     1     -45.646 -51.722  13.726  1.00  0.00     0.077 A 
HETATM   22  C   UNL     1     -43.485 -52.352  12.826  1.00  0.00     0.065 A 
HETATM   23  C   UNL     1     -45.975 -53.074  13.762  1.00  0.00     0.157 A 
HETATM   24  F   UNL     1     -47.180 -53.437  14.227  1.00  0.00    -0.203 F 
HETATM   25  C   UNL     1     -45.078 -54.046  13.332  1.00  0.00     0.157 A 
HETATM   26  F   UNL     1     -45.433 -55.339  13.371  1.00  0.00    -0.203 F 
HETATM   27  C   UNL     1     -43.812 -53.714  12.853  1.00  0.00     0.077 A 
ENDBRANCH  15  16
ENDBRANCH   1  15
TORSDOF 8
ENDMDL
MODEL 6
REMARK VINA RESULT:      -6.4      3.468      7.156
REMARK  8 active torsions:
REMARK  status: ('A' for Active; 'I' for Inactive)
REMARK    1  A    between atoms: O_2  and  C_3 
REMARK    2  A    between atoms: C_8  and  C_9 
REMARK    3  A    between atoms: C_9  and  O_10 
REMARK    4  A    between atoms: O_10  and  C_11 
REMARK    5  A    between atoms: C_11  and  C_12 
REMARK    6  A    between atoms: C_12  and  O_13 
REMARK    7  A    between atoms: C_12  and  C_14 
REMARK    8  A    between atoms: C_14  and  N_15 
ROOT
HETATM    1  C   UNL     1     -41.239 -52.204  12.142  1.00  0.00     0.160 C 
ENDROOT
BRANCH   1   2
HETATM    2  C   UNL     1     -40.168 -51.110  12.350  1.00  0.00     0.201 C 
BRANCH   2   3
HETATM    3  O   UNL     1     -40.340 -50.149  11.310  1.00  0.00    -0.384 OA
BRANCH   3   4
HETATM    4  C   UNL     1     -41.563 -49.409  11.370  1.00  0.00     0.209 C 
BRANCH   4   5
HETATM    5  C   UNL     1     -41.269 -47.957  11.048  1.00  0.00    -0.001 A 
HETATM    6  C   UNL     1     -42.192 -47.143  10.364  1.00  0.00     0.076 A 
HETATM    7  C   UNL     1     -41.867 -45.804  10.095  1.00  0.00     0.037 A 
HETATM    8  C   UNL     1     -40.643 -45.269  10.505  1.00  0.00     0.003 A 
HETATM    9  C   UNL     1     -39.741 -46.056  11.202  1.00  0.00     0.001 A 
HETATM   10  C   UNL     1     -40.055 -47.386  11.481  1.00  0.00     0.012 A 
BRANCH   6  11
HETATM   11  O   UNL     1     -43.375 -47.736   9.997  1.00  0.00    -0.355 OA
HETATM   12  C   UNL     1     -43.811 -47.533   8.656  1.00  0.00     0.210 C 
ENDBRANCH   6  11
ENDBRANCH   4   5
ENDBRANCH   3   4
ENDBRANCH   2   3
ENDBRANCH   1   2
BRANCH   1  13
HETATM   13  O   UNL     1     -40.699 -53.264  11.334  1.00  0.00    -0.392 OA
HETATM   14  H   UNL     1     -41.080 -53.212  10.442  1.00  0.00     0.210 HD
ENDBRANCH   1  13
BRANCH   1  15
HETATM   15  C   UNL     1     -41.747 -52.789  13.463  1.00  0.00     0.164 C 
BRANCH  15  16
HETATM   16  N   UNL     1     -43.190 -52.987  13.460  1.00  0.00    -0.339 N 
HETATM   17  C   UNL     1     -43.845 -53.865  12.636  1.00  0.00     0.184 A 
HETATM   18  N   UNL     1     -45.145 -53.818  12.804  1.00  0.00    -0.350 N 
HETATM   19  C   UNL     1     -45.349 -52.862  13.763  1.00  0.00     0.063 A 
ATOM     20  HN  UNL     1     -45.853 -54.374  12.324  1.00  0.00     0.166 HD
HETATM   21  C   UNL     1     -46.558 -52.390  14.290  1.00  0.00     0.077 A 
HETATM   22  C   UNL     1     -44.136 -52.339  14.221  1.00  0.00     0.065 A 
HETATM   23  C   UNL     1     -46.505 -51.415  15.281  1.00  0.00     0.157 A 
HETATM   24  F   UNL     1     -47.654 -50.949  15.796  1.00  0.00    -0.203 F 
HETATM   25  C   UNL     1     -45.291 -50.915  15.738  1.00  0.00     0.157 A 
HETATM   26  F   UNL     1     -45.278 -49.983  16.702  1.00  0.00    -0.203 F 
HETATM   27  C   UNL     1     -44.075 -51.362  15.223  1.00  0.00     0.077 A 
ENDBRANCH  15  16
ENDBRANCH   1  15
TORSDOF 8
ENDMDL
MODEL 7
REMARK VINA RESULT:      -6.4      4.622      6.217
REMARK  8 active torsions:
REMARK  status: ('A' for Active; 'I' for Inactive)
REMARK    1  A    between atoms: O_2  and  C_3 
REMARK    2  A    between atoms: C_8  and  C_9 
REMARK    3  A    between atoms: C_9  and  O_10 
REMARK    4  A    between atoms: O_10  and  C_11 
REMARK    5  A    between atoms: C_11  and  C_12 
REMARK    6  A    between atoms: C_12  and  O_13 
REMARK    7  A    between atoms: C_12  and  C_14 
REMARK    8  A    between atoms: C_14  and  N_15 
ROOT
HETATM    1  C   UNL     1     -42.052 -54.159  14.474  1.00  0.00     0.160 C 
ENDROOT
BRANCH   1   2
HETATM    2  C   UNL     1     -43.314 -54.380  13.610  1.00  0.00     0.201 C 
BRANCH   2   3
HETATM    3  O   UNL     1     -44.206 -55.193  14.369  1.00  0.00    -0.384 OA
BRANCH   3   4
HETATM    4  C   UNL     1     -45.591 -55.029  14.048  1.00  0.00     0.209 C 
BRANCH   4   5
HETATM    5  C   UNL     1     -46.063 -53.696  14.596  1.00  0.00    -0.001 A 
HETATM    6  C   UNL     1     -46.404 -52.622  13.752  1.00  0.00     0.076 A 
HETATM    7  C   UNL     1     -46.838 -51.411  14.315  1.00  0.00     0.037 A 
HETATM    8  C   UNL     1     -46.943 -51.264  15.700  1.00  0.00     0.003 A 
HETATM    9  C   UNL     1     -46.635 -52.325  16.536  1.00  0.00     0.001 A 
HETATM   10  C   UNL     1     -46.209 -53.535  15.988  1.00  0.00     0.012 A 
BRANCH   6  11
HETATM   11  O   UNL     1     -46.282 -52.842  12.403  1.00  0.00    -0.355 OA
HETATM   12  C   UNL     1     -46.932 -51.917  11.535  1.00  0.00     0.210 C 
ENDBRANCH   6  11
ENDBRANCH   4   5
ENDBRANCH   3   4
ENDBRANCH   2   3
ENDBRANCH   1   2
BRANCH   1  13
HETATM   13  O   UNL     1     -41.964 -55.186  15.477  1.00  0.00    -0.392 OA
HETATM   14  H   UNL     1     -41.072 -55.568  15.466  1.00  0.00     0.210 HD
ENDBRANCH   1  13
BRANCH   1  15
HETATM   15  C   UNL     1     -40.764 -54.155  13.645  1.00  0.00     0.164 C 
BRANCH  15  16
HETATM   16  N   UNL     1     -40.537 -52.878  12.983  1.00  0.00    -0.339 N 
HETATM   17  C   UNL     1     -41.181 -52.479  11.840  1.00  0.00     0.184 A 
HETATM   18  N   UNL     1     -40.764 -51.306  11.427  1.00  0.00    -0.350 N 
HETATM   19  C   UNL     1     -39.800 -50.931  12.325  1.00  0.00     0.063 A 
ATOM     20  HN  UNL     1     -41.087 -50.784  10.613  1.00  0.00     0.166 HD
HETATM   21  C   UNL     1     -39.005 -49.778  12.330  1.00  0.00     0.077 A 
HETATM   22  C   UNL     1     -39.653 -51.886  13.336  1.00  0.00     0.065 A 
HETATM   23  C   UNL     1     -38.096 -49.612  13.370  1.00  0.00     0.157 A 
HETATM   24  F   UNL     1     -37.325 -48.514  13.391  1.00  0.00    -0.203 F 
HETATM   25  C   UNL     1     -37.972 -50.562  14.378  1.00  0.00     0.157 A 
HETATM   26  F   UNL     1     -37.093 -50.364  15.372  1.00  0.00    -0.203 F 
HETATM   27  C   UNL     1     -38.745 -51.722  14.391  1.00  0.00     0.077 A 
ENDBRANCH  15  16
ENDBRANCH   1  15
TORSDOF 8
ENDMDL
MODEL 8
REMARK VINA RESULT:      -6.4      3.921      7.421
REMARK  8 active torsions:
REMARK  status: ('A' for Active; 'I' for Inactive)
REMARK    1  A    between atoms: O_2  and  C_3 
REMARK    2  A    between atoms: C_8  and  C_9 
REMARK    3  A    between atoms: C_9  and  O_10 
REMARK    4  A    between atoms: O_10  and  C_11 
REMARK    5  A    between atoms: C_11  and  C_12 
REMARK    6  A    between atoms: C_12  and  O_13 
REMARK    7  A    between atoms: C_12  and  C_14 
REMARK    8  A    between atoms: C_14  and  N_15 
ROOT
HETATM    1  C   UNL     1     -38.288 -51.012  12.672  1.00  0.00     0.160 C 
ENDROOT
BRANCH   1   2
HETATM    2  C   UNL     1     -38.045 -49.572  13.176  1.00  0.00     0.201 C 
BRANCH   2   3
HETATM    3  O   UNL     1     -38.702 -48.691  12.266  1.00  0.00    -0.384 OA
BRANCH   3   4
HETATM    4  C   UNL     1     -39.531 -47.700  12.880  1.00  0.00     0.209 C 
BRANCH   4   5
HETATM    5  C   UNL     1     -40.831 -47.606  12.105  1.00  0.00    -0.001 A 
HETATM    6  C   UNL     1     -40.954 -46.809  10.950  1.00  0.00     0.076 A 
HETATM    7  C   UNL     1     -42.182 -46.762  10.271  1.00  0.00     0.037 A 
HETATM    8  C   UNL     1     -43.278 -47.500  10.722  1.00  0.00     0.003 A 
HETATM    9  C   UNL     1     -43.156 -48.307  11.842  1.00  0.00     0.001 A 
HETATM   10  C   UNL     1     -41.940 -48.368  12.522  1.00  0.00     0.012 A 
BRANCH   6  11
HETATM   11  O   UNL     1     -39.834 -46.116  10.563  1.00  0.00    -0.355 OA
HETATM   12  C   UNL     1     -39.927 -44.695  10.546  1.00  0.00     0.210 C 
ENDBRANCH   6  11
ENDBRANCH   4   5
ENDBRANCH   3   4
ENDBRANCH   2   3
ENDBRANCH   1   2
BRANCH   1  13
HETATM   13  O   UNL     1     -37.027 -51.667  12.450  1.00  0.00    -0.392 OA
HETATM   14  H   UNL     1     -36.415 -51.435  13.167  1.00  0.00     0.210 HD
ENDBRANCH   1  13
BRANCH   1  15
HETATM   15  C   UNL     1     -39.121 -51.846  13.650  1.00  0.00     0.164 C 
BRANCH  15  16
HETATM   16  N   UNL     1     -40.399 -52.249  13.081  1.00  0.00    -0.339 N 
HETATM   17  C   UNL     1     -40.920 -51.741  11.920  1.00  0.00     0.184 A 
HETATM   18  N   UNL     1     -42.103 -52.241  11.652  1.00  0.00    -0.350 N 
HETATM   19  C   UNL     1     -42.373 -53.097  12.687  1.00  0.00     0.063 A 
ATOM     20  HN  UNL     1     -42.695 -52.037  10.847  1.00  0.00     0.166 HD
HETATM   21  C   UNL     1     -43.522 -53.863  12.914  1.00  0.00     0.077 A 
HETATM   22  C   UNL     1     -41.307 -53.149  13.590  1.00  0.00     0.065 A 
HETATM   23  C   UNL     1     -43.554 -54.679  14.041  1.00  0.00     0.157 A 
HETATM   24  F   UNL     1     -44.648 -55.420  14.277  1.00  0.00    -0.203 F 
HETATM   25  C   UNL     1     -42.480 -54.734  14.923  1.00  0.00     0.157 A 
HETATM   26  F   UNL     1     -42.541 -55.540  15.993  1.00  0.00    -0.203 F 
HETATM   27  C   UNL     1     -41.329 -53.973  14.723  1.00  0.00     0.077 A 
ENDBRANCH  15  16
ENDBRANCH   1  15
TORSDOF 8
ENDMDL
MODEL 9
REMARK VINA RESULT:      -6.3      2.662      3.575
REMARK  8 active torsions:
REMARK  status: ('A' for Active; 'I' for Inactive)
REMARK    1  A    between atoms: O_2  and  C_3 
REMARK    2  A    between atoms: C_8  and  C_9 
REMARK    3  A    between atoms: C_9  and  O_10 
REMARK    4  A    between atoms: O_10  and  C_11 
REMARK    5  A    between atoms: C_11  and  C_12 
REMARK    6  A    between atoms: C_12  and  O_13 
REMARK    7  A    between atoms: C_12  and  C_14 
REMARK    8  A    between atoms: C_14  and  N_15 
ROOT
HETATM    1  C   UNL     1     -40.786 -49.331  11.468  1.00  0.00     0.160 C 
ENDROOT
BRANCH   1   2
HETATM    2  C   UNL     1     -40.865 -50.388  12.592  1.00  0.00     0.201 C 
BRANCH   2   3
HETATM    3  O   UNL     1     -42.012 -51.194  12.332  1.00  0.00    -0.384 OA
BRANCH   3   4
HETATM    4  C   UNL     1     -41.735 -52.575  12.085  1.00  0.00     0.209 C 
BRANCH   4   5
HETATM    5  C   UNL     1     -42.724 -53.418  12.867  1.00  0.00    -0.001 A 
HETATM    6  C   UNL     1     -42.332 -54.190  13.977  1.00  0.00     0.076 A 
HETATM    7  C   UNL     1     -43.292 -54.949  14.665  1.00  0.00     0.037 A 
HETATM    8  C   UNL     1     -44.630 -54.941  14.265  1.00  0.00     0.003 A 
HETATM    9  C   UNL     1     -45.028 -54.163  13.190  1.00  0.00     0.001 A 
HETATM   10  C   UNL     1     -44.085 -53.400  12.502  1.00  0.00     0.012 A 
BRANCH   6  11
HETATM   11  O   UNL     1     -41.002 -54.143  14.315  1.00  0.00    -0.355 OA
HETATM   12  C   UNL     1     -40.682 -54.259  15.699  1.00  0.00     0.210 C 
ENDBRANCH   6  11
ENDBRANCH   4   5
ENDBRANCH   3   4
ENDBRANCH   2   3
ENDBRANCH   1   2
BRANCH   1  13
HETATM   13  O   UNL     1     -40.310 -49.945  10.257  1.00  0.00    -0.392 OA
HETATM   14  H   UNL     1     -40.869 -50.711  10.045  1.00  0.00     0.210 HD
ENDBRANCH   1  13
BRANCH   1  15
HETATM   15  C   UNL     1     -42.136 -48.661  11.194  1.00  0.00     0.164 C 
BRANCH  15  16
HETATM   16  N   UNL     1     -42.242 -47.355  11.829  1.00  0.00    -0.339 N 
HETATM   17  C   UNL     1     -43.108 -47.064  12.851  1.00  0.00     0.184 A 
HETATM   18  N   UNL     1     -43.034 -45.805  13.213  1.00  0.00    -0.350 N 
HETATM   19  C   UNL     1     -42.096 -45.249  12.385  1.00  0.00     0.063 A 
ATOM     20  HN  UNL     1     -43.562 -45.341  13.952  1.00  0.00     0.166 HD
HETATM   21  C   UNL     1     -41.660 -43.919  12.321  1.00  0.00     0.077 A 
HETATM   22  C   UNL     1     -41.554 -46.204  11.520  1.00  0.00     0.065 A 
HETATM   23  C   UNL     1     -40.672 -43.597  11.396  1.00  0.00     0.157 A 
HETATM   24  F   UNL     1     -40.243 -42.327  11.319  1.00  0.00    -0.203 F 
HETATM   25  C   UNL     1     -40.131 -44.561  10.553  1.00  0.00     0.157 A 
HETATM   26  F   UNL     1     -39.173 -44.216   9.681  1.00  0.00    -0.203 F 
HETATM   27  C   UNL     1     -40.555 -45.889  10.591  1.00  0.00     0.077 A 
ENDBRANCH  15  16
ENDBRANCH   1  15
TORSDOF 8
ENDMDL
