MODEL 1
REMARK VINA RESULT:      -6.1      0.000      0.000
REMARK  5 active torsions:
REMARK  status: ('A' for Active; 'I' for Inactive)
REMARK    1  A    between atoms: N_1  and  C_2 
REMARK    2  A    between atoms: C_6  and  C_7 
REMARK    3  A    between atoms: C_7  and  C_8 
REMARK    4  A    between atoms: C_8  and  N_9 
REMARK       I    between atoms: N_9  and  C_10 
REMARK       I    between atoms: C_10  and  N_12 
REMARK    5  A    between atoms: N_12  and  C_13 
ROOT
HETATM    1  C   UNL     1     -41.466 -47.604  10.644  1.00  0.00     0.132 C 
ENDROOT
BRANCH   1   2
HETATM    2  C   UNL     1     -42.487 -46.514  10.309  1.00  0.00     0.107 C 
BRANCH   2   3
HETATM    3  C   UNL     1     -43.693 -47.055   9.633  1.00  0.00     0.164 A 
HETATM    4  O   UNL     1     -43.492 -47.711   8.457  1.00  0.00    -0.209 OA
HETATM    5  N   UNL     1     -44.753 -48.107   8.012  1.00  0.00    -0.090 N 
HETATM    6  C   UNL     1     -45.573 -47.648   8.959  1.00  0.00     0.697 A 
ATOM      7  HN  UNL     1     -44.992 -48.624   7.166  1.00  0.00     0.213 HD
HETATM    8  N   UNL     1     -44.962 -46.980   9.978  1.00  0.00    -0.171 N 
ATOM      9  HN  UNL     1     -45.380 -46.538  10.797  1.00  0.00     0.186 HD
BRANCH   6  10
HETATM   10  N   UNL     1     -46.900 -47.782   8.991  1.00  0.00    -0.233 N 
HETATM   11  H   UNL     1     -47.286 -48.599   9.446  1.00  0.00     0.174 HD
HETATM   12  H   UNL     1     -47.433 -47.437   8.203  1.00  0.00     0.174 HD
ENDBRANCH   6  10
ENDBRANCH   2   3
ENDBRANCH   1   2
BRANCH   1  13
HETATM   13  N   UNL     1     -42.021 -48.930  10.898  1.00  0.00    -0.343 N 
HETATM   14  C   UNL     1     -42.354 -49.360  12.155  1.00  0.00     0.316 C 
HETATM   15  O   UNL     1     -42.196 -48.686  13.164  1.00  0.00    -0.247 OA
HETATM   16  N   UNL     1     -42.863 -50.640  12.143  1.00  0.00    -0.339 N 
HETATM   17  H   UNL     1     -43.237 -50.979  11.270  1.00  0.00     0.164 HD
HETATM   18  H   UNL     1     -41.901 -49.639  10.187  1.00  0.00     0.164 HD
BRANCH  16  19
HETATM   19  C   UNL     1     -43.218 -51.343  13.375  1.00  0.00     0.086 C 
HETATM   20  C   UNL     1     -43.089 -52.862  13.192  1.00  0.00     0.025 C 
HETATM   21  C   UNL     1     -44.301 -53.517  12.533  1.00  0.00     0.002 C 
HETATM   22  C   UNL     1     -45.585 -53.166  13.273  1.00  0.00     0.000 C 
HETATM   23  C   UNL     1     -45.785 -51.656  13.308  1.00  0.00     0.002 C 
HETATM   24  C   UNL     1     -44.592 -50.931  13.934  1.00  0.00     0.025 C 
ENDBRANCH  16  19
ENDBRANCH   1  13
TORSDOF 5
ENDMDL
MODEL 2
REMARK VINA RESULT:      -6.0      1.397      1.777
REMARK  5 active torsions:
REMARK  status: ('A' for Active; 'I' for Inactive)
REMARK    1  A    between atoms: N_1  and  C_2 
REMARK    2  A    between atoms: C_6  and  C_7 
REMARK    3  A    between atoms: C_7  and  C_8 
REMARK    4  A    between atoms: C_8  and  N_9 
REMARK       I    between atoms: N_9  and  C_10 
REMARK       I    between atoms: C_10  and  N_12 
REMARK    5  A    between atoms: N_12  and  C_13 
ROOT
HETATM    1  C   UNL     1     -40.682 -49.389  11.290  1.00  0.00     0.132 C 
ENDROOT
BRANCH   1   2
HETATM    2  C   UNL     1     -41.020 -47.943  10.918  1.00  0.00     0.107 C 
BRANCH   2   3
HETATM    3  C   UNL     1     -42.346 -47.820  10.263  1.00  0.00     0.164 A 
HETATM    4  O   UNL     1     -43.417 -47.628  11.081  1.00  0.00    -0.209 OA
HETATM    5  N   UNL     1     -44.535 -47.560  10.250  1.00  0.00    -0.090 N 
HETATM    6  C   UNL     1     -44.022 -47.719   9.029  1.00  0.00     0.697 A 
ATOM      7  HN  UNL     1     -45.510 -47.421  10.513  1.00  0.00     0.213 HD
HETATM    8  N   UNL     1     -42.671 -47.894   8.988  1.00  0.00    -0.171 N 
ATOM      9  HN  UNL     1     -42.067 -48.043   8.179  1.00  0.00     0.186 HD
BRANCH   6  10
HETATM   10  N   UNL     1     -44.700 -47.722   7.880  1.00  0.00    -0.233 N 
HETATM   11  H   UNL     1     -45.464 -47.066   7.775  1.00  0.00     0.174 HD
HETATM   12  H   UNL     1     -44.823 -48.604   7.401  1.00  0.00     0.174 HD
ENDBRANCH   6  10
ENDBRANCH   2   3
ENDBRANCH   1   2
BRANCH   1  13
HETATM   13  N   UNL     1     -41.825 -50.246  11.588  1.00  0.00    -0.343 N 
HETATM   14  C   UNL     1     -42.219 -50.527  12.869  1.00  0.00     0.316 C 
HETATM   15  O   UNL     1     -41.640 -50.106  13.863  1.00  0.00    -0.247 OA
HETATM   16  N   UNL     1     -43.322 -51.350  12.900  1.00  0.00    -0.339 N 
HETATM   17  H   UNL     1     -43.896 -51.382  12.071  1.00  0.00     0.164 HD
HETATM   18  H   UNL     1     -42.159 -50.861  10.860  1.00  0.00     0.164 HD
BRANCH  16  19
HETATM   19  C   UNL     1     -43.881 -51.849  14.155  1.00  0.00     0.086 C 
HETATM   20  C   UNL     1     -44.164 -53.356  14.064  1.00  0.00     0.025 C 
HETATM   21  C   UNL     1     -45.494 -53.702  13.398  1.00  0.00     0.002 C 
HETATM   22  C   UNL     1     -46.650 -52.972  14.067  1.00  0.00     0.000 C 
HETATM   23  C   UNL     1     -46.435 -51.465  14.008  1.00  0.00     0.002 C 
HETATM   24  C   UNL     1     -45.104 -51.048  14.636  1.00  0.00     0.025 C 
ENDBRANCH  16  19
ENDBRANCH   1  13
TORSDOF 5
ENDMDL
MODEL 3
REMARK VINA RESULT:      -5.9      5.030      6.655
REMARK  5 active torsions:
REMARK  status: ('A' for Active; 'I' for Inactive)
REMARK    1  A    between atoms: N_1  and  C_2 
REMARK    2  A    between atoms: C_6  and  C_7 
REMARK    3  A    between atoms: C_7  and  C_8 
REMARK    4  A    between atoms: C_8  and  N_9 
REMARK       I    between atoms: N_9  and  C_10 
REMARK       I    between atoms: C_10  and  N_12 
REMARK    5  A    between atoms: N_12  and  C_13 
ROOT
HETATM    1  C   UNL     1     -40.834 -54.971  16.144  1.00  0.00     0.132 C 
ENDROOT
BRANCH   1   2
HETATM    2  C   UNL     1     -39.758 -54.850  15.061  1.00  0.00     0.107 C 
BRANCH   2   3
HETATM    3  C   UNL     1     -40.131 -53.887  13.995  1.00  0.00     0.164 A 
HETATM    4  O   UNL     1     -39.985 -52.565  14.287  1.00  0.00    -0.209 OA
HETATM    5  N   UNL     1     -40.406 -51.868  13.155  1.00  0.00    -0.090 N 
HETATM    6  C   UNL     1     -40.760 -52.837  12.310  1.00  0.00     0.697 A 
ATOM      7  HN  UNL     1     -40.436 -50.859  13.009  1.00  0.00     0.213 HD
HETATM    8  N   UNL     1     -40.616 -54.104  12.790  1.00  0.00    -0.171 N 
ATOM      9  HN  UNL     1     -40.830 -54.991  12.334  1.00  0.00     0.186 HD
BRANCH   6  10
HETATM   10  N   UNL     1     -41.230 -52.674  11.071  1.00  0.00    -0.233 N 
HETATM   11  H   UNL     1     -40.570 -52.455  10.336  1.00  0.00     0.174 HD
HETATM   12  H   UNL     1     -42.148 -52.266  10.960  1.00  0.00     0.174 HD
ENDBRANCH   6  10
ENDBRANCH   2   3
ENDBRANCH   1   2
BRANCH   1  13
HETATM   13  N   UNL     1     -41.991 -54.097  15.981  1.00  0.00    -0.343 N 
HETATM   14  C   UNL     1     -43.203 -54.556  15.537  1.00  0.00     0.316 C 
HETATM   15  O   UNL     1     -43.411 -55.720  15.222  1.00  0.00    -0.247 OA
HETATM   16  N   UNL     1     -44.141 -53.550  15.470  1.00  0.00    -0.339 N 
HETATM   17  H   UNL     1     -43.975 -52.727  16.029  1.00  0.00     0.164 HD
HETATM   18  H   UNL     1     -41.829 -53.101  15.925  1.00  0.00     0.164 HD
BRANCH  16  19
HETATM   19  C   UNL     1     -45.488 -53.781  14.952  1.00  0.00     0.086 C 
HETATM   20  C   UNL     1     -45.470 -53.907  13.421  1.00  0.00     0.025 C 
HETATM   21  C   UNL     1     -45.477 -52.569  12.685  1.00  0.00     0.002 C 
HETATM   22  C   UNL     1     -46.635 -51.695  13.145  1.00  0.00     0.000 C 
HETATM   23  C   UNL     1     -46.552 -51.443  14.645  1.00  0.00     0.002 C 
HETATM   24  C   UNL     1     -46.515 -52.746  15.447  1.00  0.00     0.025 C 
ENDBRANCH  16  19
ENDBRANCH   1  13
TORSDOF 5
ENDMDL
MODEL 4
REMARK VINA RESULT:      -5.7      4.353      6.140
REMARK  5 active torsions:
REMARK  status: ('A' for Active; 'I' for Inactive)
REMARK    1  A    between atoms: N_1  and  C_2 
REMARK    2  A    between atoms: C_6  and  C_7 
REMARK    3  A    between atoms: C_7  and  C_8 
REMARK    4  A    between atoms: C_8  and  N_9 
REMARK       I    between atoms: N_9  and  C_10 
REMARK       I    between atoms: C_10  and  N_12 
REMARK    5  A    between atoms: N_12  and  C_13 
ROOT
HETATM    1  C   UNL     1     -41.268 -54.354  14.425  1.00  0.00     0.132 C 
ENDROOT
BRANCH   1   2
HETATM    2  C   UNL     1     -41.198 -54.223  12.901  1.00  0.00     0.107 C 
BRANCH   2   3
HETATM    3  C   UNL     1     -40.865 -52.843  12.465  1.00  0.00     0.164 A 
HETATM    4  O   UNL     1     -40.307 -52.025  13.399  1.00  0.00    -0.209 OA
HETATM    5  N   UNL     1     -40.101 -50.798  12.768  1.00  0.00    -0.090 N 
HETATM    6  C   UNL     1     -40.555 -51.007  11.532  1.00  0.00     0.697 A 
ATOM      7  HN  UNL     1     -39.699 -49.946  13.159  1.00  0.00     0.213 HD
HETATM    8  N   UNL     1     -41.047 -52.256  11.299  1.00  0.00    -0.171 N 
ATOM      9  HN  UNL     1     -41.452 -52.639  10.445  1.00  0.00     0.186 HD
BRANCH   6  10
HETATM   10  N   UNL     1     -40.568 -50.122  10.533  1.00  0.00    -0.233 N 
HETATM   11  H   UNL     1     -41.094 -49.267  10.661  1.00  0.00     0.174 HD
HETATM   12  H   UNL     1     -40.541 -50.472   9.585  1.00  0.00     0.174 HD
ENDBRANCH   6  10
ENDBRANCH   2   3
ENDBRANCH   1   2
BRANCH   1  13
HETATM   13  N   UNL     1     -42.335 -53.597  15.073  1.00  0.00    -0.343 N 
HETATM   14  C   UNL     1     -43.583 -54.120  15.285  1.00  0.00     0.316 C 
HETATM   15  O   UNL     1     -43.914 -55.245  14.934  1.00  0.00    -0.247 OA
HETATM   16  N   UNL     1     -44.416 -53.223  15.916  1.00  0.00    -0.339 N 
HETATM   17  H   UNL     1     -43.980 -52.472  16.429  1.00  0.00     0.164 HD
HETATM   18  H   UNL     1     -42.245 -52.592  15.114  1.00  0.00     0.164 HD
BRANCH  16  19
HETATM   19  C   UNL     1     -45.821 -53.526  16.181  1.00  0.00     0.086 C 
HETATM   20  C   UNL     1     -46.719 -52.973  15.064  1.00  0.00     0.025 C 
HETATM   21  C   UNL     1     -47.065 -51.493  15.217  1.00  0.00     0.002 C 
HETATM   22  C   UNL     1     -47.666 -51.209  16.587  1.00  0.00     0.000 C 
HETATM   23  C   UNL     1     -46.696 -51.615  17.689  1.00  0.00     0.002 C 
HETATM   24  C   UNL     1     -46.284 -53.084  17.581  1.00  0.00     0.025 C 
ENDBRANCH  16  19
ENDBRANCH   1  13
TORSDOF 5
ENDMDL
MODEL 5
REMARK VINA RESULT:      -5.7      1.845      2.623
REMARK  5 active torsions:
REMARK  status: ('A' for Active; 'I' for Inactive)
REMARK    1  A    between atoms: N_1  and  C_2 
REMARK    2  A    between atoms: C_6  and  C_7 
REMARK    3  A    between atoms: C_7  and  C_8 
REMARK    4  A    between atoms: C_8  and  N_9 
REMARK       I    between atoms: N_9  and  C_10 
REMARK       I    between atoms: C_10  and  N_12 
REMARK    5  A    between atoms: N_12  and  C_13 
ROOT
HETATM    1  C   UNL     1     -40.555 -49.805  11.214  1.00  0.00     0.132 C 
ENDROOT
BRANCH   1   2
HETATM    2  C   UNL     1     -40.783 -48.308  10.990  1.00  0.00     0.107 C 
BRANCH   2   3
HETATM    3  C   UNL     1     -42.119 -48.017  10.413  1.00  0.00     0.164 A 
HETATM    4  O   UNL     1     -43.185 -48.133  11.251  1.00  0.00    -0.209 OA
HETATM    5  N   UNL     1     -44.314 -47.829  10.490  1.00  0.00    -0.090 N 
HETATM    6  C   UNL     1     -43.811 -47.567   9.283  1.00  0.00     0.697 A 
ATOM      7  HN  UNL     1     -45.290 -47.812  10.786  1.00  0.00     0.213 HD
HETATM    8  N   UNL     1     -42.456 -47.680   9.184  1.00  0.00    -0.171 N 
ATOM      9  HN  UNL     1     -41.858 -47.541   8.370  1.00  0.00     0.186 HD
BRANCH   6  10
HETATM   10  N   UNL     1     -44.502 -47.215   8.196  1.00  0.00    -0.233 N 
HETATM   11  H   UNL     1     -44.948 -47.947   7.658  1.00  0.00     0.174 HD
HETATM   12  H   UNL     1     -44.173 -46.425   7.659  1.00  0.00     0.174 HD
ENDBRANCH   6  10
ENDBRANCH   2   3
ENDBRANCH   1   2
BRANCH   1  13
HETATM   13  N   UNL     1     -41.714 -50.553  11.692  1.00  0.00    -0.343 N 
HETATM   14  C   UNL     1     -41.631 -51.858  12.097  1.00  0.00     0.316 C 
HETATM   15  O   UNL     1     -40.595 -52.509  12.074  1.00  0.00    -0.247 OA
HETATM   16  N   UNL     1     -42.850 -52.348  12.509  1.00  0.00    -0.339 N 
HETATM   17  H   UNL     1     -43.549 -51.674  12.783  1.00  0.00     0.164 HD
HETATM   18  H   UNL     1     -42.633 -50.201  11.461  1.00  0.00     0.164 HD
BRANCH  16  19
HETATM   19  C   UNL     1     -43.028 -53.741  12.915  1.00  0.00     0.086 C 
HETATM   20  C   UNL     1     -44.453 -54.222  12.603  1.00  0.00     0.025 C 
HETATM   21  C   UNL     1     -45.487 -53.839  13.660  1.00  0.00     0.002 C 
HETATM   22  C   UNL     1     -45.051 -54.296  15.045  1.00  0.00     0.000 C 
HETATM   23  C   UNL     1     -43.706 -53.681  15.411  1.00  0.00     0.002 C 
HETATM   24  C   UNL     1     -42.625 -54.003  14.378  1.00  0.00     0.025 C 
ENDBRANCH  16  19
ENDBRANCH   1  13
TORSDOF 5
ENDMDL
MODEL 6
REMARK VINA RESULT:      -5.6      3.974      5.392
REMARK  5 active torsions:
REMARK  status: ('A' for Active; 'I' for Inactive)
REMARK    1  A    between atoms: N_1  and  C_2 
REMARK    2  A    between atoms: C_6  and  C_7 
REMARK    3  A    between atoms: C_7  and  C_8 
REMARK    4  A    between atoms: C_8  and  N_9 
REMARK       I    between atoms: N_9  and  C_10 
REMARK       I    between atoms: C_10  and  N_12 
REMARK    5  A    between atoms: N_12  and  C_13 
ROOT
HETATM    1  C   UNL     1     -39.498 -53.366  14.064  1.00  0.00     0.132 C 
ENDROOT
BRANCH   1   2
HETATM    2  C   UNL     1     -39.072 -51.899  14.179  1.00  0.00     0.107 C 
BRANCH   2   3
HETATM    3  C   UNL     1     -39.293 -51.144  12.920  1.00  0.00     0.164 A 
HETATM    4  O   UNL     1     -38.206 -50.953  12.123  1.00  0.00    -0.209 OA
HETATM    5  N   UNL     1     -38.652 -50.218  11.025  1.00  0.00    -0.090 N 
HETATM    6  C   UNL     1     -39.950 -50.044  11.278  1.00  0.00     0.697 A 
ATOM      7  HN  UNL     1     -38.114 -49.892  10.223  1.00  0.00     0.213 HD
HETATM    8  N   UNL     1     -40.391 -50.592  12.445  1.00  0.00    -0.171 N 
ATOM      9  HN  UNL     1     -41.328 -50.578  12.847  1.00  0.00     0.186 HD
BRANCH   6  10
HETATM   10  N   UNL     1     -40.827 -49.398  10.506  1.00  0.00    -0.233 N 
HETATM   11  H   UNL     1     -40.496 -48.605   9.970  1.00  0.00     0.174 HD
HETATM   12  H   UNL     1     -41.784 -49.333  10.825  1.00  0.00     0.174 HD
ENDBRANCH   6  10
ENDBRANCH   2   3
ENDBRANCH   1   2
BRANCH   1  13
HETATM   13  N   UNL     1     -40.892 -53.644  14.395  1.00  0.00    -0.343 N 
HETATM   14  C   UNL     1     -41.875 -53.705  13.445  1.00  0.00     0.316 C 
HETATM   15  O   UNL     1     -41.676 -53.513  12.252  1.00  0.00    -0.247 OA
HETATM   16  N   UNL     1     -43.106 -53.986  13.994  1.00  0.00    -0.339 N 
HETATM   17  H   UNL     1     -43.115 -54.426  14.902  1.00  0.00     0.164 HD
HETATM   18  H   UNL     1     -41.186 -53.514  15.353  1.00  0.00     0.164 HD
BRANCH  16  19
HETATM   19  C   UNL     1     -44.324 -54.027  13.187  1.00  0.00     0.086 C 
HETATM   20  C   UNL     1     -44.891 -52.614  12.982  1.00  0.00     0.025 C 
HETATM   21  C   UNL     1     -45.744 -52.110  14.144  1.00  0.00     0.002 C 
HETATM   22  C   UNL     1     -46.854 -53.097  14.479  1.00  0.00     0.000 C 
HETATM   23  C   UNL     1     -46.268 -54.457  14.838  1.00  0.00     0.002 C 
HETATM   24  C   UNL     1     -45.377 -55.013  13.726  1.00  0.00     0.025 C 
ENDBRANCH  16  19
ENDBRANCH   1  13
TORSDOF 5
ENDMDL
MODEL 7
REMARK VINA RESULT:      -5.5      1.609      2.112
REMARK  5 active torsions:
REMARK  status: ('A' for Active; 'I' for Inactive)
REMARK    1  A    between atoms: N_1  and  C_2 
REMARK    2  A    between atoms: C_6  and  C_7 
REMARK    3  A    between atoms: C_7  and  C_8 
REMARK    4  A    between atoms: C_8  and  N_9 
REMARK       I    between atoms: N_9  and  C_10 
REMARK       I    between atoms: C_10  and  N_12 
REMARK    5  A    between atoms: N_12  and  C_13 
ROOT
HETATM    1  C   UNL     1     -41.914 -48.006  12.564  1.00  0.00     0.132 C 
ENDROOT
BRANCH   1   2
HETATM    2  C   UNL     1     -42.741 -46.893  11.915  1.00  0.00     0.107 C 
BRANCH   2   3
HETATM    3  C   UNL     1     -43.269 -47.281  10.584  1.00  0.00     0.164 A 
HETATM    4  O   UNL     1     -42.369 -47.767   9.686  1.00  0.00    -0.209 OA
HETATM    5  N   UNL     1     -43.087 -48.044   8.524  1.00  0.00    -0.090 N 
HETATM    6  C   UNL     1     -44.335 -47.696   8.842  1.00  0.00     0.697 A 
ATOM      7  HN  UNL     1     -42.742 -48.422   7.642  1.00  0.00     0.213 HD
HETATM    8  N   UNL     1     -44.495 -47.209  10.105  1.00  0.00    -0.171 N 
ATOM      9  HN  UNL     1     -45.344 -46.874  10.561  1.00  0.00     0.186 HD
BRANCH   6  10
HETATM   10  N   UNL     1     -45.407 -47.781   8.052  1.00  0.00    -0.233 N 
HETATM   11  H   UNL     1     -45.935 -48.644   8.056  1.00  0.00     0.174 HD
HETATM   12  H   UNL     1     -45.385 -47.294   7.165  1.00  0.00     0.174 HD
ENDBRANCH   6  10
ENDBRANCH   2   3
ENDBRANCH   1   2
BRANCH   1  13
HETATM   13  N   UNL     1     -42.649 -49.220  12.904  1.00  0.00    -0.343 N 
HETATM   14  C   UNL     1     -42.272 -50.458  12.455  1.00  0.00     0.316 C 
HETATM   15  O   UNL     1     -41.310 -50.648  11.721  1.00  0.00    -0.247 OA
HETATM   16  N   UNL     1     -43.114 -51.448  12.909  1.00  0.00    -0.339 N 
HETATM   17  H   UNL     1     -43.663 -51.245  13.730  1.00  0.00     0.164 HD
HETATM   18  H   UNL     1     -43.598 -49.122  13.237  1.00  0.00     0.164 HD
BRANCH  16  19
HETATM   19  C   UNL     1     -42.959 -52.843  12.501  1.00  0.00     0.086 C 
HETATM   20  C   UNL     1     -44.327 -53.528  12.370  1.00  0.00     0.025 C 
HETATM   21  C   UNL     1     -44.900 -54.036  13.692  1.00  0.00     0.002 C 
HETATM   22  C   UNL     1     -43.907 -54.939  14.410  1.00  0.00     0.000 C 
HETATM   23  C   UNL     1     -42.606 -54.194  14.678  1.00  0.00     0.002 C 
HETATM   24  C   UNL     1     -41.987 -53.633  13.396  1.00  0.00     0.025 C 
ENDBRANCH  16  19
ENDBRANCH   1  13
TORSDOF 5
ENDMDL
MODEL 8
REMARK VINA RESULT:      -5.5      2.445      3.134
REMARK  5 active torsions:
REMARK  status: ('A' for Active; 'I' for Inactive)
REMARK    1  A    between atoms: N_1  and  C_2 
REMARK    2  A    between atoms: C_6  and  C_7 
REMARK    3  A    between atoms: C_7  and  C_8 
REMARK    4  A    between atoms: C_8  and  N_9 
REMARK       I    between atoms: N_9  and  C_10 
REMARK       I    between atoms: C_10  and  N_12 
REMARK    5  A    between atoms: N_12  and  C_13 
ROOT
HETATM    1  C   UNL     1     -40.251 -49.996  11.352  1.00  0.00     0.132 C 
ENDROOT
BRANCH   1   2
HETATM    2  C   UNL     1     -39.769 -48.576  11.660  1.00  0.00     0.107 C 
BRANCH   2   3
HETATM    3  C   UNL     1     -40.846 -47.566  11.513  1.00  0.00     0.164 A 
HETATM    4  O   UNL     1     -41.529 -47.567  10.335  1.00  0.00    -0.209 OA
HETATM    5  N   UNL     1     -42.465 -46.537  10.426  1.00  0.00    -0.090 N 
HETATM    6  C   UNL     1     -42.246 -46.028  11.640  1.00  0.00     0.697 A 
ATOM      7  HN  UNL     1     -43.152 -46.244   9.732  1.00  0.00     0.213 HD
HETATM    8  N   UNL     1     -41.246 -46.627  12.346  1.00  0.00    -0.171 N 
ATOM      9  HN  UNL     1     -40.898 -46.406  13.279  1.00  0.00     0.186 HD
BRANCH   6  10
HETATM   10  N   UNL     1     -42.904 -45.013  12.203  1.00  0.00    -0.233 N 
HETATM   11  H   UNL     1     -42.978 -44.147  11.684  1.00  0.00     0.174 HD
HETATM   12  H   UNL     1     -42.850 -44.909  13.207  1.00  0.00     0.174 HD
ENDBRANCH   6  10
ENDBRANCH   2   3
ENDBRANCH   1   2
BRANCH   1  13
HETATM   13  N   UNL     1     -41.668 -50.247  11.600  1.00  0.00    -0.343 N 
HETATM   14  C   UNL     1     -42.104 -51.240  12.436  1.00  0.00     0.316 C 
HETATM   15  O   UNL     1     -41.353 -52.007  13.024  1.00  0.00    -0.247 OA
HETATM   16  N   UNL     1     -43.478 -51.280  12.514  1.00  0.00    -0.339 N 
HETATM   17  H   UNL     1     -43.978 -50.442  12.259  1.00  0.00     0.164 HD
HETATM   18  H   UNL     1     -42.337 -49.875  10.940  1.00  0.00     0.164 HD
BRANCH  16  19
HETATM   19  C   UNL     1     -44.180 -52.304  13.286  1.00  0.00     0.086 C 
HETATM   20  C   UNL     1     -45.560 -52.595  12.678  1.00  0.00     0.025 C 
HETATM   21  C   UNL     1     -46.648 -51.610  13.099  1.00  0.00     0.002 C 
HETATM   22  C   UNL     1     -46.735 -51.502  14.615  1.00  0.00     0.000 C 
HETATM   23  C   UNL     1     -45.399 -51.055  15.196  1.00  0.00     0.002 C 
HETATM   24  C   UNL     1     -44.254 -51.985  14.791  1.00  0.00     0.025 C 
ENDBRANCH  16  19
ENDBRANCH   1  13
TORSDOF 5
ENDMDL
MODEL 9
REMARK VINA RESULT:      -5.4      2.816      4.126
REMARK  5 active torsions:
REMARK  status: ('A' for Active; 'I' for Inactive)
REMARK    1  A    between atoms: N_1  and  C_2 
REMARK    2  A    between atoms: C_6  and  C_7 
REMARK    3  A    between atoms: C_7  and  C_8 
REMARK    4  A    between atoms: C_8  and  N_9 
REMARK       I    between atoms: N_9  and  C_10 
REMARK       I    between atoms: C_10  and  N_12 
REMARK    5  A    between atoms: N_12  and  C_13 
ROOT
HETATM    1  C   UNL     1     -39.364 -51.398  13.504  1.00  0.00     0.132 C 
ENDROOT
BRANCH   1   2
HETATM    2  C   UNL     1     -38.829 -50.715  12.242  1.00  0.00     0.107 C 
BRANCH   2   3
HETATM    3  C   UNL     1     -39.784 -49.725  11.684  1.00  0.00     0.164 A 
HETATM    4  O   UNL     1     -40.038 -48.625  12.444  1.00  0.00    -0.209 OA
HETATM    5  N   UNL     1     -40.961 -47.862  11.729  1.00  0.00    -0.090 N 
HETATM    6  C   UNL     1     -41.163 -48.580  10.623  1.00  0.00     0.697 A 
ATOM      7  HN  UNL     1     -41.380 -46.969  11.988  1.00  0.00     0.213 HD
HETATM    8  N   UNL     1     -40.463 -49.747  10.555  1.00  0.00    -0.171 N 
ATOM      9  HN  UNL     1     -40.464 -50.454   9.820  1.00  0.00     0.186 HD
BRANCH   6  10
HETATM   10  N   UNL     1     -41.970 -48.261   9.608  1.00  0.00    -0.233 N 
HETATM   11  H   UNL     1     -42.655 -48.944   9.312  1.00  0.00     0.174 HD
HETATM   12  H   UNL     1     -41.600 -47.674   8.872  1.00  0.00     0.174 HD
ENDBRANCH   6  10
ENDBRANCH   2   3
ENDBRANCH   1   2
BRANCH   1  13
HETATM   13  N   UNL     1     -40.778 -51.172  13.790  1.00  0.00    -0.343 N 
HETATM   14  C   UNL     1     -41.672 -52.199  13.938  1.00  0.00     0.316 C 
HETATM   15  O   UNL     1     -41.370 -53.380  13.823  1.00  0.00    -0.247 OA
HETATM   16  N   UNL     1     -42.942 -51.741  14.207  1.00  0.00    -0.339 N 
HETATM   17  H   UNL     1     -43.025 -50.809  14.584  1.00  0.00     0.164 HD
HETATM   18  H   UNL     1     -41.159 -50.255  13.601  1.00  0.00     0.164 HD
BRANCH  16  19
HETATM   19  C   UNL     1     -44.082 -52.648  14.331  1.00  0.00     0.086 C 
HETATM   20  C   UNL     1     -44.944 -52.616  13.060  1.00  0.00     0.025 C 
HETATM   21  C   UNL     1     -45.940 -51.459  13.011  1.00  0.00     0.002 C 
HETATM   22  C   UNL     1     -46.811 -51.431  14.259  1.00  0.00     0.000 C 
HETATM   23  C   UNL     1     -45.949 -51.299  15.508  1.00  0.00     0.002 C 
HETATM   24  C   UNL     1     -44.907 -52.415  15.610  1.00  0.00     0.025 C 
ENDBRANCH  16  19
ENDBRANCH   1  13
TORSDOF 5
ENDMDL
