MODEL 1
REMARK VINA RESULT:      -5.7      0.000      0.000
REMARK  5 active torsions:
REMARK  status: ('A' for Active; 'I' for Inactive)
REMARK       I    between atoms: N_1  and  C_2 
REMARK    1  A    between atoms: C_2  and  C_4 
REMARK    2  A    between atoms: C_4  and  N_10 
REMARK    3  A    between atoms: N_10  and  C_11 
REMARK    4  A    between atoms: C_11  and  C_12 
REMARK    5  A    between atoms: C_12  and  N_13 
ROOT
HETATM    1  C   UNL     1     -43.271 -53.011  13.073  1.00  0.00     0.236 C 
HETATM    2  C   UNL     1     -42.460 -54.209  13.636  1.00  0.00     0.052 C 
HETATM    3  C   UNL     1     -42.954 -54.706  14.992  1.00  0.00     0.003 C 
HETATM    4  C   UNL     1     -43.042 -53.569  16.003  1.00  0.00     0.000 C 
HETATM    5  C   UNL     1     -43.931 -52.443  15.493  1.00  0.00     0.003 C 
HETATM    6  C   UNL     1     -43.434 -51.903  14.145  1.00  0.00     0.052 C 
ENDROOT
BRANCH   1   7
HETATM    7  C   UNL     1     -44.711 -53.488  12.647  1.00  0.00     0.254 C 
HETATM    8  N   UNL     1     -45.555 -52.511  12.197  1.00  0.00    -0.368 N 
HETATM    9  H   UNL     1     -46.518 -52.798  12.065  1.00  0.00     0.159 HD
HETATM   10  H   UNL     1     -45.384 -51.563  12.511  1.00  0.00     0.159 HD
HETATM   11  O   UNL     1     -45.127 -54.641  12.739  1.00  0.00    -0.271 OA
ENDBRANCH   1   7
BRANCH   1  12
HETATM   12  N   UNL     1     -42.645 -52.485  11.808  1.00  0.00     0.104 N 
HETATM   13  H   UNL     1     -43.104 -51.593  11.596  1.00  0.00     0.317 HD
BRANCH  12  14
HETATM   14  C   UNL     1     -41.190 -52.253  11.889  1.00  0.00     0.292 C 
BRANCH  14  15
HETATM   15  C   UNL     1     -40.805 -50.770  11.886  1.00  0.00     0.178 C 
BRANCH  15  16
HETATM   16  N   UNL     1     -39.356 -50.628  11.926  1.00  0.00    -0.302 N 
HETATM   17  C   UNL     1     -38.523 -50.997  12.946  1.00  0.00     0.111 A 
HETATM   18  C   UNL     1     -37.262 -50.596  12.570  1.00  0.00     0.037 A 
HETATM   19  C   UNL     1     -37.440 -49.996  11.310  1.00  0.00     0.108 A 
HETATM   20  N   UNL     1     -38.716 -50.008  10.916  1.00  0.00    -0.310 N 
ATOM     21  HN  UNL     1     -39.112 -49.636  10.053  1.00  0.00     0.186 HD
ENDBRANCH  15  16
ENDBRANCH  14  15
ENDBRANCH  12  14
ENDBRANCH   1  12
TORSDOF 5
ENDMDL
MODEL 2
REMARK VINA RESULT:      -5.6      2.500      3.319
REMARK  5 active torsions:
REMARK  status: ('A' for Active; 'I' for Inactive)
REMARK       I    between atoms: N_1  and  C_2 
REMARK    1  A    between atoms: C_2  and  C_4 
REMARK    2  A    between atoms: C_4  and  N_10 
REMARK    3  A    between atoms: N_10  and  C_11 
REMARK    4  A    between atoms: C_11  and  C_12 
REMARK    5  A    between atoms: C_12  and  N_13 
ROOT
HETATM    1  C   UNL     1     -44.407 -52.803  13.125  1.00  0.00     0.236 C 
HETATM    2  C   UNL     1     -43.934 -51.902  14.298  1.00  0.00     0.052 C 
HETATM    3  C   UNL     1     -44.975 -51.729  15.402  1.00  0.00     0.003 C 
HETATM    4  C   UNL     1     -46.309 -51.254  14.839  1.00  0.00     0.000 C 
HETATM    5  C   UNL     1     -46.824 -52.202  13.764  1.00  0.00     0.003 C 
HETATM    6  C   UNL     1     -45.809 -52.366  12.627  1.00  0.00     0.052 C 
ENDROOT
BRANCH   1   7
HETATM    7  C   UNL     1     -44.507 -54.301  13.602  1.00  0.00     0.254 C 
HETATM    8  N   UNL     1     -43.481 -54.747  14.388  1.00  0.00    -0.368 N 
HETATM    9  H   UNL     1     -43.476 -55.744  14.568  1.00  0.00     0.159 HD
HETATM   10  H   UNL     1     -42.587 -54.278  14.302  1.00  0.00     0.159 HD
HETATM   11  O   UNL     1     -45.396 -55.084  13.278  1.00  0.00    -0.271 OA
ENDBRANCH   1   7
BRANCH   1  12
HETATM   12  N   UNL     1     -43.391 -52.814  12.013  1.00  0.00     0.104 N 
HETATM   13  H   UNL     1     -43.843 -52.400  11.192  1.00  0.00     0.317 HD
BRANCH  12  14
HETATM   14  C   UNL     1     -42.155 -52.059  12.297  1.00  0.00     0.292 C 
BRANCH  14  15
HETATM   15  C   UNL     1     -40.875 -52.868  12.062  1.00  0.00     0.178 C 
BRANCH  15  16
HETATM   16  N   UNL     1     -40.348 -53.353  13.329  1.00  0.00    -0.302 N 
HETATM   17  C   UNL     1     -40.327 -52.683  14.521  1.00  0.00     0.111 A 
HETATM   18  C   UNL     1     -39.665 -53.502  15.405  1.00  0.00     0.037 A 
HETATM   19  C   UNL     1     -39.327 -54.642  14.653  1.00  0.00     0.108 A 
HETATM   20  N   UNL     1     -39.737 -54.553  13.385  1.00  0.00    -0.310 N 
ATOM     21  HN  UNL     1     -39.616 -55.234  12.635  1.00  0.00     0.186 HD
ENDBRANCH  15  16
ENDBRANCH  14  15
ENDBRANCH  12  14
ENDBRANCH   1  12
TORSDOF 5
ENDMDL
MODEL 3
REMARK VINA RESULT:      -5.6      2.267      3.041
REMARK  5 active torsions:
REMARK  status: ('A' for Active; 'I' for Inactive)
REMARK       I    between atoms: N_1  and  C_2 
REMARK    1  A    between atoms: C_2  and  C_4 
REMARK    2  A    between atoms: C_4  and  N_10 
REMARK    3  A    between atoms: N_10  and  C_11 
REMARK    4  A    between atoms: C_11  and  C_12 
REMARK    5  A    between atoms: C_12  and  N_13 
ROOT
HETATM    1  C   UNL     1     -45.109 -51.776  13.714  1.00  0.00     0.236 C 
HETATM    2  C   UNL     1     -44.211 -52.439  14.794  1.00  0.00     0.052 C 
HETATM    3  C   UNL     1     -44.936 -53.476  15.648  1.00  0.00     0.003 C 
HETATM    4  C   UNL     1     -46.209 -52.902  16.259  1.00  0.00     0.000 C 
HETATM    5  C   UNL     1     -47.138 -52.352  15.185  1.00  0.00     0.003 C 
HETATM    6  C   UNL     1     -46.442 -51.283  14.334  1.00  0.00     0.052 C 
ENDROOT
BRANCH   1   7
HETATM    7  C   UNL     1     -45.455 -52.820  12.587  1.00  0.00     0.254 C 
HETATM    8  N   UNL     1     -46.478 -52.475  11.747  1.00  0.00    -0.368 N 
HETATM    9  H   UNL     1     -46.791 -53.208  11.122  1.00  0.00     0.159 HD
HETATM   10  H   UNL     1     -47.171 -51.825  12.097  1.00  0.00     0.159 HD
HETATM   11  O   UNL     1     -44.915 -53.915  12.451  1.00  0.00    -0.271 OA
ENDBRANCH   1   7
BRANCH   1  12
HETATM   12  N   UNL     1     -44.371 -50.670  13.007  1.00  0.00     0.104 N 
HETATM   13  H   UNL     1     -44.898 -49.806  13.175  1.00  0.00     0.317 HD
BRANCH  12  14
HETATM   14  C   UNL     1     -42.982 -50.465  13.460  1.00  0.00     0.292 C 
BRANCH  14  15
HETATM   15  C   UNL     1     -41.932 -50.907  12.436  1.00  0.00     0.178 C 
BRANCH  15  16
HETATM   16  N   UNL     1     -41.344 -52.178  12.836  1.00  0.00    -0.302 N 
HETATM   17  C   UNL     1     -40.269 -52.363  13.660  1.00  0.00     0.111 A 
HETATM   18  C   UNL     1     -40.034 -53.717  13.680  1.00  0.00     0.037 A 
HETATM   19  C   UNL     1     -41.020 -54.263  12.838  1.00  0.00     0.108 A 
HETATM   20  N   UNL     1     -41.818 -53.328  12.317  1.00  0.00    -0.310 N 
ATOM     21  HN  UNL     1     -42.602 -53.454  11.676  1.00  0.00     0.186 HD
ENDBRANCH  15  16
ENDBRANCH  14  15
ENDBRANCH  12  14
ENDBRANCH   1  12
TORSDOF 5
ENDMDL
MODEL 4
REMARK VINA RESULT:      -5.5      2.583      3.568
REMARK  5 active torsions:
REMARK  status: ('A' for Active; 'I' for Inactive)
REMARK       I    between atoms: N_1  and  C_2 
REMARK    1  A    between atoms: C_2  and  C_4 
REMARK    2  A    between atoms: C_4  and  N_10 
REMARK    3  A    between atoms: N_10  and  C_11 
REMARK    4  A    between atoms: C_11  and  C_12 
REMARK    5  A    between atoms: C_12  and  N_13 
ROOT
HETATM    1  C   UNL     1     -44.213 -52.070  13.402  1.00  0.00     0.236 C 
HETATM    2  C   UNL     1     -43.813 -51.695  14.855  1.00  0.00     0.052 C 
HETATM    3  C   UNL     1     -44.914 -51.950  15.882  1.00  0.00     0.003 C 
HETATM    4  C   UNL     1     -46.221 -51.281  15.475  1.00  0.00     0.000 C 
HETATM    5  C   UNL     1     -46.668 -51.736  14.092  1.00  0.00     0.003 C 
HETATM    6  C   UNL     1     -45.591 -51.460  13.035  1.00  0.00     0.052 C 
ENDROOT
BRANCH   1   7
HETATM    7  C   UNL     1     -44.321 -53.634  13.259  1.00  0.00     0.254 C 
HETATM    8  N   UNL     1     -43.441 -54.365  14.008  1.00  0.00    -0.368 N 
HETATM    9  H   UNL     1     -43.417 -55.357  13.803  1.00  0.00     0.159 HD
HETATM   10  H   UNL     1     -42.574 -53.918  14.279  1.00  0.00     0.159 HD
HETATM   11  O   UNL     1     -45.090 -54.220  12.500  1.00  0.00    -0.271 OA
ENDBRANCH   1   7
BRANCH   1  12
HETATM   12  N   UNL     1     -43.139 -51.663  12.427  1.00  0.00     0.104 N 
HETATM   13  H   UNL     1     -43.614 -51.319  11.586  1.00  0.00     0.317 HD
BRANCH  12  14
HETATM   14  C   UNL     1     -42.230 -50.608  12.914  1.00  0.00     0.292 C 
BRANCH  14  15
HETATM   15  C   UNL     1     -41.359 -49.992  11.814  1.00  0.00     0.178 C 
BRANCH  15  16
HETATM   16  N   UNL     1     -42.054 -48.877  11.188  1.00  0.00    -0.302 N 
HETATM   17  C   UNL     1     -43.141 -48.207  11.679  1.00  0.00     0.111 A 
HETATM   18  C   UNL     1     -43.492 -47.294  10.712  1.00  0.00     0.037 A 
HETATM   19  C   UNL     1     -42.559 -47.491   9.678  1.00  0.00     0.108 A 
HETATM   20  N   UNL     1     -41.683 -48.459   9.962  1.00  0.00    -0.310 N 
ATOM     21  HN  UNL     1     -40.914 -48.801   9.386  1.00  0.00     0.186 HD
ENDBRANCH  15  16
ENDBRANCH  14  15
ENDBRANCH  12  14
ENDBRANCH   1  12
TORSDOF 5
ENDMDL
MODEL 5
REMARK VINA RESULT:      -5.5      1.416      2.009
REMARK  5 active torsions:
REMARK  status: ('A' for Active; 'I' for Inactive)
REMARK       I    between atoms: N_1  and  C_2 
REMARK    1  A    between atoms: C_2  and  C_4 
REMARK    2  A    between atoms: C_4  and  N_10 
REMARK    3  A    between atoms: N_10  and  C_11 
REMARK    4  A    between atoms: C_11  and  C_12 
REMARK    5  A    between atoms: C_12  and  N_13 
ROOT
HETATM    1  C   UNL     1     -44.116 -52.615  13.193  1.00  0.00     0.236 C 
HETATM    2  C   UNL     1     -43.618 -51.931  14.495  1.00  0.00     0.052 C 
HETATM    3  C   UNL     1     -44.689 -51.809  15.576  1.00  0.00     0.003 C 
HETATM    4  C   UNL     1     -45.947 -51.135  15.040  1.00  0.00     0.000 C 
HETATM    5  C   UNL     1     -46.496 -51.874  13.828  1.00  0.00     0.003 C 
HETATM    6  C   UNL     1     -45.447 -51.981  12.713  1.00  0.00     0.052 C 
ENDROOT
BRANCH   1   7
HETATM    7  C   UNL     1     -44.375 -54.146  13.453  1.00  0.00     0.254 C 
HETATM    8  N   UNL     1     -43.506 -54.761  14.312  1.00  0.00    -0.368 N 
HETATM    9  H   UNL     1     -43.587 -55.770  14.361  1.00  0.00     0.159 HD
HETATM   10  H   UNL     1     -42.584 -54.356  14.415  1.00  0.00     0.159 HD
HETATM   11  O   UNL     1     -45.250 -54.815  12.909  1.00  0.00    -0.271 OA
ENDBRANCH   1   7
BRANCH   1  12
HETATM   12  N   UNL     1     -43.055 -52.575  12.125  1.00  0.00     0.104 N 
HETATM   13  H   UNL     1     -43.400 -51.955  11.385  1.00  0.00     0.317 HD
BRANCH  12  14
HETATM   14  C   UNL     1     -41.742 -52.075  12.577  1.00  0.00     0.292 C 
BRANCH  14  15
HETATM   15  C   UNL     1     -41.292 -50.797  11.861  1.00  0.00     0.178 C 
BRANCH  15  16
HETATM   16  N   UNL     1     -39.847 -50.653  11.951  1.00  0.00    -0.302 N 
HETATM   17  C   UNL     1     -39.035 -51.118  12.949  1.00  0.00     0.111 A 
HETATM   18  C   UNL     1     -37.769 -50.676  12.645  1.00  0.00     0.037 A 
HETATM   19  C   UNL     1     -37.920 -49.955  11.447  1.00  0.00     0.108 A 
HETATM   20  N   UNL     1     -39.186 -49.933  11.023  1.00  0.00    -0.310 N 
ATOM     21  HN  UNL     1     -39.564 -49.479  10.191  1.00  0.00     0.186 HD
ENDBRANCH  15  16
ENDBRANCH  14  15
ENDBRANCH  12  14
ENDBRANCH   1  12
TORSDOF 5
ENDMDL
MODEL 6
REMARK VINA RESULT:      -5.5      1.960      2.634
REMARK  5 active torsions:
REMARK  status: ('A' for Active; 'I' for Inactive)
REMARK       I    between atoms: N_1  and  C_2 
REMARK    1  A    between atoms: C_2  and  C_4 
REMARK    2  A    between atoms: C_4  and  N_10 
REMARK    3  A    between atoms: N_10  and  C_11 
REMARK    4  A    between atoms: C_11  and  C_12 
REMARK    5  A    between atoms: C_12  and  N_13 
ROOT
HETATM    1  C   UNL     1     -42.468 -51.883  12.954  1.00  0.00     0.236 C 
HETATM    2  C   UNL     1     -42.294 -51.781  14.493  1.00  0.00     0.052 C 
HETATM    3  C   UNL     1     -42.146 -53.133  15.188  1.00  0.00     0.003 C 
HETATM    4  C   UNL     1     -43.284 -54.076  14.817  1.00  0.00     0.000 C 
HETATM    5  C   UNL     1     -43.380 -54.261  13.309  1.00  0.00     0.003 C 
HETATM    6  C   UNL     1     -43.563 -52.918  12.590  1.00  0.00     0.052 C 
ENDROOT
BRANCH   1   7
HETATM    7  C   UNL     1     -41.119 -52.351  12.288  1.00  0.00     0.254 C 
HETATM    8  N   UNL     1     -41.201 -52.732  10.977  1.00  0.00    -0.368 N 
HETATM    9  H   UNL     1     -40.367 -53.168  10.601  1.00  0.00     0.159 HD
HETATM   10  H   UNL     1     -42.098 -53.059  10.640  1.00  0.00     0.159 HD
HETATM   11  O   UNL     1     -40.041 -52.442  12.871  1.00  0.00    -0.271 OA
ENDBRANCH   1   7
BRANCH   1  12
HETATM   12  N   UNL     1     -42.748 -50.530  12.354  1.00  0.00     0.104 N 
HETATM   13  H   UNL     1     -43.741 -50.333  12.515  1.00  0.00     0.317 HD
BRANCH  12  14
HETATM   14  C   UNL     1     -41.955 -49.424  12.924  1.00  0.00     0.292 C 
BRANCH  14  15
HETATM   15  C   UNL     1     -41.085 -48.698  11.893  1.00  0.00     0.178 C 
BRANCH  15  16
HETATM   16  N   UNL     1     -39.701 -49.135  12.006  1.00  0.00    -0.302 N 
HETATM   17  C   UNL     1     -38.837 -48.869  13.032  1.00  0.00     0.111 A 
HETATM   18  C   UNL     1     -37.630 -49.415  12.664  1.00  0.00     0.037 A 
HETATM   19  C   UNL     1     -37.868 -49.986  11.400  1.00  0.00     0.108 A 
HETATM   20  N   UNL     1     -39.128 -49.813  10.993  1.00  0.00    -0.310 N 
ATOM     21  HN  UNL     1     -39.556 -50.122  10.119  1.00  0.00     0.186 HD
ENDBRANCH  15  16
ENDBRANCH  14  15
ENDBRANCH  12  14
ENDBRANCH   1  12
TORSDOF 5
ENDMDL
MODEL 7
REMARK VINA RESULT:      -5.4      2.104      3.120
REMARK  5 active torsions:
REMARK  status: ('A' for Active; 'I' for Inactive)
REMARK       I    between atoms: N_1  and  C_2 
REMARK    1  A    between atoms: C_2  and  C_4 
REMARK    2  A    between atoms: C_4  and  N_10 
REMARK    3  A    between atoms: N_10  and  C_11 
REMARK    4  A    between atoms: C_11  and  C_12 
REMARK    5  A    between atoms: C_12  and  N_13 
ROOT
HETATM    1  C   UNL     1     -44.522 -53.316  14.112  1.00  0.00     0.236 C 
HETATM    2  C   UNL     1     -44.819 -52.035  14.938  1.00  0.00     0.052 C 
HETATM    3  C   UNL     1     -46.209 -51.453  14.695  1.00  0.00     0.003 C 
HETATM    4  C   UNL     1     -46.467 -51.229  13.209  1.00  0.00     0.000 C 
HETATM    5  C   UNL     1     -46.283 -52.516  12.417  1.00  0.00     0.003 C 
HETATM    6  C   UNL     1     -44.880 -53.104  12.619  1.00  0.00     0.052 C 
ENDROOT
BRANCH   1   7
HETATM    7  C   UNL     1     -45.387 -54.517  14.652  1.00  0.00     0.254 C 
HETATM    8  N   UNL     1     -45.751 -55.455  13.724  1.00  0.00    -0.368 N 
HETATM    9  H   UNL     1     -46.424 -56.141  14.045  1.00  0.00     0.159 HD
HETATM   10  H   UNL     1     -45.799 -55.162  12.756  1.00  0.00     0.159 HD
HETATM   11  O   UNL     1     -45.786 -54.634  15.808  1.00  0.00    -0.271 OA
ENDBRANCH   1   7
BRANCH   1  12
HETATM   12  N   UNL     1     -43.092 -53.753  14.293  1.00  0.00     0.104 N 
HETATM   13  H   UNL     1     -43.115 -54.653  14.784  1.00  0.00     0.317 HD
BRANCH  12  14
HETATM   14  C   UNL     1     -42.335 -53.924  13.039  1.00  0.00     0.292 C 
BRANCH  14  15
HETATM   15  C   UNL     1     -40.838 -53.630  13.182  1.00  0.00     0.178 C 
BRANCH  15  16
HETATM   16  N   UNL     1     -40.549 -52.272  12.746  1.00  0.00    -0.302 N 
HETATM   17  C   UNL     1     -39.879 -51.308  13.448  1.00  0.00     0.111 A 
HETATM   18  C   UNL     1     -39.921 -50.174  12.672  1.00  0.00     0.037 A 
HETATM   19  C   UNL     1     -40.638 -50.555  11.522  1.00  0.00     0.108 A 
HETATM   20  N   UNL     1     -41.027 -51.831  11.565  1.00  0.00    -0.310 N 
ATOM     21  HN  UNL     1     -41.560 -52.351  10.868  1.00  0.00     0.186 HD
ENDBRANCH  15  16
ENDBRANCH  14  15
ENDBRANCH  12  14
ENDBRANCH   1  12
TORSDOF 5
ENDMDL
MODEL 8
REMARK VINA RESULT:      -5.3      2.672      6.437
REMARK  5 active torsions:
REMARK  status: ('A' for Active; 'I' for Inactive)
REMARK       I    between atoms: N_1  and  C_2 
REMARK    1  A    between atoms: C_2  and  C_4 
REMARK    2  A    between atoms: C_4  and  N_10 
REMARK    3  A    between atoms: N_10  and  C_11 
REMARK    4  A    between atoms: C_11  and  C_12 
REMARK    5  A    between atoms: C_12  and  N_13 
ROOT
HETATM    1  C   UNL     1     -38.829 -50.505  12.543  1.00  0.00     0.236 C 
HETATM    2  C   UNL     1     -39.011 -48.971  12.694  1.00  0.00     0.052 C 
HETATM    3  C   UNL     1     -38.016 -48.324  13.654  1.00  0.00     0.003 C 
HETATM    4  C   UNL     1     -38.017 -49.020  15.010  1.00  0.00     0.000 C 
HETATM    5  C   UNL     1     -37.727 -50.508  14.866  1.00  0.00     0.003 C 
HETATM    6  C   UNL     1     -38.735 -51.189  13.931  1.00  0.00     0.052 C 
ENDROOT
BRANCH   1   7
HETATM    7  C   UNL     1     -37.498 -50.815  11.759  1.00  0.00     0.254 C 
HETATM    8  N   UNL     1     -37.275 -50.061  10.640  1.00  0.00    -0.368 N 
HETATM    9  H   UNL     1     -36.497 -50.362  10.064  1.00  0.00     0.159 HD
HETATM   10  H   UNL     1     -38.081 -49.663  10.175  1.00  0.00     0.159 HD
HETATM   11  O   UNL     1     -36.699 -51.701  12.052  1.00  0.00    -0.271 OA
ENDBRANCH   1   7
BRANCH   1  12
HETATM   12  N   UNL     1     -39.926 -51.096  11.696  1.00  0.00     0.104 N 
HETATM   13  H   UNL     1     -39.475 -51.534  10.887  1.00  0.00     0.317 HD
BRANCH  12  14
HETATM   14  C   UNL     1     -40.753 -52.111  12.377  1.00  0.00     0.292 C 
BRANCH  14  15
HETATM   15  C   UNL     1     -42.250 -51.783  12.375  1.00  0.00     0.178 C 
BRANCH  15  16
HETATM   16  N   UNL     1     -43.012 -52.909  12.897  1.00  0.00    -0.302 N 
HETATM   17  C   UNL     1     -44.238 -53.339  12.471  1.00  0.00     0.111 A 
HETATM   18  C   UNL     1     -44.589 -54.373  13.306  1.00  0.00     0.037 A 
HETATM   19  C   UNL     1     -43.510 -54.490  14.202  1.00  0.00     0.108 A 
HETATM   20  N   UNL     1     -42.548 -53.596  13.959  1.00  0.00    -0.310 N 
ATOM     21  HN  UNL     1     -41.669 -53.464  14.460  1.00  0.00     0.186 HD
ENDBRANCH  15  16
ENDBRANCH  14  15
ENDBRANCH  12  14
ENDBRANCH   1  12
TORSDOF 5
ENDMDL
MODEL 9
REMARK VINA RESULT:      -5.2      1.964      5.421
REMARK  5 active torsions:
REMARK  status: ('A' for Active; 'I' for Inactive)
REMARK       I    between atoms: N_1  and  C_2 
REMARK    1  A    between atoms: C_2  and  C_4 
REMARK    2  A    between atoms: C_4  and  N_10 
REMARK    3  A    between atoms: N_10  and  C_11 
REMARK    4  A    between atoms: C_11  and  C_12 
REMARK    5  A    between atoms: C_12  and  N_13 
ROOT
HETATM    1  C   UNL     1     -40.422 -50.752  12.696  1.00  0.00     0.236 C 
HETATM    2  C   UNL     1     -39.386 -50.036  11.788  1.00  0.00     0.052 C 
HETATM    3  C   UNL     1     -37.941 -50.449  12.057  1.00  0.00     0.003 C 
HETATM    4  C   UNL     1     -37.585 -50.302  13.532  1.00  0.00     0.000 C 
HETATM    5  C   UNL     1     -38.539 -51.098  14.413  1.00  0.00     0.003 C 
HETATM    6  C   UNL     1     -39.996 -50.676  14.185  1.00  0.00     0.052 C 
ENDROOT
BRANCH   1   7
HETATM    7  C   UNL     1     -40.527 -52.272  12.298  1.00  0.00     0.254 C 
HETATM    8  N   UNL     1     -41.176 -52.539  11.124  1.00  0.00    -0.368 N 
HETATM    9  H   UNL     1     -41.367 -53.519  10.949  1.00  0.00     0.159 HD
HETATM   10  H   UNL     1     -41.853 -51.860  10.798  1.00  0.00     0.159 HD
HETATM   11  O   UNL     1     -40.120 -53.208  12.982  1.00  0.00    -0.271 OA
ENDBRANCH   1   7
BRANCH   1  12
HETATM   12  N   UNL     1     -41.805 -50.195  12.476  1.00  0.00     0.104 N 
HETATM   13  H   UNL     1     -42.298 -50.855  11.866  1.00  0.00     0.317 HD
BRANCH  12  14
HETATM   14  C   UNL     1     -42.600 -50.011  13.705  1.00  0.00     0.292 C 
BRANCH  14  15
HETATM   15  C   UNL     1     -44.025 -50.565  13.602  1.00  0.00     0.178 C 
BRANCH  15  16
HETATM   16  N   UNL     1     -43.994 -52.018  13.513  1.00  0.00    -0.302 N 
HETATM   17  C   UNL     1     -43.474 -52.886  14.432  1.00  0.00     0.111 A 
HETATM   18  C   UNL     1     -43.599 -54.140  13.884  1.00  0.00     0.037 A 
HETATM   19  C   UNL     1     -44.206 -53.924  12.633  1.00  0.00     0.108 A 
HETATM   20  N   UNL     1     -44.444 -52.631  12.401  1.00  0.00    -0.310 N 
ATOM     21  HN  UNL     1     -44.867 -52.206  11.575  1.00  0.00     0.186 HD
ENDBRANCH  15  16
ENDBRANCH  14  15
ENDBRANCH  12  14
ENDBRANCH   1  12
TORSDOF 5
ENDMDL
