MODEL 1
REMARK VINA RESULT:      -6.1      0.000      0.000
REMARK  6 active torsions:
REMARK  status: ('A' for Active; 'I' for Inactive)
REMARK    1  A    between atoms: N_5  and  C_6 
REMARK    2  A    between atoms: C_6  and  C_7 
REMARK    3  A    between atoms: C_7  and  O_8 
REMARK    4  A    between atoms: C_7  and  C_9 
REMARK    5  A    between atoms: C_9  and  O_10 
REMARK    6  A    between atoms: O_10  and  C_11 
ROOT
HETATM    1  C   UNL     1     -41.119 -52.359  11.677  1.00  0.00     0.168 C 
ENDROOT
BRANCH   1   2
HETATM    2  N   UNL     1     -41.206 -53.160  12.879  1.00  0.00    -0.295 N 
HETATM    3  C   UNL     1     -40.134 -53.402  13.767  1.00  0.00     0.329 A 
HETATM    4  N   UNL     1     -40.640 -54.242  14.778  1.00  0.00    -0.302 N 
HETATM    5  O   UNL     1     -39.005 -52.946  13.678  1.00  0.00    -0.246 OA
HETATM    6  C   UNL     1     -39.891 -54.770  15.882  1.00  0.00     0.161 C 
HETATM    7  C   UNL     1     -41.996 -54.490  14.531  1.00  0.00     0.065 A 
HETATM    8  C   UNL     1     -42.347 -53.823  13.354  1.00  0.00     0.066 A 
HETATM    9  C   UNL     1     -42.911 -55.231  15.249  1.00  0.00     0.032 A 
HETATM   10  C   UNL     1     -43.630 -53.868  12.853  1.00  0.00     0.032 A 
HETATM   11  C   UNL     1     -44.576 -54.605  13.571  1.00  0.00     0.002 A 
HETATM   12  C   UNL     1     -44.219 -55.281  14.756  1.00  0.00     0.002 A 
ENDBRANCH   1   2
BRANCH   1  13
HETATM   13  C   UNL     1     -40.994 -50.850  11.934  1.00  0.00     0.161 C 
BRANCH  13  14
HETATM   14  O   UNL     1     -40.404 -50.211  10.790  1.00  0.00    -0.392 OA
HETATM   15  H   UNL     1     -39.768 -49.554  11.127  1.00  0.00     0.210 HD
ENDBRANCH  13  14
BRANCH  13  16
HETATM   16  C   UNL     1     -42.333 -50.189  12.298  1.00  0.00     0.209 C 
BRANCH  16  17
HETATM   17  O   UNL     1     -42.467 -50.215  13.725  1.00  0.00    -0.349 OA
BRANCH  17  18
HETATM   18  C   UNL     1     -43.669 -50.635  14.219  1.00  0.00     0.069 A 
HETATM   19  C   UNL     1     -44.688 -50.743  13.267  1.00  0.00     0.040 A 
HETATM   20  C   UNL     1     -45.964 -51.166  13.640  1.00  0.00     0.045 A 
HETATM   21  C   UNL     1     -46.209 -51.497  14.965  1.00  0.00     0.116 A 
HETATM   22  F   UNL     1     -47.432 -51.905  15.329  1.00  0.00    -0.206 F 
HETATM   23  C   UNL     1     -45.202 -51.416  15.921  1.00  0.00     0.045 A 
HETATM   24  C   UNL     1     -43.926 -50.983  15.548  1.00  0.00     0.040 A 
ENDBRANCH  17  18
ENDBRANCH  16  17
ENDBRANCH  13  16
ENDBRANCH   1  13
TORSDOF 6
ENDMDL
MODEL 2
REMARK VINA RESULT:      -5.9      2.143      4.024
REMARK  6 active torsions:
REMARK  status: ('A' for Active; 'I' for Inactive)
REMARK    1  A    between atoms: N_5  and  C_6 
REMARK    2  A    between atoms: C_6  and  C_7 
REMARK    3  A    between atoms: C_7  and  O_8 
REMARK    4  A    between atoms: C_7  and  C_9 
REMARK    5  A    between atoms: C_9  and  O_10 
REMARK    6  A    between atoms: O_10  and  C_11 
ROOT
HETATM    1  C   UNL     1     -40.825 -52.845  12.101  1.00  0.00     0.168 C 
ENDROOT
BRANCH   1   2
HETATM    2  N   UNL     1     -40.467 -51.648  12.833  1.00  0.00    -0.295 N 
HETATM    3  C   UNL     1     -39.171 -51.350  13.307  1.00  0.00     0.329 A 
HETATM    4  N   UNL     1     -39.270 -50.116  13.979  1.00  0.00    -0.302 N 
HETATM    5  O   UNL     1     -38.167 -52.024  13.139  1.00  0.00    -0.246 OA
HETATM    6  C   UNL     1     -38.198 -49.438  14.649  1.00  0.00     0.161 C 
HETATM    7  C   UNL     1     -40.590 -49.656  13.899  1.00  0.00     0.065 A 
HETATM    8  C   UNL     1     -41.333 -50.605  13.191  1.00  0.00     0.066 A 
HETATM    9  C   UNL     1     -41.160 -48.497  14.382  1.00  0.00     0.032 A 
HETATM   10  C   UNL     1     -42.676 -50.428  12.936  1.00  0.00     0.032 A 
HETATM   11  C   UNL     1     -43.271 -49.255  13.408  1.00  0.00     0.002 A 
HETATM   12  C   UNL     1     -42.521 -48.300  14.125  1.00  0.00     0.002 A 
ENDBRANCH   1   2
BRANCH   1  13
HETATM   13  C   UNL     1     -40.854 -54.121  12.957  1.00  0.00     0.161 C 
BRANCH  13  14
HETATM   14  O   UNL     1     -39.515 -54.601  13.156  1.00  0.00    -0.392 OA
HETATM   15  H   UNL     1     -38.973 -53.836  13.422  1.00  0.00     0.210 HD
ENDBRANCH  13  14
BRANCH  13  16
HETATM   16  C   UNL     1     -41.571 -53.926  14.303  1.00  0.00     0.209 C 
BRANCH  16  17
HETATM   17  O   UNL     1     -42.858 -54.549  14.214  1.00  0.00    -0.349 OA
BRANCH  17  18
HETATM   18  C   UNL     1     -43.924 -53.722  14.002  1.00  0.00     0.069 A 
HETATM   19  C   UNL     1     -44.287 -52.940  15.103  1.00  0.00     0.040 A 
HETATM   20  C   UNL     1     -45.357 -52.049  15.017  1.00  0.00     0.045 A 
HETATM   21  C   UNL     1     -46.048 -51.931  13.819  1.00  0.00     0.116 A 
HETATM   22  F   UNL     1     -47.075 -51.076  13.730  1.00  0.00    -0.206 F 
HETATM   23  C   UNL     1     -45.686 -52.684  12.708  1.00  0.00     0.045 A 
HETATM   24  C   UNL     1     -44.620 -53.585  12.797  1.00  0.00     0.040 A 
ENDBRANCH  17  18
ENDBRANCH  16  17
ENDBRANCH  13  16
ENDBRANCH   1  13
TORSDOF 6
ENDMDL
MODEL 3
REMARK VINA RESULT:      -5.6      3.490      5.845
REMARK  6 active torsions:
REMARK  status: ('A' for Active; 'I' for Inactive)
REMARK    1  A    between atoms: N_5  and  C_6 
REMARK    2  A    between atoms: C_6  and  C_7 
REMARK    3  A    between atoms: C_7  and  O_8 
REMARK    4  A    between atoms: C_7  and  C_9 
REMARK    5  A    between atoms: C_9  and  O_10 
REMARK    6  A    between atoms: O_10  and  C_11 
ROOT
HETATM    1  C   UNL     1     -46.952 -53.055  14.631  1.00  0.00     0.168 C 
ENDROOT
BRANCH   1   2
HETATM    2  N   UNL     1     -46.088 -52.134  15.338  1.00  0.00    -0.295 N 
HETATM    3  C   UNL     1     -46.088 -51.940  16.737  1.00  0.00     0.329 A 
HETATM    4  N   UNL     1     -45.122 -50.948  16.998  1.00  0.00    -0.302 N 
HETATM    5  O   UNL     1     -46.775 -52.538  17.550  1.00  0.00    -0.246 OA
HETATM    6  C   UNL     1     -44.802 -50.409  18.289  1.00  0.00     0.161 C 
HETATM    7  C   UNL     1     -44.527 -50.559  15.791  1.00  0.00     0.065 A 
HETATM    8  C   UNL     1     -45.126 -51.291  14.762  1.00  0.00     0.066 A 
HETATM    9  C   UNL     1     -43.525 -49.644  15.547  1.00  0.00     0.032 A 
HETATM   10  C   UNL     1     -44.740 -51.138  13.448  1.00  0.00     0.032 A 
HETATM   11  C   UNL     1     -43.719 -50.222  13.180  1.00  0.00     0.002 A 
HETATM   12  C   UNL     1     -43.119 -49.481  14.219  1.00  0.00     0.002 A 
ENDBRANCH   1   2
BRANCH   1  13
HETATM   13  C   UNL     1     -46.548 -54.530  14.771  1.00  0.00     0.161 C 
BRANCH  13  14
HETATM   14  O   UNL     1     -47.708 -55.365  14.624  1.00  0.00    -0.392 OA
HETATM   15  H   UNL     1     -47.881 -55.770  15.493  1.00  0.00     0.210 HD
ENDBRANCH  13  14
BRANCH  13  16
HETATM   16  C   UNL     1     -45.445 -54.949  13.786  1.00  0.00     0.209 C 
BRANCH  16  17
HETATM   17  O   UNL     1     -44.326 -55.418  14.548  1.00  0.00    -0.349 OA
BRANCH  17  18
HETATM   18  C   UNL     1     -43.316 -54.525  14.766  1.00  0.00     0.069 A 
HETATM   19  C   UNL     1     -42.627 -54.129  13.616  1.00  0.00     0.040 A 
HETATM   20  C   UNL     1     -41.575 -53.215  13.701  1.00  0.00     0.045 A 
HETATM   21  C   UNL     1     -41.232 -52.687  14.938  1.00  0.00     0.116 A 
HETATM   22  F   UNL     1     -40.225 -51.808  15.025  1.00  0.00    -0.206 F 
HETATM   23  C   UNL     1     -41.922 -53.053  16.088  1.00  0.00     0.045 A 
HETATM   24  C   UNL     1     -42.969 -53.976  16.004  1.00  0.00     0.040 A 
ENDBRANCH  17  18
ENDBRANCH  16  17
ENDBRANCH  13  16
ENDBRANCH   1  13
TORSDOF 6
ENDMDL
MODEL 4
REMARK VINA RESULT:      -5.6      2.029      3.458
REMARK  6 active torsions:
REMARK  status: ('A' for Active; 'I' for Inactive)
REMARK    1  A    between atoms: N_5  and  C_6 
REMARK    2  A    between atoms: C_6  and  C_7 
REMARK    3  A    between atoms: C_7  and  O_8 
REMARK    4  A    between atoms: C_7  and  C_9 
REMARK    5  A    between atoms: C_9  and  O_10 
REMARK    6  A    between atoms: O_10  and  C_11 
ROOT
HETATM    1  C   UNL     1     -41.014 -52.863  14.063  1.00  0.00     0.168 C 
ENDROOT
BRANCH   1   2
HETATM    2  N   UNL     1     -41.957 -52.811  15.160  1.00  0.00    -0.295 N 
HETATM    3  C   UNL     1     -42.275 -53.899  16.003  1.00  0.00     0.329 A 
HETATM    4  N   UNL     1     -43.244 -53.427  16.909  1.00  0.00    -0.302 N 
HETATM    5  O   UNL     1     -41.780 -55.014  15.960  1.00  0.00    -0.246 OA
HETATM    6  C   UNL     1     -43.881 -54.202  17.934  1.00  0.00     0.161 C 
HETATM    7  C   UNL     1     -43.499 -52.075  16.644  1.00  0.00     0.065 A 
HETATM    8  C   UNL     1     -42.704 -51.694  15.560  1.00  0.00     0.066 A 
HETATM    9  C   UNL     1     -44.345 -51.189  17.275  1.00  0.00     0.032 A 
HETATM   10  C   UNL     1     -42.723 -50.406  15.068  1.00  0.00     0.032 A 
HETATM   11  C   UNL     1     -43.568 -49.488  15.699  1.00  0.00     0.002 A 
HETATM   12  C   UNL     1     -44.372 -49.876  16.791  1.00  0.00     0.002 A 
ENDBRANCH   1   2
BRANCH   1  13
HETATM   13  C   UNL     1     -41.668 -52.935  12.674  1.00  0.00     0.161 C 
BRANCH  13  14
HETATM   14  O   UNL     1     -40.674 -53.256  11.688  1.00  0.00    -0.392 OA
HETATM   15  H   UNL     1     -40.584 -54.226  11.678  1.00  0.00     0.210 HD
ENDBRANCH  13  14
BRANCH  13  16
HETATM   16  C   UNL     1     -42.841 -53.926  12.611  1.00  0.00     0.209 C 
BRANCH  16  17
HETATM   17  O   UNL     1     -44.009 -53.204  12.204  1.00  0.00    -0.349 OA
BRANCH  17  18
HETATM   18  C   UNL     1     -44.965 -52.997  13.158  1.00  0.00     0.069 A 
HETATM   19  C   UNL     1     -45.523 -51.715  13.159  1.00  0.00     0.040 A 
HETATM   20  C   UNL     1     -46.513 -51.376  14.082  1.00  0.00     0.045 A 
HETATM   21  C   UNL     1     -46.954 -52.330  14.987  1.00  0.00     0.116 A 
HETATM   22  F   UNL     1     -47.906 -52.010  15.874  1.00  0.00    -0.206 F 
HETATM   23  C   UNL     1     -46.426 -53.616  14.985  1.00  0.00     0.045 A 
HETATM   24  C   UNL     1     -45.426 -53.953  14.067  1.00  0.00     0.040 A 
ENDBRANCH  17  18
ENDBRANCH  16  17
ENDBRANCH  13  16
ENDBRANCH   1  13
TORSDOF 6
ENDMDL
MODEL 5
REMARK VINA RESULT:      -5.5      3.484      6.068
REMARK  6 active torsions:
REMARK  status: ('A' for Active; 'I' for Inactive)
REMARK    1  A    between atoms: N_5  and  C_6 
REMARK    2  A    between atoms: C_6  and  C_7 
REMARK    3  A    between atoms: C_7  and  O_8 
REMARK    4  A    between atoms: C_7  and  C_9 
REMARK    5  A    between atoms: C_9  and  O_10 
REMARK    6  A    between atoms: O_10  and  C_11 
ROOT
HETATM    1  C   UNL     1     -42.131 -49.189  12.579  1.00  0.00     0.168 C 
ENDROOT
BRANCH   1   2
HETATM    2  N   UNL     1     -41.931 -48.062  11.693  1.00  0.00    -0.295 N 
HETATM    3  C   UNL     1     -40.737 -47.313  11.596  1.00  0.00     0.329 A 
HETATM    4  N   UNL     1     -40.979 -46.304  10.644  1.00  0.00    -0.302 N 
HETATM    5  O   UNL     1     -39.699 -47.527  12.204  1.00  0.00    -0.246 OA
HETATM    6  C   UNL     1     -40.049 -45.287  10.247  1.00  0.00     0.161 C 
HETATM    7  C   UNL     1     -42.283 -46.443  10.151  1.00  0.00     0.065 A 
HETATM    8  C   UNL     1     -42.874 -47.529  10.801  1.00  0.00     0.066 A 
HETATM    9  C   UNL     1     -42.956 -45.710   9.198  1.00  0.00     0.032 A 
HETATM   10  C   UNL     1     -44.163 -47.927  10.518  1.00  0.00     0.032 A 
HETATM   11  C   UNL     1     -44.860 -47.203   9.547  1.00  0.00     0.002 A 
HETATM   12  C   UNL     1     -44.264 -46.104   8.894  1.00  0.00     0.002 A 
ENDBRANCH   1   2
BRANCH   1  13
HETATM   13  C   UNL     1     -41.853 -50.554  11.932  1.00  0.00     0.161 C 
BRANCH  13  14
HETATM   14  O   UNL     1     -40.656 -50.480  11.141  1.00  0.00    -0.392 OA
HETATM   15  H   UNL     1     -40.323 -49.567  11.211  1.00  0.00     0.210 HD
ENDBRANCH  13  14
BRANCH  13  16
HETATM   16  C   UNL     1     -41.762 -51.697  12.956  1.00  0.00     0.209 C 
BRANCH  16  17
HETATM   17  O   UNL     1     -42.863 -52.585  12.728  1.00  0.00    -0.349 OA
BRANCH  17  18
HETATM   18  C   UNL     1     -44.061 -52.228  13.279  1.00  0.00     0.069 A 
HETATM   19  C   UNL     1     -43.982 -51.753  14.592  1.00  0.00     0.040 A 
HETATM   20  C   UNL     1     -45.134 -51.351  15.269  1.00  0.00     0.045 A 
HETATM   21  C   UNL     1     -46.359 -51.408  14.619  1.00  0.00     0.116 A 
HETATM   22  F   UNL     1     -47.468 -51.022  15.264  1.00  0.00    -0.206 F 
HETATM   23  C   UNL     1     -46.452 -51.857  13.306  1.00  0.00     0.045 A 
HETATM   24  C   UNL     1     -45.299 -52.270  12.632  1.00  0.00     0.040 A 
ENDBRANCH  17  18
ENDBRANCH  16  17
ENDBRANCH  13  16
ENDBRANCH   1  13
TORSDOF 6
ENDMDL
MODEL 6
REMARK VINA RESULT:      -5.5      2.789      3.780
REMARK  6 active torsions:
REMARK  status: ('A' for Active; 'I' for Inactive)
REMARK    1  A    between atoms: N_5  and  C_6 
REMARK    2  A    between atoms: C_6  and  C_7 
REMARK    3  A    between atoms: C_7  and  O_8 
REMARK    4  A    between atoms: C_7  and  C_9 
REMARK    5  A    between atoms: C_9  and  O_10 
REMARK    6  A    between atoms: O_10  and  C_11 
ROOT
HETATM    1  C   UNL     1     -44.712 -54.331  13.288  1.00  0.00     0.168 C 
ENDROOT
BRANCH   1   2
HETATM    2  N   UNL     1     -43.794 -54.312  14.406  1.00  0.00    -0.295 N 
HETATM    3  C   UNL     1     -44.176 -54.344  15.765  1.00  0.00     0.329 A 
HETATM    4  N   UNL     1     -42.984 -54.283  16.513  1.00  0.00    -0.302 N 
HETATM    5  O   UNL     1     -45.316 -54.434  16.193  1.00  0.00    -0.246 OA
HETATM    6  C   UNL     1     -42.893 -54.260  17.944  1.00  0.00     0.161 C 
HETATM    7  C   UNL     1     -41.894 -54.238  15.634  1.00  0.00     0.065 A 
HETATM    8  C   UNL     1     -42.395 -54.253  14.329  1.00  0.00     0.066 A 
HETATM    9  C   UNL     1     -40.541 -54.194  15.895  1.00  0.00     0.032 A 
HETATM   10  C   UNL     1     -41.557 -54.230  13.234  1.00  0.00     0.032 A 
HETATM   11  C   UNL     1     -40.181 -54.196  13.477  1.00  0.00     0.002 A 
HETATM   12  C   UNL     1     -39.679 -54.177  14.794  1.00  0.00     0.002 A 
ENDBRANCH   1   2
BRANCH   1  13
HETATM   13  C   UNL     1     -44.780 -53.010  12.506  1.00  0.00     0.161 C 
BRANCH  13  14
HETATM   14  O   UNL     1     -46.041 -52.915  11.824  1.00  0.00    -0.392 OA
HETATM   15  H   UNL     1     -46.473 -52.099  12.135  1.00  0.00     0.210 HD
ENDBRANCH  13  14
BRANCH  13  16
HETATM   16  C   UNL     1     -44.541 -51.775  13.389  1.00  0.00     0.209 C 
BRANCH  16  17
HETATM   17  O   UNL     1     -45.818 -51.230  13.743  1.00  0.00    -0.349 OA
BRANCH  17  18
HETATM   18  C   UNL     1     -46.127 -51.210  15.073  1.00  0.00     0.069 A 
HETATM   19  C   UNL     1     -45.094 -50.772  15.907  1.00  0.00     0.040 A 
HETATM   20  C   UNL     1     -45.282 -50.700  17.288  1.00  0.00     0.045 A 
HETATM   21  C   UNL     1     -46.513 -51.049  17.825  1.00  0.00     0.116 A 
HETATM   22  F   UNL     1     -46.699 -50.980  19.150  1.00  0.00    -0.206 F 
HETATM   23  C   UNL     1     -47.558 -51.465  17.008  1.00  0.00     0.045 A 
HETATM   24  C   UNL     1     -47.366 -51.547  15.626  1.00  0.00     0.040 A 
ENDBRANCH  17  18
ENDBRANCH  16  17
ENDBRANCH  13  16
ENDBRANCH   1  13
TORSDOF 6
ENDMDL
MODEL 7
REMARK VINA RESULT:      -5.4      2.512      4.826
REMARK  6 active torsions:
REMARK  status: ('A' for Active; 'I' for Inactive)
REMARK    1  A    between atoms: N_5  and  C_6 
REMARK    2  A    between atoms: C_6  and  C_7 
REMARK    3  A    between atoms: C_7  and  O_8 
REMARK    4  A    between atoms: C_7  and  C_9 
REMARK    5  A    between atoms: C_9  and  O_10 
REMARK    6  A    between atoms: O_10  and  C_11 
ROOT
HETATM    1  C   UNL     1     -41.133 -51.535  13.138  1.00  0.00     0.168 C 
ENDROOT
BRANCH   1   2
HETATM    2  N   UNL     1     -41.118 -50.095  12.996  1.00  0.00    -0.295 N 
HETATM    3  C   UNL     1     -40.415 -49.390  11.995  1.00  0.00     0.329 A 
HETATM    4  N   UNL     1     -40.648 -48.022  12.237  1.00  0.00    -0.302 N 
HETATM    5  O   UNL     1     -39.760 -49.882  11.090  1.00  0.00    -0.246 OA
HETATM    6  C   UNL     1     -40.103 -46.933  11.479  1.00  0.00     0.161 C 
HETATM    7  C   UNL     1     -41.494 -47.891  13.345  1.00  0.00     0.065 A 
HETATM    8  C   UNL     1     -41.783 -49.174  13.818  1.00  0.00     0.066 A 
HETATM    9  C   UNL     1     -42.013 -46.761  13.940  1.00  0.00     0.032 A 
HETATM   10  C   UNL     1     -42.609 -49.374  14.904  1.00  0.00     0.032 A 
HETATM   11  C   UNL     1     -43.154 -48.242  15.515  1.00  0.00     0.002 A 
HETATM   12  C   UNL     1     -42.858 -46.948  15.039  1.00  0.00     0.002 A 
ENDBRANCH   1   2
BRANCH   1  13
HETATM   13  C   UNL     1     -42.031 -52.259  12.123  1.00  0.00     0.161 C 
BRANCH  13  14
HETATM   14  O   UNL     1     -41.245 -52.685  10.999  1.00  0.00    -0.392 OA
HETATM   15  H   UNL     1     -40.586 -51.987  10.829  1.00  0.00     0.210 HD
ENDBRANCH  13  14
BRANCH  13  16
HETATM   16  C   UNL     1     -42.798 -53.442  12.734  1.00  0.00     0.209 C 
BRANCH  16  17
HETATM   17  O   UNL     1     -44.154 -53.375  12.277  1.00  0.00    -0.349 OA
BRANCH  17  18
HETATM   18  C   UNL     1     -45.082 -52.939  13.180  1.00  0.00     0.069 A 
HETATM   19  C   UNL     1     -45.716 -53.953  13.904  1.00  0.00     0.040 A 
HETATM   20  C   UNL     1     -46.682 -53.642  14.862  1.00  0.00     0.045 A 
HETATM   21  C   UNL     1     -46.995 -52.312  15.103  1.00  0.00     0.116 A 
HETATM   22  F   UNL     1     -47.920 -52.007  16.022  1.00  0.00    -0.206 F 
HETATM   23  C   UNL     1     -46.358 -51.290  14.407  1.00  0.00     0.045 A 
HETATM   24  C   UNL     1     -45.398 -51.602  13.441  1.00  0.00     0.040 A 
ENDBRANCH  17  18
ENDBRANCH  16  17
ENDBRANCH  13  16
ENDBRANCH   1  13
TORSDOF 6
ENDMDL
MODEL 8
REMARK VINA RESULT:      -5.4      2.439      4.525
REMARK  6 active torsions:
REMARK  status: ('A' for Active; 'I' for Inactive)
REMARK    1  A    between atoms: N_5  and  C_6 
REMARK    2  A    between atoms: C_6  and  C_7 
REMARK    3  A    between atoms: C_7  and  O_8 
REMARK    4  A    between atoms: C_7  and  C_9 
REMARK    5  A    between atoms: C_9  and  O_10 
REMARK    6  A    between atoms: O_10  and  C_11 
ROOT
HETATM    1  C   UNL     1     -42.355 -52.195  12.352  1.00  0.00     0.168 C 
ENDROOT
BRANCH   1   2
HETATM    2  N   UNL     1     -43.484 -52.268  13.255  1.00  0.00    -0.295 N 
HETATM    3  C   UNL     1     -44.515 -53.230  13.182  1.00  0.00     0.329 A 
HETATM    4  N   UNL     1     -45.415 -52.925  14.222  1.00  0.00    -0.302 N 
HETATM    5  O   UNL     1     -44.586 -54.154  12.387  1.00  0.00    -0.246 OA
HETATM    6  C   UNL     1     -46.633 -53.626  14.508  1.00  0.00     0.161 C 
HETATM    7  C   UNL     1     -44.936 -51.816  14.931  1.00  0.00     0.065 A 
HETATM    8  C   UNL     1     -43.741 -51.407  14.332  1.00  0.00     0.066 A 
HETATM    9  C   UNL     1     -45.457 -51.171  16.033  1.00  0.00     0.032 A 
HETATM   10  C   UNL     1     -43.019 -50.337  14.817  1.00  0.00     0.032 A 
HETATM   11  C   UNL     1     -43.525 -49.675  15.939  1.00  0.00     0.002 A 
HETATM   12  C   UNL     1     -44.732 -50.088  16.540  1.00  0.00     0.002 A 
ENDBRANCH   1   2
BRANCH   1  13
HETATM   13  C   UNL     1     -41.320 -53.314  12.547  1.00  0.00     0.161 C 
BRANCH  13  14
HETATM   14  O   UNL     1     -40.539 -53.464  11.350  1.00  0.00    -0.392 OA
HETATM   15  H   UNL     1     -40.320 -54.411  11.269  1.00  0.00     0.210 HD
ENDBRANCH  13  14
BRANCH  13  16
HETATM   16  C   UNL     1     -40.413 -53.090  13.767  1.00  0.00     0.209 C 
BRANCH  16  17
HETATM   17  O   UNL     1     -40.594 -54.193  14.663  1.00  0.00    -0.349 OA
BRANCH  17  18
HETATM   18  C   UNL     1     -41.481 -54.011  15.685  1.00  0.00     0.069 A 
HETATM   19  C   UNL     1     -41.170 -52.958  16.550  1.00  0.00     0.040 A 
HETATM   20  C   UNL     1     -41.998 -52.663  17.633  1.00  0.00     0.045 A 
HETATM   21  C   UNL     1     -43.147 -53.415  17.835  1.00  0.00     0.116 A 
HETATM   22  F   UNL     1     -43.946 -53.135  18.872  1.00  0.00    -0.206 F 
HETATM   23  C   UNL     1     -43.483 -54.452  16.972  1.00  0.00     0.045 A 
HETATM   24  C   UNL     1     -42.648 -54.754  15.892  1.00  0.00     0.040 A 
ENDBRANCH  17  18
ENDBRANCH  16  17
ENDBRANCH  13  16
ENDBRANCH   1  13
TORSDOF 6
ENDMDL
MODEL 9
REMARK VINA RESULT:      -5.4      2.238      3.464
REMARK  6 active torsions:
REMARK  status: ('A' for Active; 'I' for Inactive)
REMARK    1  A    between atoms: N_5  and  C_6 
REMARK    2  A    between atoms: C_6  and  C_7 
REMARK    3  A    between atoms: C_7  and  O_8 
REMARK    4  A    between atoms: C_7  and  C_9 
REMARK    5  A    between atoms: C_9  and  O_10 
REMARK    6  A    between atoms: O_10  and  C_11 
ROOT
HETATM    1  C   UNL     1     -39.594 -53.501  15.212  1.00  0.00     0.168 C 
ENDROOT
BRANCH   1   2
HETATM    2  N   UNL     1     -39.993 -54.601  16.064  1.00  0.00    -0.295 N 
HETATM    3  C   UNL     1     -39.247 -55.785  16.255  1.00  0.00     0.329 A 
HETATM    4  N   UNL     1     -40.001 -56.591  17.129  1.00  0.00    -0.302 N 
HETATM    5  O   UNL     1     -38.153 -56.036  15.772  1.00  0.00    -0.246 OA
HETATM    6  C   UNL     1     -39.640 -57.904  17.579  1.00  0.00     0.161 C 
HETATM    7  C   UNL     1     -41.171 -55.909  17.486  1.00  0.00     0.065 A 
HETATM    8  C   UNL     1     -41.169 -54.678  16.824  1.00  0.00     0.066 A 
HETATM    9  C   UNL     1     -42.197 -56.282  18.328  1.00  0.00     0.032 A 
HETATM   10  C   UNL     1     -42.192 -53.769  16.985  1.00  0.00     0.032 A 
HETATM   11  C   UNL     1     -43.238 -54.123  17.843  1.00  0.00     0.002 A 
HETATM   12  C   UNL     1     -43.241 -55.367  18.506  1.00  0.00     0.002 A 
ENDBRANCH   1   2
BRANCH   1  13
HETATM   13  C   UNL     1     -39.839 -53.743  13.715  1.00  0.00     0.161 C 
BRANCH  13  14
HETATM   14  O   UNL     1     -38.930 -54.745  13.232  1.00  0.00    -0.392 OA
HETATM   15  H   UNL     1     -39.104 -55.558  13.740  1.00  0.00     0.210 HD
ENDBRANCH  13  14
BRANCH  13  16
HETATM   16  C   UNL     1     -41.293 -54.125  13.396  1.00  0.00     0.209 C 
BRANCH  16  17
HETATM   17  O   UNL     1     -41.818 -53.152  12.485  1.00  0.00    -0.349 OA
BRANCH  17  18
HETATM   18  C   UNL     1     -43.007 -52.573  12.826  1.00  0.00     0.069 A 
HETATM   19  C   UNL     1     -44.141 -53.271  12.401  1.00  0.00     0.040 A 
HETATM   20  C   UNL     1     -45.418 -52.789  12.689  1.00  0.00     0.045 A 
HETATM   21  C   UNL     1     -45.553 -51.617  13.420  1.00  0.00     0.116 A 
HETATM   22  F   UNL     1     -46.777 -51.151  13.701  1.00  0.00    -0.206 F 
HETATM   23  C   UNL     1     -44.436 -50.923  13.870  1.00  0.00     0.045 A 
HETATM   24  C   UNL     1     -43.156 -51.400  13.573  1.00  0.00     0.040 A 
ENDBRANCH  17  18
ENDBRANCH  16  17
ENDBRANCH  13  16
ENDBRANCH   1  13
TORSDOF 6
ENDMDL
