MODEL 1
REMARK VINA RESULT:      -6.3      0.000      0.000
REMARK  5 active torsions:
REMARK  status: ('A' for Active; 'I' for Inactive)
REMARK    1  A    between atoms: O_1  and  C_2 
REMARK    2  A    between atoms: C_2  and  C_4 
REMARK    3  A    between atoms: N_8  and  C_9 
REMARK    4  A    between atoms: C_9  and  C_10 
REMARK       I    between atoms: C_10  and  N_12 
REMARK    5  A    between atoms: N_12  and  C_13 
ROOT
HETATM    1  C   UNL     1     -44.901 -47.724   9.061  1.00  0.00     0.071 A 
HETATM    2  C   UNL     1     -43.955 -47.813   8.013  1.00  0.00     0.127 A 
HETATM    3  N   UNL     1     -42.695 -47.668   8.433  1.00  0.00    -0.309 N 
ATOM      4  HN  UNL     1     -41.840 -47.684   7.877  1.00  0.00     0.186 HD
HETATM    5  N   UNL     1     -42.821 -47.497   9.762  1.00  0.00    -0.294 N 
HETATM    6  C   UNL     1     -44.126 -47.479  10.180  1.00  0.00     0.130 A 
ENDROOT
BRANCH   5   7
HETATM    7  C   UNL     1     -41.636 -47.284  10.571  1.00  0.00     0.250 C 
BRANCH   7   8
HETATM    8  C   UNL     1     -41.128 -48.574  11.175  1.00  0.00     0.237 C 
HETATM    9  O   UNL     1     -41.891 -49.461  11.559  1.00  0.00    -0.272 OA
HETATM   10  N   UNL     1     -39.756 -48.659  11.309  1.00  0.00    -0.355 N 
HETATM   11  H   UNL     1     -39.179 -48.026  10.764  1.00  0.00     0.162 HD
BRANCH  10  12
HETATM   12  C   UNL     1     -39.117 -49.834  11.869  1.00  0.00     0.084 C 
HETATM   13  C   UNL     1     -38.964 -49.744  13.390  1.00  0.00     0.025 C 
HETATM   14  C   UNL     1     -37.621 -50.395  13.722  1.00  0.00     0.002 C 
HETATM   15  C   UNL     1     -37.076 -50.935  12.407  1.00  0.00     0.002 C 
HETATM   16  C   UNL     1     -37.696 -50.035  11.351  1.00  0.00     0.025 C 
ENDBRANCH  10  12
ENDBRANCH   7   8
ENDBRANCH   5   7
BRANCH   1  17
HETATM   17  C   UNL     1     -46.340 -47.861   8.936  1.00  0.00     0.179 C 
HETATM   18  O   UNL     1     -47.094 -46.902   8.844  1.00  0.00    -0.646 OA
BRANCH  17  19
HETATM   19  O   UNL     1     -46.807 -49.135   8.922  1.00  0.00    -0.773 OA
HETATM   20  H   UNL     1     -47.462 -49.309   9.622  1.00  0.00     0.167 HD
ENDBRANCH  17  19
ENDBRANCH   1  17
TORSDOF 5
ENDMDL
MODEL 2
REMARK VINA RESULT:      -6.0      3.424      4.839
REMARK  5 active torsions:
REMARK  status: ('A' for Active; 'I' for Inactive)
REMARK    1  A    between atoms: O_1  and  C_2 
REMARK    2  A    between atoms: C_2  and  C_4 
REMARK    3  A    between atoms: N_8  and  C_9 
REMARK    4  A    between atoms: C_9  and  C_10 
REMARK       I    between atoms: C_10  and  N_12 
REMARK    5  A    between atoms: N_12  and  C_13 
ROOT
HETATM    1  C   UNL     1     -44.960 -47.725   8.845  1.00  0.00     0.071 A 
HETATM    2  C   UNL     1     -43.818 -47.750   8.011  1.00  0.00     0.127 A 
HETATM    3  N   UNL     1     -42.686 -47.477   8.667  1.00  0.00    -0.309 N 
ATOM      4  HN  UNL     1     -41.738 -47.425   8.293  1.00  0.00     0.186 HD
HETATM    5  N   UNL     1     -43.092 -47.287   9.936  1.00  0.00    -0.294 N 
HETATM    6  C   UNL     1     -44.451 -47.382  10.085  1.00  0.00     0.130 A 
ENDROOT
BRANCH   5   7
HETATM    7  C   UNL     1     -42.118 -46.945  10.955  1.00  0.00     0.250 C 
BRANCH   7   8
HETATM    8  C   UNL     1     -41.445 -45.621  10.668  1.00  0.00     0.237 C 
HETATM    9  O   UNL     1     -41.123 -45.284   9.528  1.00  0.00    -0.272 OA
HETATM   10  N   UNL     1     -41.175 -44.848  11.781  1.00  0.00    -0.355 N 
HETATM   11  H   UNL     1     -41.670 -45.053  12.642  1.00  0.00     0.162 HD
BRANCH  10  12
HETATM   12  C   UNL     1     -40.535 -43.552  11.669  1.00  0.00     0.084 C 
HETATM   13  C   UNL     1     -39.650 -43.233  12.877  1.00  0.00     0.025 C 
HETATM   14  C   UNL     1     -39.811 -41.735  13.140  1.00  0.00     0.002 C 
HETATM   15  C   UNL     1     -40.700 -41.203  12.025  1.00  0.00     0.002 C 
HETATM   16  C   UNL     1     -41.537 -42.403  11.613  1.00  0.00     0.025 C 
ENDBRANCH  10  12
ENDBRANCH   7   8
ENDBRANCH   5   7
BRANCH   1  17
HETATM   17  C   UNL     1     -46.326 -48.000   8.443  1.00  0.00     0.179 C 
HETATM   18  O   UNL     1     -47.296 -47.505   9.001  1.00  0.00    -0.646 OA
BRANCH  17  19
HETATM   19  O   UNL     1     -46.468 -48.846   7.393  1.00  0.00    -0.773 OA
HETATM   20  H   UNL     1     -47.271 -49.396   7.452  1.00  0.00     0.167 HD
ENDBRANCH  17  19
ENDBRANCH   1  17
TORSDOF 5
ENDMDL
MODEL 3
REMARK VINA RESULT:      -6.0      2.449      2.879
REMARK  5 active torsions:
REMARK  status: ('A' for Active; 'I' for Inactive)
REMARK    1  A    between atoms: O_1  and  C_2 
REMARK    2  A    between atoms: C_2  and  C_4 
REMARK    3  A    between atoms: N_8  and  C_9 
REMARK    4  A    between atoms: C_9  and  C_10 
REMARK       I    between atoms: C_10  and  N_12 
REMARK    5  A    between atoms: N_12  and  C_13 
ROOT
HETATM    1  C   UNL     1     -44.892 -47.501   9.032  1.00  0.00     0.071 A 
HETATM    2  C   UNL     1     -43.947 -47.829   8.032  1.00  0.00     0.127 A 
HETATM    3  N   UNL     1     -42.728 -48.069   8.524  1.00  0.00    -0.309 N 
ATOM      4  HN  UNL     1     -41.880 -48.316   8.013  1.00  0.00     0.186 HD
HETATM    5  N   UNL     1     -42.883 -47.909   9.851  1.00  0.00    -0.294 N 
HETATM    6  C   UNL     1     -44.152 -47.525  10.200  1.00  0.00     0.130 A 
ENDROOT
BRANCH   5   7
HETATM    7  C   UNL     1     -41.742 -48.074  10.730  1.00  0.00     0.250 C 
BRANCH   7   8
HETATM    8  C   UNL     1     -42.032 -49.044  11.854  1.00  0.00     0.237 C 
HETATM    9  O   UNL     1     -42.532 -48.680  12.919  1.00  0.00    -0.272 OA
HETATM   10  N   UNL     1     -41.651 -50.350  11.614  1.00  0.00    -0.355 N 
HETATM   11  H   UNL     1     -41.479 -50.634  10.655  1.00  0.00     0.162 HD
BRANCH  10  12
HETATM   12  C   UNL     1     -41.865 -51.396  12.595  1.00  0.00     0.084 C 
HETATM   13  C   UNL     1     -40.628 -52.278  12.785  1.00  0.00     0.025 C 
HETATM   14  C   UNL     1     -41.147 -53.700  12.998  1.00  0.00     0.002 C 
HETATM   15  C   UNL     1     -42.665 -53.597  13.028  1.00  0.00     0.002 C 
HETATM   16  C   UNL     1     -42.970 -52.367  12.188  1.00  0.00     0.025 C 
ENDBRANCH  10  12
ENDBRANCH   7   8
ENDBRANCH   5   7
BRANCH   1  17
HETATM   17  C   UNL     1     -46.298 -47.210   8.826  1.00  0.00     0.179 C 
HETATM   18  O   UNL     1     -47.180 -48.044   8.983  1.00  0.00    -0.646 OA
BRANCH  17  19
HETATM   19  O   UNL     1     -46.584 -45.938   8.450  1.00  0.00    -0.773 OA
HETATM   20  H   UNL     1     -46.180 -45.693   7.597  1.00  0.00     0.167 HD
ENDBRANCH  17  19
ENDBRANCH   1  17
TORSDOF 5
ENDMDL
MODEL 4
REMARK VINA RESULT:      -5.8      6.098      8.449
REMARK  5 active torsions:
REMARK  status: ('A' for Active; 'I' for Inactive)
REMARK    1  A    between atoms: O_1  and  C_2 
REMARK    2  A    between atoms: C_2  and  C_4 
REMARK    3  A    between atoms: N_8  and  C_9 
REMARK    4  A    between atoms: C_9  and  C_10 
REMARK       I    between atoms: C_10  and  N_12 
REMARK    5  A    between atoms: N_12  and  C_13 
ROOT
HETATM    1  C   UNL     1     -40.760 -53.326  13.076  1.00  0.00     0.071 A 
HETATM    2  C   UNL     1     -41.265 -52.402  12.131  1.00  0.00     0.127 A 
HETATM    3  N   UNL     1     -42.560 -52.587  11.860  1.00  0.00    -0.309 N 
ATOM      4  HN  UNL     1     -43.150 -52.063  11.213  1.00  0.00     0.186 HD
HETATM    5  N   UNL     1     -42.903 -53.627  12.643  1.00  0.00    -0.294 N 
HETATM    6  C   UNL     1     -41.848 -54.132  13.357  1.00  0.00     0.130 A 
ENDROOT
BRANCH   5   7
HETATM    7  C   UNL     1     -44.261 -54.135  12.603  1.00  0.00     0.250 C 
BRANCH   7   8
HETATM    8  C   UNL     1     -45.264 -53.095  13.048  1.00  0.00     0.237 C 
HETATM    9  O   UNL     1     -46.127 -52.651  12.290  1.00  0.00    -0.272 OA
HETATM   10  N   UNL     1     -45.107 -52.647  14.345  1.00  0.00    -0.355 N 
HETATM   11  H   UNL     1     -44.556 -53.208  14.986  1.00  0.00     0.162 HD
BRANCH  10  12
HETATM   12  C   UNL     1     -45.992 -51.652  14.919  1.00  0.00     0.084 C 
HETATM   13  C   UNL     1     -45.318 -50.843  16.030  1.00  0.00     0.025 C 
HETATM   14  C   UNL     1     -46.393 -50.592  17.088  1.00  0.00     0.002 C 
HETATM   15  C   UNL     1     -47.685 -51.168  16.523  1.00  0.00     0.002 C 
HETATM   16  C   UNL     1     -47.220 -52.268  15.583  1.00  0.00     0.025 C 
ENDBRANCH  10  12
ENDBRANCH   7   8
ENDBRANCH   5   7
BRANCH   1  17
HETATM   17  C   UNL     1     -39.406 -53.374  13.594  1.00  0.00     0.179 C 
HETATM   18  O   UNL     1     -38.866 -52.420  14.136  1.00  0.00    -0.646 OA
BRANCH  17  19
HETATM   19  O   UNL     1     -38.765 -54.561  13.445  1.00  0.00    -0.773 OA
HETATM   20  H   UNL     1     -38.261 -54.620  12.612  1.00  0.00     0.167 HD
ENDBRANCH  17  19
ENDBRANCH   1  17
TORSDOF 5
ENDMDL
MODEL 5
REMARK VINA RESULT:      -5.7      3.735      4.875
REMARK  5 active torsions:
REMARK  status: ('A' for Active; 'I' for Inactive)
REMARK    1  A    between atoms: O_1  and  C_2 
REMARK    2  A    between atoms: C_2  and  C_4 
REMARK    3  A    between atoms: N_8  and  C_9 
REMARK    4  A    between atoms: C_9  and  C_10 
REMARK       I    between atoms: C_10  and  N_12 
REMARK    5  A    between atoms: N_12  and  C_13 
ROOT
HETATM    1  C   UNL     1     -43.461 -46.604   9.803  1.00  0.00     0.071 A 
HETATM    2  C   UNL     1     -42.888 -47.704   9.124  1.00  0.00     0.127 A 
HETATM    3  N   UNL     1     -42.226 -48.532   9.937  1.00  0.00    -0.309 N 
ATOM      4  HN  UNL     1     -41.722 -49.386   9.694  1.00  0.00     0.186 HD
HETATM    5  N   UNL     1     -42.380 -47.975  11.153  1.00  0.00    -0.294 N 
HETATM    6  C   UNL     1     -43.076 -46.794  11.117  1.00  0.00     0.130 A 
ENDROOT
BRANCH   5   7
HETATM    7  C   UNL     1     -41.767 -48.600  12.309  1.00  0.00     0.250 C 
BRANCH   7   8
HETATM    8  C   UNL     1     -42.452 -49.898  12.676  1.00  0.00     0.237 C 
HETATM    9  O   UNL     1     -42.083 -50.982  12.225  1.00  0.00    -0.272 OA
HETATM   10  N   UNL     1     -43.545 -49.768  13.511  1.00  0.00    -0.355 N 
HETATM   11  H   UNL     1     -43.650 -48.907  14.037  1.00  0.00     0.162 HD
BRANCH  10  12
HETATM   12  C   UNL     1     -44.304 -50.921  13.954  1.00  0.00     0.084 C 
HETATM   13  C   UNL     1     -45.573 -51.137  13.124  1.00  0.00     0.025 C 
HETATM   14  C   UNL     1     -46.643 -51.625  14.101  1.00  0.00     0.002 C 
HETATM   15  C   UNL     1     -45.950 -51.778  15.447  1.00  0.00     0.002 C 
HETATM   16  C   UNL     1     -44.804 -50.781  15.389  1.00  0.00     0.025 C 
ENDBRANCH  10  12
ENDBRANCH   7   8
ENDBRANCH   5   7
BRANCH   1  17
HETATM   17  C   UNL     1     -44.257 -45.546   9.210  1.00  0.00     0.179 C 
HETATM   18  O   UNL     1     -43.855 -44.396   9.095  1.00  0.00    -0.646 OA
BRANCH  17  19
HETATM   19  O   UNL     1     -45.489 -45.912   8.777  1.00  0.00    -0.773 OA
HETATM   20  H   UNL     1     -45.605 -46.879   8.731  1.00  0.00     0.167 HD
ENDBRANCH  17  19
ENDBRANCH   1  17
TORSDOF 5
ENDMDL
MODEL 6
REMARK VINA RESULT:      -5.7      3.397      4.078
REMARK  5 active torsions:
REMARK  status: ('A' for Active; 'I' for Inactive)
REMARK    1  A    between atoms: O_1  and  C_2 
REMARK    2  A    between atoms: C_2  and  C_4 
REMARK    3  A    between atoms: N_8  and  C_9 
REMARK    4  A    between atoms: C_9  and  C_10 
REMARK       I    between atoms: C_10  and  N_12 
REMARK    5  A    between atoms: N_12  and  C_13 
ROOT
HETATM    1  C   UNL     1     -42.799 -46.502   9.802  1.00  0.00     0.071 A 
HETATM    2  C   UNL     1     -41.530 -45.996  10.167  1.00  0.00     0.127 A 
HETATM    3  N   UNL     1     -40.696 -46.944  10.604  1.00  0.00    -0.309 N 
ATOM      4  HN  UNL     1     -39.735 -46.837  10.931  1.00  0.00     0.186 HD
HETATM    5  N   UNL     1     -41.422 -48.073  10.510  1.00  0.00    -0.294 N 
HETATM    6  C   UNL     1     -42.703 -47.854  10.076  1.00  0.00     0.130 A 
ENDROOT
BRANCH   5   7
HETATM    7  C   UNL     1     -40.838 -49.335  10.923  1.00  0.00     0.250 C 
BRANCH   7   8
HETATM    8  C   UNL     1     -41.615 -49.970  12.055  1.00  0.00     0.237 C 
HETATM    9  O   UNL     1     -41.881 -49.359  13.090  1.00  0.00    -0.272 OA
HETATM   10  N   UNL     1     -41.955 -51.295  11.861  1.00  0.00    -0.355 N 
HETATM   11  H   UNL     1     -41.931 -51.665  10.917  1.00  0.00     0.162 HD
BRANCH  10  12
HETATM   12  C   UNL     1     -42.703 -52.041  12.854  1.00  0.00     0.084 C 
HETATM   13  C   UNL     1     -41.795 -52.885  13.753  1.00  0.00     0.025 C 
HETATM   14  C   UNL     1     -42.554 -54.184  14.027  1.00  0.00     0.002 C 
HETATM   15  C   UNL     1     -43.918 -54.023  13.370  1.00  0.00     0.002 C 
HETATM   16  C   UNL     1     -43.669 -53.046  12.233  1.00  0.00     0.025 C 
ENDBRANCH  10  12
ENDBRANCH   7   8
ENDBRANCH   5   7
BRANCH   1  17
HETATM   17  C   UNL     1     -43.912 -45.736   9.272  1.00  0.00     0.179 C 
HETATM   18  O   UNL     1     -44.865 -46.252   8.705  1.00  0.00    -0.646 OA
BRANCH  17  19
HETATM   19  O   UNL     1     -43.835 -44.393   9.450  1.00  0.00    -0.773 OA
HETATM   20  H   UNL     1     -43.763 -44.136  10.388  1.00  0.00     0.167 HD
ENDBRANCH  17  19
ENDBRANCH   1  17
TORSDOF 5
ENDMDL
MODEL 7
REMARK VINA RESULT:      -5.5      4.253      5.570
REMARK  5 active torsions:
REMARK  status: ('A' for Active; 'I' for Inactive)
REMARK    1  A    between atoms: O_1  and  C_2 
REMARK    2  A    between atoms: C_2  and  C_4 
REMARK    3  A    between atoms: N_8  and  C_9 
REMARK    4  A    between atoms: C_9  and  C_10 
REMARK       I    between atoms: C_10  and  N_12 
REMARK    5  A    between atoms: N_12  and  C_13 
ROOT
HETATM    1  C   UNL     1     -40.845 -46.871  10.846  1.00  0.00     0.071 A 
HETATM    2  C   UNL     1     -42.042 -47.393  10.305  1.00  0.00     0.127 A 
HETATM    3  N   UNL     1     -42.216 -48.690  10.574  1.00  0.00    -0.309 N 
ATOM      4  HN  UNL     1     -42.987 -49.295  10.292  1.00  0.00     0.186 HD
HETATM    5  N   UNL     1     -41.132 -49.010  11.305  1.00  0.00    -0.294 N 
HETATM    6  C   UNL     1     -40.259 -47.964  11.458  1.00  0.00     0.130 A 
ENDROOT
BRANCH   5   7
HETATM    7  C   UNL     1     -40.961 -50.373  11.772  1.00  0.00     0.250 C 
BRANCH   7   8
HETATM    8  C   UNL     1     -42.157 -50.849  12.566  1.00  0.00     0.237 C 
HETATM    9  O   UNL     1     -42.939 -50.066  13.105  1.00  0.00    -0.272 OA
HETATM   10  N   UNL     1     -42.274 -52.221  12.681  1.00  0.00    -0.355 N 
HETATM   11  H   UNL     1     -41.762 -52.805  12.029  1.00  0.00     0.162 HD
BRANCH  10  12
HETATM   12  C   UNL     1     -43.369 -52.832  13.409  1.00  0.00     0.084 C 
HETATM   13  C   UNL     1     -42.881 -53.783  14.506  1.00  0.00     0.025 C 
HETATM   14  C   UNL     1     -43.867 -54.951  14.527  1.00  0.00     0.002 C 
HETATM   15  C   UNL     1     -44.955 -54.606  13.519  1.00  0.00     0.002 C 
HETATM   16  C   UNL     1     -44.259 -53.696  12.520  1.00  0.00     0.025 C 
ENDBRANCH  10  12
ENDBRANCH   7   8
ENDBRANCH   5   7
BRANCH   1  17
HETATM   17  C   UNL     1     -40.382 -45.499  10.749  1.00  0.00     0.179 C 
HETATM   18  O   UNL     1     -40.280 -44.761  11.720  1.00  0.00    -0.646 OA
BRANCH  17  19
HETATM   19  O   UNL     1     -40.058 -45.078   9.501  1.00  0.00    -0.773 OA
HETATM   20  H   UNL     1     -39.509 -45.718   9.013  1.00  0.00     0.167 HD
ENDBRANCH  17  19
ENDBRANCH   1  17
TORSDOF 5
ENDMDL
MODEL 8
REMARK VINA RESULT:      -5.4      1.525      2.110
REMARK  5 active torsions:
REMARK  status: ('A' for Active; 'I' for Inactive)
REMARK    1  A    between atoms: O_1  and  C_2 
REMARK    2  A    between atoms: C_2  and  C_4 
REMARK    3  A    between atoms: N_8  and  C_9 
REMARK    4  A    between atoms: C_9  and  C_10 
REMARK       I    between atoms: C_10  and  N_12 
REMARK    5  A    between atoms: N_12  and  C_13 
ROOT
HETATM    1  C   UNL     1     -44.170 -47.153   9.814  1.00  0.00     0.071 A 
HETATM    2  C   UNL     1     -43.846 -47.850  11.001  1.00  0.00     0.127 A 
HETATM    3  N   UNL     1     -42.594 -47.629  11.411  1.00  0.00    -0.309 N 
ATOM      4  HN  UNL     1     -42.120 -48.017  12.228  1.00  0.00     0.186 HD
HETATM    5  N   UNL     1     -42.105 -46.774  10.494  1.00  0.00    -0.294 N 
HETATM    6  C   UNL     1     -42.998 -46.493   9.493  1.00  0.00     0.130 A 
ENDROOT
BRANCH   5   7
HETATM    7  C   UNL     1     -40.734 -46.314  10.604  1.00  0.00     0.250 C 
BRANCH   7   8
HETATM    8  C   UNL     1     -39.981 -47.044  11.694  1.00  0.00     0.237 C 
HETATM    9  O   UNL     1     -39.927 -46.619  12.848  1.00  0.00    -0.272 OA
HETATM   10  N   UNL     1     -39.323 -48.188  11.287  1.00  0.00    -0.355 N 
HETATM   11  H   UNL     1     -39.599 -48.616  10.409  1.00  0.00     0.162 HD
BRANCH  10  12
HETATM   12  C   UNL     1     -38.561 -48.998  12.216  1.00  0.00     0.084 C 
HETATM   13  C   UNL     1     -37.403 -49.733  11.535  1.00  0.00     0.025 C 
HETATM   14  C   UNL     1     -37.309 -51.101  12.210  1.00  0.00     0.002 C 
HETATM   15  C   UNL     1     -38.340 -51.092  13.330  1.00  0.00     0.002 C 
HETATM   16  C   UNL     1     -39.394 -50.105  12.855  1.00  0.00     0.025 C 
ENDBRANCH  10  12
ENDBRANCH   7   8
ENDBRANCH   5   7
BRANCH   1  17
HETATM   17  C   UNL     1     -45.449 -47.165   9.130  1.00  0.00     0.179 C 
HETATM   18  O   UNL     1     -46.089 -48.189   8.932  1.00  0.00    -0.646 OA
BRANCH  17  19
HETATM   19  O   UNL     1     -45.906 -45.954   8.722  1.00  0.00    -0.773 OA
HETATM   20  H   UNL     1     -46.075 -45.914   7.762  1.00  0.00     0.167 HD
ENDBRANCH  17  19
ENDBRANCH   1  17
TORSDOF 5
ENDMDL
MODEL 9
REMARK VINA RESULT:      -5.2      5.406      6.366
REMARK  5 active torsions:
REMARK  status: ('A' for Active; 'I' for Inactive)
REMARK    1  A    between atoms: O_1  and  C_2 
REMARK    2  A    between atoms: C_2  and  C_4 
REMARK    3  A    between atoms: N_8  and  C_9 
REMARK    4  A    between atoms: C_9  and  C_10 
REMARK       I    between atoms: C_10  and  N_12 
REMARK    5  A    between atoms: N_12  and  C_13 
ROOT
HETATM    1  C   UNL     1     -44.771 -54.201  14.200  1.00  0.00     0.071 A 
HETATM    2  C   UNL     1     -44.500 -53.956  12.834  1.00  0.00     0.127 A 
HETATM    3  N   UNL     1     -43.194 -53.924  12.557  1.00  0.00    -0.309 N 
ATOM      4  HN  UNL     1     -42.744 -53.759  11.656  1.00  0.00     0.186 HD
HETATM    5  N   UNL     1     -42.611 -54.163  13.747  1.00  0.00    -0.294 N 
HETATM    6  C   UNL     1     -43.514 -54.292  14.770  1.00  0.00     0.130 A 
ENDROOT
BRANCH   5   7
HETATM    7  C   UNL     1     -41.164 -54.185  13.843  1.00  0.00     0.250 C 
BRANCH   7   8
HETATM    8  C   UNL     1     -40.529 -53.083  13.025  1.00  0.00     0.237 C 
HETATM    9  O   UNL     1     -40.634 -53.035  11.799  1.00  0.00    -0.272 OA
HETATM   10  N   UNL     1     -39.784 -52.172  13.748  1.00  0.00    -0.355 N 
HETATM   11  H   UNL     1     -39.932 -52.115  14.750  1.00  0.00     0.162 HD
BRANCH  10  12
HETATM   12  C   UNL     1     -39.115 -51.057  13.106  1.00  0.00     0.084 C 
HETATM   13  C   UNL     1     -37.820 -50.664  13.821  1.00  0.00     0.025 C 
HETATM   14  C   UNL     1     -37.733 -49.140  13.742  1.00  0.00     0.002 C 
HETATM   15  C   UNL     1     -38.919 -48.692  12.900  1.00  0.00     0.002 C 
HETATM   16  C   UNL     1     -39.956 -49.783  13.110  1.00  0.00     0.025 C 
ENDBRANCH  10  12
ENDBRANCH   7   8
ENDBRANCH   5   7
BRANCH   1  17
HETATM   17  C   UNL     1     -46.081 -54.317  14.811  1.00  0.00     0.179 C 
HETATM   18  O   UNL     1     -46.527 -53.487  15.593  1.00  0.00    -0.646 OA
BRANCH  17  19
HETATM   19  O   UNL     1     -46.798 -55.412  14.456  1.00  0.00    -0.773 OA
HETATM   20  H   UNL     1     -46.382 -55.924  13.738  1.00  0.00     0.167 HD
ENDBRANCH  17  19
ENDBRANCH   1  17
TORSDOF 5
ENDMDL
