MODEL 1
REMARK VINA RESULT:      -5.4      0.000      0.000
REMARK  3 active torsions:
REMARK  status: ('A' for Active; 'I' for Inactive)
REMARK    1  A    between atoms: N_6  and  C_7 
REMARK    2  A    between atoms: C_7  and  C_8 
REMARK       I    between atoms: C_8  and  N_10 
REMARK    3  A    between atoms: N_10  and  C_11 
ROOT
HETATM    1 CL   UNL     1     -42.581 -54.593  14.066  1.00  0.00    -0.081 Cl
HETATM    2  C   UNL     1     -41.845 -53.243  13.304  1.00  0.00     0.078 A 
HETATM    3  C   UNL     1     -42.737 -52.288  12.635  1.00  0.00     0.133 A 
HETATM    4  N   UNL     1     -42.365 -51.225  11.998  1.00  0.00    -0.305 N 
ATOM      5  HN  UNL     1     -43.040 -50.616  11.535  1.00  0.00     0.186 HD
HETATM    6  N   UNL     1     -41.014 -50.956  11.976  1.00  0.00    -0.248 N 
HETATM    7  C   UNL     1     -40.040 -51.770  12.554  1.00  0.00     0.285 A 
HETATM    8  O   UNL     1     -38.839 -51.513  12.508  1.00  0.00    -0.265 OA
HETATM    9  C   UNL     1     -40.537 -52.990  13.255  1.00  0.00     0.126 A 
HETATM   10 CL   UNL     1     -39.354 -54.018  13.981  1.00  0.00    -0.076 Cl
ENDROOT
BRANCH   6  11
HETATM   11  C   UNL     1     -40.604 -49.703  11.336  1.00  0.00     0.255 C 
BRANCH  11  12
HETATM   12  C   UNL     1     -41.727 -48.675  11.247  1.00  0.00     0.237 C 
HETATM   13  O   UNL     1     -42.271 -48.223  12.254  1.00  0.00    -0.272 OA
HETATM   14  N   UNL     1     -42.198 -48.432   9.969  1.00  0.00    -0.355 N 
HETATM   15  H   UNL     1     -41.776 -48.957   9.208  1.00  0.00     0.162 HD
BRANCH  14  16
HETATM   16  C   UNL     1     -43.320 -47.584   9.724  1.00  0.00     0.084 A 
HETATM   17  C   UNL     1     -43.585 -47.062   8.339  1.00  0.00     0.027 A 
HETATM   18  C   UNL     1     -43.161 -46.119   9.427  1.00  0.00     0.027 A 
ENDBRANCH  14  16
ENDBRANCH  11  12
ENDBRANCH   6  11
TORSDOF 3
ENDMDL
MODEL 2
REMARK VINA RESULT:      -5.4      6.053      6.864
REMARK  3 active torsions:
REMARK  status: ('A' for Active; 'I' for Inactive)
REMARK    1  A    between atoms: N_6  and  C_7 
REMARK    2  A    between atoms: C_7  and  C_8 
REMARK       I    between atoms: C_8  and  N_10 
REMARK    3  A    between atoms: N_10  and  C_11 
ROOT
HETATM    1 CL   UNL     1     -42.564 -42.751  14.386  1.00  0.00    -0.081 Cl
HETATM    2  C   UNL     1     -42.302 -43.886  13.126  1.00  0.00     0.078 A 
HETATM    3  C   UNL     1     -43.039 -45.153  13.207  1.00  0.00     0.133 A 
HETATM    4  N   UNL     1     -42.959 -46.130  12.363  1.00  0.00    -0.305 N 
ATOM      5  HN  UNL     1     -43.485 -46.995  12.494  1.00  0.00     0.186 HD
HETATM    6  N   UNL     1     -42.131 -45.945  11.277  1.00  0.00    -0.248 N 
HETATM    7  C   UNL     1     -41.357 -44.804  11.063  1.00  0.00     0.285 A 
HETATM    8  O   UNL     1     -40.616 -44.671  10.092  1.00  0.00    -0.265 OA
HETATM    9  C   UNL     1     -41.482 -43.726  12.087  1.00  0.00     0.126 A 
HETATM   10 CL   UNL     1     -40.536 -42.300  11.849  1.00  0.00    -0.076 Cl
ENDROOT
BRANCH   6  11
HETATM   11  C   UNL     1     -42.115 -47.012  10.273  1.00  0.00     0.255 C 
BRANCH  11  12
HETATM   12  C   UNL     1     -43.226 -46.883   9.237  1.00  0.00     0.237 C 
HETATM   13  O   UNL     1     -43.225 -45.985   8.396  1.00  0.00    -0.272 OA
HETATM   14  N   UNL     1     -44.305 -47.729   9.427  1.00  0.00    -0.355 N 
HETATM   15  H   UNL     1     -44.277 -48.347  10.233  1.00  0.00     0.162 HD
BRANCH  14  16
HETATM   16  C   UNL     1     -45.476 -47.657   8.613  1.00  0.00     0.084 A 
HETATM   17  C   UNL     1     -46.757 -47.111   9.180  1.00  0.00     0.027 A 
HETATM   18  C   UNL     1     -46.653 -48.566   8.830  1.00  0.00     0.027 A 
ENDBRANCH  14  16
ENDBRANCH  11  12
ENDBRANCH   6  11
TORSDOF 3
ENDMDL
MODEL 3
REMARK VINA RESULT:      -5.3      3.169      4.872
REMARK  3 active torsions:
REMARK  status: ('A' for Active; 'I' for Inactive)
REMARK    1  A    between atoms: N_6  and  C_7 
REMARK    2  A    between atoms: C_7  and  C_8 
REMARK       I    between atoms: C_8  and  N_10 
REMARK    3  A    between atoms: N_10  and  C_11 
ROOT
HETATM    1 CL   UNL     1     -39.746 -46.999  11.370  1.00  0.00    -0.081 Cl
HETATM    2  C   UNL     1     -40.221 -48.620  11.671  1.00  0.00     0.078 A 
HETATM    3  C   UNL     1     -41.649 -48.933  11.531  1.00  0.00     0.133 A 
HETATM    4  N   UNL     1     -42.192 -50.089  11.731  1.00  0.00    -0.305 N 
ATOM      5  HN  UNL     1     -43.198 -50.231  11.638  1.00  0.00     0.186 HD
HETATM    6  N   UNL     1     -41.346 -51.122  12.076  1.00  0.00    -0.248 N 
HETATM    7  C   UNL     1     -39.971 -50.983  12.258  1.00  0.00     0.285 A 
HETATM    8  O   UNL     1     -39.241 -51.918  12.579  1.00  0.00    -0.265 OA
HETATM    9  C   UNL     1     -39.414 -49.618  12.031  1.00  0.00     0.126 A 
HETATM   10 CL   UNL     1     -37.711 -49.415  12.250  1.00  0.00    -0.076 Cl
ENDROOT
BRANCH   6  11
HETATM   11  C   UNL     1     -41.950 -52.450  12.209  1.00  0.00     0.255 C 
BRANCH  11  12
HETATM   12  C   UNL     1     -43.281 -52.435  12.955  1.00  0.00     0.237 C 
HETATM   13  O   UNL     1     -43.334 -52.487  14.183  1.00  0.00    -0.272 OA
HETATM   14  N   UNL     1     -44.403 -52.538  12.152  1.00  0.00    -0.355 N 
HETATM   15  H   UNL     1     -44.254 -52.628  11.150  1.00  0.00     0.162 HD
BRANCH  14  16
HETATM   16  C   UNL     1     -45.717 -52.653  12.698  1.00  0.00     0.084 A 
HETATM   17  C   UNL     1     -46.878 -51.978  12.021  1.00  0.00     0.027 A 
HETATM   18  C   UNL     1     -46.407 -51.494  13.361  1.00  0.00     0.027 A 
ENDBRANCH  14  16
ENDBRANCH  11  12
ENDBRANCH   6  11
TORSDOF 3
ENDMDL
MODEL 4
REMARK VINA RESULT:      -5.2      3.675      4.791
REMARK  3 active torsions:
REMARK  status: ('A' for Active; 'I' for Inactive)
REMARK    1  A    between atoms: N_6  and  C_7 
REMARK    2  A    between atoms: C_7  and  C_8 
REMARK       I    between atoms: C_8  and  N_10 
REMARK    3  A    between atoms: N_10  and  C_11 
ROOT
HETATM    1 CL   UNL     1     -46.866 -51.293  14.576  1.00  0.00    -0.081 Cl
HETATM    2  C   UNL     1     -45.401 -51.807  13.845  1.00  0.00     0.078 A 
HETATM    3  C   UNL     1     -44.528 -50.762  13.296  1.00  0.00     0.133 A 
HETATM    4  N   UNL     1     -43.398 -50.957  12.698  1.00  0.00    -0.305 N 
ATOM      5  HN  UNL     1     -42.853 -50.183  12.319  1.00  0.00     0.186 HD
HETATM    6  N   UNL     1     -42.966 -52.262  12.598  1.00  0.00    -0.248 N 
HETATM    7  C   UNL     1     -43.685 -53.365  13.059  1.00  0.00     0.285 A 
HETATM    8  O   UNL     1     -43.282 -54.521  12.945  1.00  0.00    -0.265 OA
HETATM    9  C   UNL     1     -44.989 -53.068  13.720  1.00  0.00     0.126 A 
HETATM   10 CL   UNL     1     -45.902 -54.416  14.302  1.00  0.00    -0.076 Cl
ENDROOT
BRANCH   6  11
HETATM   11  C   UNL     1     -41.643 -52.474  12.006  1.00  0.00     0.255 C 
BRANCH  11  12
HETATM   12  C   UNL     1     -40.569 -51.560  12.587  1.00  0.00     0.237 C 
HETATM   13  O   UNL     1     -40.596 -51.199  13.763  1.00  0.00    -0.272 OA
HETATM   14  N   UNL     1     -39.682 -51.037  11.663  1.00  0.00    -0.355 N 
HETATM   15  H   UNL     1     -39.822 -51.287  10.688  1.00  0.00     0.162 HD
BRANCH  14  16
HETATM   16  C   UNL     1     -38.688 -50.079  12.026  1.00  0.00     0.084 A 
HETATM   17  C   UNL     1     -37.428 -49.954  11.216  1.00  0.00     0.027 A 
HETATM   18  C   UNL     1     -37.368 -50.486  12.617  1.00  0.00     0.027 A 
ENDBRANCH  14  16
ENDBRANCH  11  12
ENDBRANCH   6  11
TORSDOF 3
ENDMDL
MODEL 5
REMARK VINA RESULT:      -5.1      2.014      2.756
REMARK  3 active torsions:
REMARK  status: ('A' for Active; 'I' for Inactive)
REMARK    1  A    between atoms: N_6  and  C_7 
REMARK    2  A    between atoms: C_7  and  C_8 
REMARK       I    between atoms: C_8  and  N_10 
REMARK    3  A    between atoms: N_10  and  C_11 
ROOT
HETATM    1 CL   UNL     1     -45.773 -55.037  14.167  1.00  0.00    -0.081 Cl
HETATM    2  C   UNL     1     -44.308 -54.312  13.646  1.00  0.00     0.078 A 
HETATM    3  C   UNL     1     -44.381 -53.431  12.474  1.00  0.00     0.133 A 
HETATM    4  N   UNL     1     -43.384 -52.812  11.930  1.00  0.00    -0.305 N 
ATOM      5  HN  UNL     1     -43.503 -52.231  11.100  1.00  0.00     0.186 HD
HETATM    6  N   UNL     1     -42.152 -52.974  12.527  1.00  0.00    -0.248 N 
HETATM    7  C   UNL     1     -41.917 -53.786  13.637  1.00  0.00     0.285 A 
HETATM    8  O   UNL     1     -40.805 -53.924  14.142  1.00  0.00    -0.265 OA
HETATM    9  C   UNL     1     -43.108 -54.486  14.201  1.00  0.00     0.126 A 
HETATM   10 CL   UNL     1     -42.848 -55.499  15.577  1.00  0.00    -0.076 Cl
ENDROOT
BRANCH   6  11
HETATM   11  C   UNL     1     -41.042 -52.199  11.967  1.00  0.00     0.255 C 
BRANCH  11  12
HETATM   12  C   UNL     1     -41.149 -50.703  12.249  1.00  0.00     0.237 C 
HETATM   13  O   UNL     1     -41.062 -50.253  13.391  1.00  0.00    -0.272 OA
HETATM   14  N   UNL     1     -41.523 -49.928  11.166  1.00  0.00    -0.355 N 
HETATM   15  H   UNL     1     -41.707 -50.409  10.289  1.00  0.00     0.162 HD
BRANCH  14  16
HETATM   16  C   UNL     1     -41.777 -48.529  11.287  1.00  0.00     0.084 A 
HETATM   17  C   UNL     1     -43.191 -48.017  11.317  1.00  0.00     0.027 A 
HETATM   18  C   UNL     1     -42.308 -47.714  10.142  1.00  0.00     0.027 A 
ENDBRANCH  14  16
ENDBRANCH  11  12
ENDBRANCH   6  11
TORSDOF 3
ENDMDL
MODEL 6
REMARK VINA RESULT:      -5.1      3.816      5.275
REMARK  3 active torsions:
REMARK  status: ('A' for Active; 'I' for Inactive)
REMARK    1  A    between atoms: N_6  and  C_7 
REMARK    2  A    between atoms: C_7  and  C_8 
REMARK       I    between atoms: C_8  and  N_10 
REMARK    3  A    between atoms: N_10  and  C_11 
ROOT
HETATM    1 CL   UNL     1     -38.761 -51.247  12.840  1.00  0.00    -0.081 Cl
HETATM    2  C   UNL     1     -40.256 -52.083  12.940  1.00  0.00     0.078 A 
HETATM    3  C   UNL     1     -41.193 -51.910  11.822  1.00  0.00     0.133 A 
HETATM    4  N   UNL     1     -42.366 -52.446  11.728  1.00  0.00    -0.305 N 
ATOM      5  HN  UNL     1     -42.975 -52.263  10.931  1.00  0.00     0.186 HD
HETATM    6  N   UNL     1     -42.753 -53.275  12.759  1.00  0.00    -0.248 N 
HETATM    7  C   UNL     1     -41.984 -53.532  13.893  1.00  0.00     0.285 A 
HETATM    8  O   UNL     1     -42.359 -54.266  14.804  1.00  0.00    -0.265 OA
HETATM    9  C   UNL     1     -40.650 -52.866  13.945  1.00  0.00     0.126 A 
HETATM   10 CL   UNL     1     -39.673 -53.165  15.339  1.00  0.00    -0.076 Cl
ENDROOT
BRANCH   6  11
HETATM   11  C   UNL     1     -44.042 -53.955  12.607  1.00  0.00     0.255 C 
BRANCH  11  12
HETATM   12  C   UNL     1     -45.236 -53.065  12.939  1.00  0.00     0.237 C 
HETATM   13  O   UNL     1     -46.068 -52.755  12.087  1.00  0.00    -0.272 OA
HETATM   14  N   UNL     1     -45.212 -52.501  14.202  1.00  0.00    -0.355 N 
HETATM   15  H   UNL     1     -44.410 -52.709  14.791  1.00  0.00     0.162 HD
BRANCH  14  16
HETATM   16  C   UNL     1     -46.194 -51.557  14.628  1.00  0.00     0.084 A 
HETATM   17  C   UNL     1     -46.175 -51.030  16.036  1.00  0.00     0.027 A 
HETATM   18  C   UNL     1     -47.291 -51.926  15.587  1.00  0.00     0.027 A 
ENDBRANCH  14  16
ENDBRANCH  11  12
ENDBRANCH   6  11
TORSDOF 3
ENDMDL
MODEL 7
REMARK VINA RESULT:      -4.9      3.425      4.115
REMARK  3 active torsions:
REMARK  status: ('A' for Active; 'I' for Inactive)
REMARK    1  A    between atoms: N_6  and  C_7 
REMARK    2  A    between atoms: C_7  and  C_8 
REMARK       I    between atoms: C_8  and  N_10 
REMARK    3  A    between atoms: N_10  and  C_11 
ROOT
HETATM    1 CL   UNL     1     -46.019 -54.450  14.906  1.00  0.00    -0.081 Cl
HETATM    2  C   UNL     1     -44.546 -54.088  14.102  1.00  0.00     0.078 A 
HETATM    3  C   UNL     1     -44.644 -53.396  12.811  1.00  0.00     0.133 A 
HETATM    4  N   UNL     1     -43.650 -53.057  12.058  1.00  0.00    -0.305 N 
ATOM      5  HN  UNL     1     -43.792 -52.597  11.158  1.00  0.00     0.186 HD
HETATM    6  N   UNL     1     -42.387 -53.346  12.529  1.00  0.00    -0.248 N 
HETATM    7  C   UNL     1     -42.128 -54.008  13.729  1.00  0.00     0.285 A 
HETATM    8  O   UNL     1     -40.992 -54.266  14.119  1.00  0.00    -0.265 OA
HETATM    9  C   UNL     1     -43.323 -54.389  14.538  1.00  0.00     0.126 A 
HETATM   10 CL   UNL     1     -43.034 -55.210  16.031  1.00  0.00    -0.076 Cl
ENDROOT
BRANCH   6  11
HETATM   11  C   UNL     1     -41.260 -52.877  11.720  1.00  0.00     0.255 C 
BRANCH  11  12
HETATM   12  C   UNL     1     -40.895 -51.419  11.981  1.00  0.00     0.237 C 
HETATM   13  O   UNL     1     -41.751 -50.535  12.016  1.00  0.00    -0.272 OA
HETATM   14  N   UNL     1     -39.538 -51.148  11.994  1.00  0.00    -0.355 N 
HETATM   15  H   UNL     1     -38.906 -51.924  11.819  1.00  0.00     0.162 HD
BRANCH  14  16
HETATM   16  C   UNL     1     -39.033 -49.818  12.113  1.00  0.00     0.084 A 
HETATM   17  C   UNL     1     -37.674 -49.475  11.569  1.00  0.00     0.027 A 
HETATM   18  C   UNL     1     -37.910 -49.474  13.051  1.00  0.00     0.027 A 
ENDBRANCH  14  16
ENDBRANCH  11  12
ENDBRANCH   6  11
TORSDOF 3
ENDMDL
MODEL 8
REMARK VINA RESULT:      -4.8      4.582      6.938
REMARK  3 active torsions:
REMARK  status: ('A' for Active; 'I' for Inactive)
REMARK    1  A    between atoms: N_6  and  C_7 
REMARK    2  A    between atoms: C_7  and  C_8 
REMARK       I    between atoms: C_8  and  N_10 
REMARK    3  A    between atoms: N_10  and  C_11 
ROOT
HETATM    1 CL   UNL     1     -40.184 -42.681  12.082  1.00  0.00    -0.081 Cl
HETATM    2  C   UNL     1     -40.789 -44.236  11.679  1.00  0.00     0.078 A 
HETATM    3  C   UNL     1     -40.103 -44.958  10.600  1.00  0.00     0.133 A 
HETATM    4  N   UNL     1     -40.423 -46.127  10.150  1.00  0.00    -0.305 N 
ATOM      5  HN  UNL     1     -39.915 -46.562   9.379  1.00  0.00     0.186 HD
HETATM    6  N   UNL     1     -41.484 -46.759  10.763  1.00  0.00    -0.248 N 
HETATM    7  C   UNL     1     -42.243 -46.201  11.792  1.00  0.00     0.285 A 
HETATM    8  O   UNL     1     -43.194 -46.781  12.311  1.00  0.00    -0.265 OA
HETATM    9  C   UNL     1     -41.831 -44.842  12.247  1.00  0.00     0.126 A 
HETATM   10 CL   UNL     1     -42.752 -44.125  13.522  1.00  0.00    -0.076 Cl
ENDROOT
BRANCH   6  11
HETATM   11  C   UNL     1     -41.786 -48.121  10.316  1.00  0.00     0.255 C 
BRANCH  11  12
HETATM   12  C   UNL     1     -41.075 -49.195  11.133  1.00  0.00     0.237 C 
HETATM   13  O   UNL     1     -41.682 -49.901  11.938  1.00  0.00    -0.272 OA
HETATM   14  N   UNL     1     -39.695 -49.191  11.031  1.00  0.00    -0.355 N 
HETATM   15  H   UNL     1     -39.273 -48.478  10.443  1.00  0.00     0.162 HD
BRANCH  14  16
HETATM   16  C   UNL     1     -38.876 -50.057  11.817  1.00  0.00     0.084 A 
HETATM   17  C   UNL     1     -37.837 -49.482  12.739  1.00  0.00     0.027 A 
HETATM   18  C   UNL     1     -37.416 -50.254  11.524  1.00  0.00     0.027 A 
ENDBRANCH  14  16
ENDBRANCH  11  12
ENDBRANCH   6  11
TORSDOF 3
ENDMDL
MODEL 9
REMARK VINA RESULT:      -4.7      3.822      4.829
REMARK  3 active torsions:
REMARK  status: ('A' for Active; 'I' for Inactive)
REMARK    1  A    between atoms: N_6  and  C_7 
REMARK    2  A    between atoms: C_7  and  C_8 
REMARK       I    between atoms: C_8  and  N_10 
REMARK    3  A    between atoms: N_10  and  C_11 
ROOT
HETATM    1 CL   UNL     1     -37.282 -50.435  15.298  1.00  0.00    -0.081 Cl
HETATM    2  C   UNL     1     -38.500 -50.916  14.188  1.00  0.00     0.078 A 
HETATM    3  C   UNL     1     -39.127 -52.224  14.413  1.00  0.00     0.133 A 
HETATM    4  N   UNL     1     -40.047 -52.758  13.677  1.00  0.00    -0.305 N 
ATOM      5  HN  UNL     1     -40.423 -53.685  13.879  1.00  0.00     0.186 HD
HETATM    6  N   UNL     1     -40.495 -52.014  12.607  1.00  0.00    -0.248 N 
HETATM    7  C   UNL     1     -39.993 -50.761  12.255  1.00  0.00     0.285 A 
HETATM    8  O   UNL     1     -40.401 -50.125  11.286  1.00  0.00    -0.265 OA
HETATM    9  C   UNL     1     -38.919 -50.214  13.135  1.00  0.00     0.126 A 
HETATM   10 CL   UNL     1     -38.278 -48.663  12.725  1.00  0.00    -0.076 Cl
ENDROOT
BRANCH   6  11
HETATM   11  C   UNL     1     -41.601 -52.579  11.830  1.00  0.00     0.255 C 
BRANCH  11  12
HETATM   12  C   UNL     1     -42.812 -52.944  12.684  1.00  0.00     0.237 C 
HETATM   13  O   UNL     1     -42.830 -53.960  13.378  1.00  0.00    -0.272 OA
HETATM   14  N   UNL     1     -43.931 -52.156  12.480  1.00  0.00    -0.355 N 
HETATM   15  H   UNL     1     -43.863 -51.421  11.782  1.00  0.00     0.162 HD
BRANCH  14  16
HETATM   16  C   UNL     1     -45.179 -52.435  13.115  1.00  0.00     0.084 A 
HETATM   17  C   UNL     1     -46.452 -51.854  12.566  1.00  0.00     0.027 A 
HETATM   18  C   UNL     1     -45.928 -51.390  13.892  1.00  0.00     0.027 A 
ENDBRANCH  14  16
ENDBRANCH  11  12
ENDBRANCH   6  11
TORSDOF 3
ENDMDL
