MODEL 1
REMARK VINA RESULT:      -6.4      0.000      0.000
REMARK  3 active torsions:
REMARK  status: ('A' for Active; 'I' for Inactive)
REMARK    1  A    between atoms: C_2  and  C_4 
REMARK       I    between atoms: N_10  and  C_11 
REMARK       I    between atoms: C_11  and  N_13 
REMARK    2  A    between atoms: N_13  and  C_14 
REMARK    3  A    between atoms: C_14  and  C_15 
ROOT
HETATM    1  C   UNL     1     -40.488 -50.340  12.351  1.00  0.00     0.073 A 
HETATM    2  N   UNL     1     -41.695 -49.847  12.159  1.00  0.00    -0.296 N 
ATOM      3  HN  UNL     1     -41.894 -48.852  12.056  1.00  0.00     0.187 HD
HETATM    4  N   UNL     1     -42.653 -50.828  12.115  1.00  0.00    -0.279 N 
ATOM      5  HN  UNL     1     -43.647 -50.649  11.980  1.00  0.00     0.189 HD
HETATM    6  C   UNL     1     -42.136 -52.024  12.266  1.00  0.00     0.169 A 
HETATM    7  N   UNL     1     -42.792 -53.219  12.325  1.00  0.00    -0.288 N 
HETATM    8  C   UNL     1     -44.146 -53.354  12.406  1.00  0.00     0.322 C 
HETATM    9  O   UNL     1     -44.640 -54.477  12.471  1.00  0.00    -0.247 OA
HETATM   10  N   UNL     1     -44.890 -52.210  12.464  1.00  0.00    -0.342 N 
HETATM   11  S   UNL     1     -40.442 -52.063  12.440  1.00  0.00    -0.037 SA
HETATM   12  H   UNL     1     -42.256 -54.072  12.386  1.00  0.00     0.172 HD
HETATM   13  H   UNL     1     -44.424 -51.332  12.250  1.00  0.00     0.164 HD
ENDROOT
BRANCH  10  14
HETATM   14  C   UNL     1     -46.318 -52.225  12.658  1.00  0.00     0.129 C 
BRANCH  14  15
HETATM   15  C   UNL     1     -46.625 -51.420  13.906  1.00  0.00     0.003 C 
HETATM   16  C   UNL     1     -45.365 -51.007  14.706  1.00  0.00     0.006 C 
HETATM   17  C   UNL     1     -46.170 -51.250  15.995  1.00  0.00     0.001 C 
HETATM   18  C   UNL     1     -47.080 -52.190  15.178  1.00  0.00     0.006 C 
ENDBRANCH  14  15
ENDBRANCH  10  14
BRANCH   1  19
HETATM   19  C   UNL     1     -39.252 -49.499  12.480  1.00  0.00     0.036 C 
HETATM   20  C   UNL     1     -38.096 -50.158  11.730  1.00  0.00     0.016 C 
HETATM   21  C   UNL     1     -39.512 -48.095  11.926  1.00  0.00     0.016 C 
ENDBRANCH   1  19
TORSDOF 3
ENDMDL
MODEL 2
REMARK VINA RESULT:      -5.8      2.050      3.178
REMARK  3 active torsions:
REMARK  status: ('A' for Active; 'I' for Inactive)
REMARK    1  A    between atoms: C_2  and  C_4 
REMARK       I    between atoms: N_10  and  C_11 
REMARK       I    between atoms: C_11  and  N_13 
REMARK    2  A    between atoms: N_13  and  C_14 
REMARK    3  A    between atoms: C_14  and  C_15 
ROOT
HETATM    1  C   UNL     1     -40.603 -47.828  11.187  1.00  0.00     0.073 A 
HETATM    2  N   UNL     1     -41.758 -48.401  10.915  1.00  0.00    -0.296 N 
ATOM      3  HN  UNL     1     -42.578 -47.898  10.579  1.00  0.00     0.187 HD
HETATM    4  N   UNL     1     -41.728 -49.755  11.137  1.00  0.00    -0.279 N 
ATOM      5  HN  UNL     1     -42.524 -50.375  10.990  1.00  0.00     0.189 HD
HETATM    6  C   UNL     1     -40.553 -50.156  11.560  1.00  0.00     0.169 A 
HETATM    7  N   UNL     1     -40.180 -51.416  11.926  1.00  0.00    -0.288 N 
HETATM    8  C   UNL     1     -41.039 -52.464  12.075  1.00  0.00     0.322 C 
HETATM    9  O   UNL     1     -40.604 -53.558  12.425  1.00  0.00    -0.247 OA
HETATM   10  N   UNL     1     -42.368 -52.222  11.874  1.00  0.00    -0.342 N 
HETATM   11  S   UNL     1     -39.375 -48.932  11.691  1.00  0.00    -0.037 SA
HETATM   12  H   UNL     1     -39.218 -51.590  12.177  1.00  0.00     0.172 HD
HETATM   13  H   UNL     1     -42.626 -51.339  11.439  1.00  0.00     0.164 HD
ENDROOT
BRANCH  10  14
HETATM   14  C   UNL     1     -43.380 -53.221  12.104  1.00  0.00     0.129 C 
BRANCH  14  15
HETATM   15  C   UNL     1     -44.314 -52.696  13.178  1.00  0.00     0.003 C 
HETATM   16  C   UNL     1     -45.809 -52.743  12.779  1.00  0.00     0.006 C 
HETATM   17  C   UNL     1     -45.991 -51.401  13.511  1.00  0.00     0.001 C 
HETATM   18  C   UNL     1     -44.482 -51.156  13.310  1.00  0.00     0.006 C 
ENDBRANCH  14  15
ENDBRANCH  10  14
BRANCH   1  19
HETATM   19  C   UNL     1     -40.354 -46.353  11.073  1.00  0.00     0.036 C 
HETATM   20  C   UNL     1     -41.622 -45.650  10.592  1.00  0.00     0.016 C 
HETATM   21  C   UNL     1     -39.914 -45.787  12.427  1.00  0.00     0.016 C 
ENDBRANCH   1  19
TORSDOF 3
ENDMDL
MODEL 3
REMARK VINA RESULT:      -5.8      3.184      6.252
REMARK  3 active torsions:
REMARK  status: ('A' for Active; 'I' for Inactive)
REMARK    1  A    between atoms: C_2  and  C_4 
REMARK       I    between atoms: N_10  and  C_11 
REMARK       I    between atoms: C_11  and  N_13 
REMARK    2  A    between atoms: N_13  and  C_14 
REMARK    3  A    between atoms: C_14  and  C_15 
ROOT
HETATM    1  C   UNL     1     -44.699 -52.731  13.184  1.00  0.00     0.073 A 
HETATM    2  N   UNL     1     -44.899 -51.463  12.884  1.00  0.00    -0.296 N 
ATOM      3  HN  UNL     1     -45.811 -51.007  12.915  1.00  0.00     0.187 HD
HETATM    4  N   UNL     1     -43.737 -50.828  12.527  1.00  0.00    -0.279 N 
ATOM      5  HN  UNL     1     -43.683 -49.846  12.256  1.00  0.00     0.189 HD
HETATM    6  C   UNL     1     -42.704 -51.633  12.577  1.00  0.00     0.169 A 
HETATM    7  N   UNL     1     -41.410 -51.357  12.241  1.00  0.00    -0.288 N 
HETATM    8  C   UNL     1     -40.998 -50.214  11.624  1.00  0.00     0.322 C 
HETATM    9  O   UNL     1     -39.809 -50.068  11.349  1.00  0.00    -0.247 OA
HETATM   10  N   UNL     1     -41.956 -49.298  11.291  1.00  0.00    -0.342 N 
HETATM   11  S   UNL     1     -43.047 -53.219  13.094  1.00  0.00    -0.037 SA
HETATM   12  H   UNL     1     -40.703 -52.063  12.386  1.00  0.00     0.172 HD
HETATM   13  H   UNL     1     -42.885 -49.422  11.688  1.00  0.00     0.164 HD
ENDROOT
BRANCH  10  14
HETATM   14  C   UNL     1     -41.657 -48.104  10.543  1.00  0.00     0.129 C 
BRANCH  14  15
HETATM   15  C   UNL     1     -42.971 -47.420  10.217  1.00  0.00     0.003 C 
HETATM   16  C   UNL     1     -43.404 -47.578   8.739  1.00  0.00     0.006 C 
HETATM   17  C   UNL     1     -43.930 -46.132   8.794  1.00  0.00     0.001 C 
HETATM   18  C   UNL     1     -42.952 -45.887   9.962  1.00  0.00     0.006 C 
ENDBRANCH  14  15
ENDBRANCH  10  14
BRANCH   1  19
HETATM   19  C   UNL     1     -45.795 -53.680  13.573  1.00  0.00     0.036 C 
HETATM   20  C   UNL     1     -45.193 -55.019  13.996  1.00  0.00     0.016 C 
HETATM   21  C   UNL     1     -46.625 -53.086  14.714  1.00  0.00     0.016 C 
ENDBRANCH   1  19
TORSDOF 3
ENDMDL
MODEL 4
REMARK VINA RESULT:      -5.7      3.108      4.457
REMARK  3 active torsions:
REMARK  status: ('A' for Active; 'I' for Inactive)
REMARK    1  A    between atoms: C_2  and  C_4 
REMARK       I    between atoms: N_10  and  C_11 
REMARK       I    between atoms: C_11  and  N_13 
REMARK    2  A    between atoms: N_13  and  C_14 
REMARK    3  A    between atoms: C_14  and  C_15 
ROOT
HETATM    1  C   UNL     1     -40.655 -46.907  10.869  1.00  0.00     0.073 A 
HETATM    2  N   UNL     1     -41.293 -47.891  10.267  1.00  0.00    -0.296 N 
ATOM      3  HN  UNL     1     -41.981 -47.755   9.528  1.00  0.00     0.187 HD
HETATM    4  N   UNL     1     -40.922 -49.119  10.753  1.00  0.00    -0.279 N 
ATOM      5  HN  UNL     1     -41.305 -50.004  10.420  1.00  0.00     0.189 HD
HETATM    6  C   UNL     1     -40.015 -49.021  11.695  1.00  0.00     0.169 A 
HETATM    7  N   UNL     1     -39.458 -50.026  12.430  1.00  0.00    -0.288 N 
HETATM    8  C   UNL     1     -39.887 -51.320  12.421  1.00  0.00     0.322 C 
HETATM    9  O   UNL     1     -39.327 -52.148  13.135  1.00  0.00    -0.247 OA
HETATM   10  N   UNL     1     -40.971 -51.618  11.645  1.00  0.00    -0.342 N 
HETATM   11  S   UNL     1     -39.509 -47.433  12.048  1.00  0.00    -0.037 SA
HETATM   12  H   UNL     1     -38.723 -49.806  13.086  1.00  0.00     0.172 HD
HETATM   13  H   UNL     1     -41.277 -50.918  10.973  1.00  0.00     0.164 HD
ENDROOT
BRANCH  10  14
HETATM   14  C   UNL     1     -41.580 -52.923  11.636  1.00  0.00     0.129 C 
BRANCH  14  15
HETATM   15  C   UNL     1     -42.593 -52.970  12.764  1.00  0.00     0.003 C 
HETATM   16  C   UNL     1     -42.443 -54.206  13.684  1.00  0.00     0.006 C 
HETATM   17  C   UNL     1     -43.978 -54.258  13.776  1.00  0.00     0.001 C 
HETATM   18  C   UNL     1     -44.023 -53.488  12.440  1.00  0.00     0.006 C 
ENDBRANCH  14  15
ENDBRANCH  10  14
BRANCH   1  19
HETATM   19  C   UNL     1     -40.886 -45.455  10.570  1.00  0.00     0.036 C 
HETATM   20  C   UNL     1     -41.279 -44.719  11.849  1.00  0.00     0.016 C 
HETATM   21  C   UNL     1     -39.622 -44.834   9.967  1.00  0.00     0.016 C 
ENDBRANCH   1  19
TORSDOF 3
ENDMDL
MODEL 5
REMARK VINA RESULT:      -5.4      2.406      6.370
REMARK  3 active torsions:
REMARK  status: ('A' for Active; 'I' for Inactive)
REMARK    1  A    between atoms: C_2  and  C_4 
REMARK       I    between atoms: N_10  and  C_11 
REMARK       I    between atoms: C_11  and  N_13 
REMARK    2  A    between atoms: N_13  and  C_14 
REMARK    3  A    between atoms: C_14  and  C_15 
ROOT
HETATM    1  C   UNL     1     -44.614 -51.796  13.627  1.00  0.00     0.073 A 
HETATM    2  N   UNL     1     -43.626 -51.094  14.146  1.00  0.00    -0.296 N 
ATOM      3  HN  UNL     1     -43.726 -50.142  14.497  1.00  0.00     0.187 HD
HETATM    4  N   UNL     1     -42.447 -51.796  14.159  1.00  0.00    -0.279 N 
ATOM      5  HN  UNL     1     -41.566 -51.425  14.515  1.00  0.00     0.189 HD
HETATM    6  C   UNL     1     -42.588 -53.000  13.658  1.00  0.00     0.169 A 
HETATM    7  N   UNL     1     -41.623 -53.946  13.468  1.00  0.00    -0.288 N 
HETATM    8  C   UNL     1     -40.286 -53.728  13.618  1.00  0.00     0.322 C 
HETATM    9  O   UNL     1     -39.496 -54.644  13.407  1.00  0.00    -0.247 OA
HETATM   10  N   UNL     1     -39.888 -52.464  13.950  1.00  0.00    -0.342 N 
HETATM   11  S   UNL     1     -44.168 -53.397  13.162  1.00  0.00    -0.037 SA
HETATM   12  H   UNL     1     -41.889 -54.857  13.124  1.00  0.00     0.172 HD
HETATM   13  H   UNL     1     -40.603 -51.809  14.256  1.00  0.00     0.164 HD
ENDROOT
BRANCH  10  14
HETATM   14  C   UNL     1     -38.500 -52.087  14.033  1.00  0.00     0.129 C 
BRANCH  14  15
HETATM   15  C   UNL     1     -38.350 -50.724  13.382  1.00  0.00     0.003 C 
HETATM   16  C   UNL     1     -39.481 -50.386  12.381  1.00  0.00     0.006 C 
HETATM   17  C   UNL     1     -38.422 -49.705  11.497  1.00  0.00     0.001 C 
HETATM   18  C   UNL     1     -37.364 -50.591  12.188  1.00  0.00     0.006 C 
ENDBRANCH  14  15
ENDBRANCH  10  14
BRANCH   1  19
HETATM   19  C   UNL     1     -46.009 -51.270  13.451  1.00  0.00     0.036 C 
HETATM   20  C   UNL     1     -46.689 -51.988  12.287  1.00  0.00     0.016 C 
HETATM   21  C   UNL     1     -46.812 -51.468  14.740  1.00  0.00     0.016 C 
ENDBRANCH   1  19
TORSDOF 3
ENDMDL
MODEL 6
REMARK VINA RESULT:      -5.3      2.339      6.101
REMARK  3 active torsions:
REMARK  status: ('A' for Active; 'I' for Inactive)
REMARK    1  A    between atoms: C_2  and  C_4 
REMARK       I    between atoms: N_10  and  C_11 
REMARK       I    between atoms: C_11  and  N_13 
REMARK    2  A    between atoms: N_13  and  C_14 
REMARK    3  A    between atoms: C_14  and  C_15 
ROOT
HETATM    1  C   UNL     1     -44.771 -51.757  12.942  1.00  0.00     0.073 A 
HETATM    2  N   UNL     1     -44.351 -50.508  12.957  1.00  0.00    -0.296 N 
ATOM      3  HN  UNL     1     -44.969 -49.700  13.036  1.00  0.00     0.187 HD
HETATM    4  N   UNL     1     -42.986 -50.421  12.853  1.00  0.00    -0.279 N 
ATOM      5  HN  UNL     1     -42.469 -49.543  12.841  1.00  0.00     0.189 HD
HETATM    6  C   UNL     1     -42.425 -51.604  12.772  1.00  0.00     0.169 A 
HETATM    7  N   UNL     1     -41.102 -51.894  12.608  1.00  0.00    -0.288 N 
HETATM    8  C   UNL     1     -40.137 -50.972  12.328  1.00  0.00     0.322 C 
HETATM    9  O   UNL     1     -38.974 -51.339  12.183  1.00  0.00    -0.247 OA
HETATM   10  N   UNL     1     -40.534 -49.675  12.168  1.00  0.00    -0.342 N 
HETATM   11  S   UNL     1     -43.501 -52.922  12.849  1.00  0.00    -0.037 SA
HETATM   12  H   UNL     1     -40.805 -52.858  12.621  1.00  0.00     0.172 HD
HETATM   13  H   UNL     1     -41.479 -49.432  12.455  1.00  0.00     0.164 HD
ENDROOT
BRANCH  10  14
HETATM   14  C   UNL     1     -39.625 -48.632  11.767  1.00  0.00     0.129 C 
BRANCH  14  15
HETATM   15  C   UNL     1     -40.444 -47.514  11.150  1.00  0.00     0.003 C 
HETATM   16  C   UNL     1     -41.296 -46.729  12.178  1.00  0.00     0.006 C 
HETATM   17  C   UNL     1     -42.404 -46.642  11.113  1.00  0.00     0.001 C 
HETATM   18  C   UNL     1     -41.782 -47.890  10.452  1.00  0.00     0.006 C 
ENDBRANCH  14  15
ENDBRANCH  10  14
BRANCH   1  19
HETATM   19  C   UNL     1     -46.218 -52.153  13.003  1.00  0.00     0.036 C 
HETATM   20  C   UNL     1     -46.880 -51.512  14.220  1.00  0.00     0.016 C 
HETATM   21  C   UNL     1     -46.935 -51.722  11.720  1.00  0.00     0.016 C 
ENDBRANCH   1  19
TORSDOF 3
ENDMDL
MODEL 7
REMARK VINA RESULT:      -5.3      2.201      6.212
REMARK  3 active torsions:
REMARK  status: ('A' for Active; 'I' for Inactive)
REMARK    1  A    between atoms: C_2  and  C_4 
REMARK       I    between atoms: N_10  and  C_11 
REMARK       I    between atoms: C_11  and  N_13 
REMARK    2  A    between atoms: N_13  and  C_14 
REMARK    3  A    between atoms: C_14  and  C_15 
ROOT
HETATM    1  C   UNL     1     -44.813 -51.861  13.117  1.00  0.00     0.073 A 
HETATM    2  N   UNL     1     -44.302 -50.672  12.865  1.00  0.00    -0.296 N 
ATOM      3  HN  UNL     1     -44.860 -49.832  12.716  1.00  0.00     0.187 HD
HETATM    4  N   UNL     1     -42.931 -50.698  12.828  1.00  0.00    -0.279 N 
ATOM      5  HN  UNL     1     -42.349 -49.881  12.643  1.00  0.00     0.189 HD
HETATM    6  C   UNL     1     -42.457 -51.898  13.059  1.00  0.00     0.169 A 
HETATM    7  N   UNL     1     -41.153 -52.300  13.049  1.00  0.00    -0.288 N 
HETATM    8  C   UNL     1     -40.110 -51.533  12.620  1.00  0.00     0.322 C 
HETATM    9  O   UNL     1     -38.972 -51.996  12.636  1.00  0.00    -0.247 OA
HETATM   10  N   UNL     1     -40.401 -50.289  12.139  1.00  0.00    -0.342 N 
HETATM   11  S   UNL     1     -43.631 -53.091  13.376  1.00  0.00    -0.037 SA
HETATM   12  H   UNL     1     -40.930 -53.251  13.305  1.00  0.00     0.172 HD
HETATM   13  H   UNL     1     -41.338 -49.926  12.302  1.00  0.00     0.164 HD
ENDROOT
BRANCH  10  14
HETATM   14  C   UNL     1     -39.399 -49.430  11.561  1.00  0.00     0.129 C 
BRANCH  14  15
HETATM   15  C   UNL     1     -39.195 -48.258  12.502  1.00  0.00     0.003 C 
HETATM   16  C   UNL     1     -38.137 -48.522  13.602  1.00  0.00     0.006 C 
HETATM   17  C   UNL     1     -39.029 -47.729  14.574  1.00  0.00     0.001 C 
HETATM   18  C   UNL     1     -40.221 -48.058  13.652  1.00  0.00     0.006 C 
ENDBRANCH  14  15
ENDBRANCH  10  14
BRANCH   1  19
HETATM   19  C   UNL     1     -46.286 -52.140  13.180  1.00  0.00     0.036 C 
HETATM   20  C   UNL     1     -46.897 -51.429  14.385  1.00  0.00     0.016 C 
HETATM   21  C   UNL     1     -46.965 -51.676  11.888  1.00  0.00     0.016 C 
ENDBRANCH   1  19
TORSDOF 3
ENDMDL
MODEL 8
REMARK VINA RESULT:      -4.8      3.499      3.934
REMARK  3 active torsions:
REMARK  status: ('A' for Active; 'I' for Inactive)
REMARK    1  A    between atoms: C_2  and  C_4 
REMARK       I    between atoms: N_10  and  C_11 
REMARK       I    between atoms: C_11  and  N_13 
REMARK    2  A    between atoms: N_13  and  C_14 
REMARK    3  A    between atoms: C_14  and  C_15 
ROOT
HETATM    1  C   UNL     1     -40.642 -53.840  16.148  1.00  0.00     0.073 A 
HETATM    2  N   UNL     1     -41.128 -52.963  15.292  1.00  0.00    -0.296 N 
ATOM      3  HN  UNL     1     -40.695 -52.062  15.092  1.00  0.00     0.187 HD
HETATM    4  N   UNL     1     -42.285 -53.406  14.701  1.00  0.00    -0.279 N 
ATOM      5  HN  UNL     1     -42.815 -52.871  14.014  1.00  0.00     0.189 HD
HETATM    6  C   UNL     1     -42.626 -54.599  15.125  1.00  0.00     0.169 A 
HETATM    7  N   UNL     1     -43.736 -55.320  14.793  1.00  0.00    -0.288 N 
HETATM    8  C   UNL     1     -44.787 -54.834  14.074  1.00  0.00     0.322 C 
HETATM    9  O   UNL     1     -45.750 -55.562  13.842  1.00  0.00    -0.247 OA
HETATM   10  N   UNL     1     -44.734 -53.525  13.689  1.00  0.00    -0.342 N 
HETATM   11  S   UNL     1     -41.555 -55.301  16.249  1.00  0.00    -0.037 SA
HETATM   12  H   UNL     1     -43.840 -56.257  15.155  1.00  0.00     0.172 HD
HETATM   13  H   UNL     1     -43.845 -53.040  13.785  1.00  0.00     0.164 HD
ENDROOT
BRANCH  10  14
HETATM   14  C   UNL     1     -45.829 -52.871  13.019  1.00  0.00     0.129 C 
BRANCH  14  15
HETATM   15  C   UNL     1     -46.366 -51.797  13.946  1.00  0.00     0.003 C 
HETATM   16  C   UNL     1     -45.284 -51.162  14.854  1.00  0.00     0.006 C 
HETATM   17  C   UNL     1     -46.334 -51.111  15.978  1.00  0.00     0.001 C 
HETATM   18  C   UNL     1     -47.079 -52.249  15.252  1.00  0.00     0.006 C 
ENDBRANCH  14  15
ENDBRANCH  10  14
BRANCH   1  19
HETATM   19  C   UNL     1     -39.407 -53.610  16.969  1.00  0.00     0.036 C 
HETATM   20  C   UNL     1     -38.689 -52.353  16.483  1.00  0.00     0.016 C 
HETATM   21  C   UNL     1     -39.778 -53.471  18.449  1.00  0.00     0.016 C 
ENDBRANCH   1  19
TORSDOF 3
ENDMDL
MODEL 9
REMARK VINA RESULT:      -4.8      4.329      5.398
REMARK  3 active torsions:
REMARK  status: ('A' for Active; 'I' for Inactive)
REMARK    1  A    between atoms: C_2  and  C_4 
REMARK       I    between atoms: N_10  and  C_11 
REMARK       I    between atoms: C_11  and  N_13 
REMARK    2  A    between atoms: N_13  and  C_14 
REMARK    3  A    between atoms: C_14  and  C_15 
ROOT
HETATM    1  C   UNL     1     -40.001 -55.665  16.536  1.00  0.00     0.073 A 
HETATM    2  N   UNL     1     -41.306 -55.535  16.394  1.00  0.00    -0.296 N 
ATOM      3  HN  UNL     1     -41.992 -55.989  16.996  1.00  0.00     0.187 HD
HETATM    4  N   UNL     1     -41.631 -54.719  15.341  1.00  0.00    -0.279 N 
ATOM      5  HN  UNL     1     -42.587 -54.497  15.065  1.00  0.00     0.189 HD
HETATM    6  C   UNL     1     -40.566 -54.256  14.733  1.00  0.00     0.169 A 
HETATM    7  N   UNL     1     -40.513 -53.462  13.624  1.00  0.00    -0.288 N 
HETATM    8  C   UNL     1     -41.588 -53.148  12.846  1.00  0.00     0.322 C 
HETATM    9  O   UNL     1     -41.431 -52.437  11.856  1.00  0.00    -0.247 OA
HETATM   10  N   UNL     1     -42.792 -53.694  13.187  1.00  0.00    -0.342 N 
HETATM   11  S   UNL     1     -39.079 -54.743  15.406  1.00  0.00    -0.037 SA
HETATM   12  H   UNL     1     -39.616 -53.132  13.297  1.00  0.00     0.172 HD
HETATM   13  H   UNL     1     -42.867 -54.140  14.098  1.00  0.00     0.164 HD
ENDROOT
BRANCH  10  14
HETATM   14  C   UNL     1     -43.975 -53.521  12.382  1.00  0.00     0.129 C 
BRANCH  14  15
HETATM   15  C   UNL     1     -45.105 -53.103  13.303  1.00  0.00     0.003 C 
HETATM   16  C   UNL     1     -46.265 -52.379  12.576  1.00  0.00     0.006 C 
HETATM   17  C   UNL     1     -46.393 -51.463  13.806  1.00  0.00     0.001 C 
HETATM   18  C   UNL     1     -44.925 -51.803  14.136  1.00  0.00     0.006 C 
ENDBRANCH  14  15
ENDBRANCH  10  14
BRANCH   1  19
HETATM   19  C   UNL     1     -39.356 -56.528  17.580  1.00  0.00     0.036 C 
HETATM   20  C   UNL     1     -39.784 -57.982  17.388  1.00  0.00     0.016 C 
HETATM   21  C   UNL     1     -37.832 -56.407  17.495  1.00  0.00     0.016 C 
ENDBRANCH   1  19
TORSDOF 3
ENDMDL
