MODEL 1
REMARK VINA RESULT:      -5.9      0.000      0.000
REMARK  7 active torsions:
REMARK  status: ('A' for Active; 'I' for Inactive)
REMARK    1  A    between atoms: C_2  and  C_4 
REMARK    2  A    between atoms: C_8  and  O_9 
REMARK    3  A    between atoms: O_9  and  C_10 
REMARK    4  A    between atoms: C_10  and  C_11 
REMARK    5  A    between atoms: C_11  and  O_12 
REMARK    6  A    between atoms: C_11  and  C_13 
REMARK    7  A    between atoms: C_13  and  N_14 
ROOT
HETATM    1  C   UNL     1     -41.569 -50.669  12.029  1.00  0.00     0.161 C 
ENDROOT
BRANCH   1   2
HETATM    2  C   UNL     1     -40.960 -50.082  13.309  1.00  0.00     0.209 C 
BRANCH   2   3
HETATM    3  O   UNL     1     -41.984 -49.434  14.067  1.00  0.00    -0.349 OA
BRANCH   3   4
HETATM    4  C   UNL     1     -42.838 -50.241  14.766  1.00  0.00     0.069 A 
HETATM    5  C   UNL     1     -42.251 -50.922  15.833  1.00  0.00     0.037 A 
HETATM    6  C   UNL     1     -43.013 -51.761  16.645  1.00  0.00     0.004 A 
HETATM    7  C   UNL     1     -44.378 -51.914  16.402  1.00  0.00     0.015 A 
HETATM    8  C   UNL     1     -44.979 -51.231  15.338  1.00  0.00     0.012 A 
HETATM    9  C   UNL     1     -44.200 -50.410  14.511  1.00  0.00     0.051 A 
BRANCH   8  10
HETATM   10  C   UNL     1     -46.443 -51.325  15.064  1.00  0.00     0.155 C 
HETATM   11  C   UNL     1     -47.394 -51.408  16.229  1.00  0.00     0.096 C 
HETATM   12  O   UNL     1     -46.853 -51.325  13.904  1.00  0.00    -0.293 OA
ENDBRANCH   8  10
ENDBRANCH   3   4
ENDBRANCH   2   3
ENDBRANCH   1   2
BRANCH   1  13
HETATM   13  O   UNL     1     -41.262 -49.822  10.913  1.00  0.00    -0.392 OA
HETATM   14  H   UNL     1     -41.151 -48.907  11.233  1.00  0.00     0.210 HD
ENDBRANCH   1  13
BRANCH   1  15
HETATM   15  C   UNL     1     -41.030 -52.094  11.819  1.00  0.00     0.168 C 
BRANCH  15  16
HETATM   16  N   UNL     1     -41.314 -52.970  12.926  1.00  0.00    -0.295 N 
HETATM   17  C   UNL     1     -40.335 -53.488  13.801  1.00  0.00     0.329 A 
HETATM   18  O   UNL     1     -39.144 -53.217  13.794  1.00  0.00    -0.246 OA
HETATM   19  N   UNL     1     -41.013 -54.366  14.671  1.00  0.00    -0.302 N 
HETATM   20  C   UNL     1     -40.408 -55.126  15.725  1.00  0.00     0.161 C 
HETATM   21  C   UNL     1     -42.361 -54.426  14.301  1.00  0.00     0.065 A 
HETATM   22  C   UNL     1     -43.397 -55.170  14.822  1.00  0.00     0.032 A 
HETATM   23  C   UNL     1     -42.548 -53.562  13.218  1.00  0.00     0.066 A 
HETATM   24  C   UNL     1     -44.653 -55.026  14.223  1.00  0.00     0.002 A 
HETATM   25  C   UNL     1     -44.842 -54.151  13.132  1.00  0.00     0.002 A 
HETATM   26  C   UNL     1     -43.779 -53.405  12.615  1.00  0.00     0.032 A 
ENDBRANCH  15  16
ENDBRANCH   1  15
TORSDOF 7
ENDMDL
MODEL 2
REMARK VINA RESULT:      -5.7      1.663      2.221
REMARK  7 active torsions:
REMARK  status: ('A' for Active; 'I' for Inactive)
REMARK    1  A    between atoms: C_2  and  C_4 
REMARK    2  A    between atoms: C_8  and  O_9 
REMARK    3  A    between atoms: O_9  and  C_10 
REMARK    4  A    between atoms: C_10  and  C_11 
REMARK    5  A    between atoms: C_11  and  O_12 
REMARK    6  A    between atoms: C_11  and  C_13 
REMARK    7  A    between atoms: C_13  and  N_14 
ROOT
HETATM    1  C   UNL     1     -41.112 -52.994  12.459  1.00  0.00     0.161 C 
ENDROOT
BRANCH   1   2
HETATM    2  C   UNL     1     -40.563 -51.612  12.838  1.00  0.00     0.209 C 
BRANCH   2   3
HETATM    3  O   UNL     1     -41.581 -50.628  12.643  1.00  0.00    -0.349 OA
BRANCH   3   4
HETATM    4  C   UNL     1     -42.605 -50.614  13.549  1.00  0.00     0.069 A 
HETATM    5  C   UNL     1     -42.251 -50.154  14.818  1.00  0.00     0.037 A 
HETATM    6  C   UNL     1     -43.205 -50.063  15.831  1.00  0.00     0.004 A 
HETATM    7  C   UNL     1     -44.528 -50.421  15.576  1.00  0.00     0.015 A 
HETATM    8  C   UNL     1     -44.897 -50.877  14.305  1.00  0.00     0.012 A 
HETATM    9  C   UNL     1     -43.926 -50.989  13.299  1.00  0.00     0.051 A 
BRANCH   8  10
HETATM   10  C   UNL     1     -46.307 -51.229  13.967  1.00  0.00     0.155 C 
HETATM   11  C   UNL     1     -46.645 -51.574  12.541  1.00  0.00     0.096 C 
HETATM   12  O   UNL     1     -47.166 -51.241  14.848  1.00  0.00    -0.293 OA
ENDBRANCH   8  10
ENDBRANCH   3   4
ENDBRANCH   2   3
ENDBRANCH   1   2
BRANCH   1  13
HETATM   13  O   UNL     1     -40.475 -53.457  11.260  1.00  0.00    -0.392 OA
HETATM   14  H   UNL     1     -40.738 -52.879  10.520  1.00  0.00     0.210 HD
ENDBRANCH   1  13
BRANCH   1  15
HETATM   15  C   UNL     1     -40.885 -53.967  13.629  1.00  0.00     0.168 C 
BRANCH  15  16
HETATM   16  N   UNL     1     -41.861 -53.821  14.677  1.00  0.00    -0.295 N 
HETATM   17  C   UNL     1     -41.549 -53.480  16.012  1.00  0.00     0.329 A 
HETATM   18  O   UNL     1     -40.443 -53.194  16.444  1.00  0.00    -0.246 OA
HETATM   19  N   UNL     1     -42.764 -53.538  16.724  1.00  0.00    -0.302 N 
HETATM   20  C   UNL     1     -42.922 -53.272  18.124  1.00  0.00     0.161 C 
HETATM   21  C   UNL     1     -43.782 -53.956  15.859  1.00  0.00     0.065 A 
HETATM   22  C   UNL     1     -45.117 -54.197  16.103  1.00  0.00     0.032 A 
HETATM   23  C   UNL     1     -43.222 -54.134  14.590  1.00  0.00     0.066 A 
HETATM   24  C   UNL     1     -45.897 -54.627  15.024  1.00  0.00     0.002 A 
HETATM   25  C   UNL     1     -45.333 -54.803  13.744  1.00  0.00     0.002 A 
HETATM   26  C   UNL     1     -43.976 -54.556  13.515  1.00  0.00     0.032 A 
ENDBRANCH  15  16
ENDBRANCH   1  15
TORSDOF 7
ENDMDL
MODEL 3
REMARK VINA RESULT:      -5.7      2.168      3.424
REMARK  7 active torsions:
REMARK  status: ('A' for Active; 'I' for Inactive)
REMARK    1  A    between atoms: C_2  and  C_4 
REMARK    2  A    between atoms: C_8  and  O_9 
REMARK    3  A    between atoms: O_9  and  C_10 
REMARK    4  A    between atoms: C_10  and  C_11 
REMARK    5  A    between atoms: C_11  and  O_12 
REMARK    6  A    between atoms: C_11  and  C_13 
REMARK    7  A    between atoms: C_13  and  N_14 
ROOT
HETATM    1  C   UNL     1     -42.125 -52.489  12.213  1.00  0.00     0.161 C 
ENDROOT
BRANCH   1   2
HETATM    2  C   UNL     1     -42.001 -51.218  13.063  1.00  0.00     0.209 C 
BRANCH   2   3
HETATM    3  O   UNL     1     -43.167 -50.412  12.882  1.00  0.00    -0.349 OA
BRANCH   3   4
HETATM    4  C   UNL     1     -44.203 -50.624  13.749  1.00  0.00     0.069 A 
HETATM    5  C   UNL     1     -45.364 -51.124  13.157  1.00  0.00     0.037 A 
HETATM    6  C   UNL     1     -46.488 -51.409  13.930  1.00  0.00     0.004 A 
HETATM    7  C   UNL     1     -46.455 -51.208  15.309  1.00  0.00     0.015 A 
HETATM    8  C   UNL     1     -45.294 -50.713  15.915  1.00  0.00     0.012 A 
HETATM    9  C   UNL     1     -44.175 -50.405  15.127  1.00  0.00     0.051 A 
BRANCH   8  10
HETATM   10  C   UNL     1     -45.191 -50.523  17.392  1.00  0.00     0.155 C 
HETATM   11  C   UNL     1     -46.406 -50.786  18.242  1.00  0.00     0.096 C 
HETATM   12  O   UNL     1     -44.125 -50.168  17.894  1.00  0.00    -0.293 OA
ENDBRANCH   8  10
ENDBRANCH   3   4
ENDBRANCH   2   3
ENDBRANCH   1   2
BRANCH   1  13
HETATM   13  O   UNL     1     -41.206 -52.429  11.113  1.00  0.00    -0.392 OA
HETATM   14  H   UNL     1     -40.700 -53.262  11.080  1.00  0.00     0.210 HD
ENDBRANCH   1  13
BRANCH   1  15
HETATM   15  C   UNL     1     -41.861 -53.719  13.100  1.00  0.00     0.168 C 
BRANCH  15  16
HETATM   16  N   UNL     1     -42.973 -54.041  13.955  1.00  0.00    -0.295 N 
HETATM   17  C   UNL     1     -44.253 -54.412  13.489  1.00  0.00     0.329 A 
HETATM   18  O   UNL     1     -44.575 -54.583  12.323  1.00  0.00    -0.246 OA
HETATM   19  N   UNL     1     -45.064 -54.544  14.635  1.00  0.00    -0.302 N 
HETATM   20  C   UNL     1     -46.452 -54.904  14.636  1.00  0.00     0.161 C 
HETATM   21  C   UNL     1     -44.313 -54.208  15.767  1.00  0.00     0.065 A 
HETATM   22  C   UNL     1     -44.679 -54.148  17.094  1.00  0.00     0.032 A 
HETATM   23  C   UNL     1     -43.018 -53.894  15.347  1.00  0.00     0.066 A 
HETATM   24  C   UNL     1     -43.698 -53.758  18.012  1.00  0.00     0.002 A 
HETATM   25  C   UNL     1     -42.389 -53.445  17.587  1.00  0.00     0.002 A 
HETATM   26  C   UNL     1     -42.036 -53.510  16.236  1.00  0.00     0.032 A 
ENDBRANCH  15  16
ENDBRANCH   1  15
TORSDOF 7
ENDMDL
MODEL 4
REMARK VINA RESULT:      -5.7      1.810      3.829
REMARK  7 active torsions:
REMARK  status: ('A' for Active; 'I' for Inactive)
REMARK    1  A    between atoms: C_2  and  C_4 
REMARK    2  A    between atoms: C_8  and  O_9 
REMARK    3  A    between atoms: O_9  and  C_10 
REMARK    4  A    between atoms: C_10  and  C_11 
REMARK    5  A    between atoms: C_11  and  O_12 
REMARK    6  A    between atoms: C_11  and  C_13 
REMARK    7  A    between atoms: C_13  and  N_14 
ROOT
HETATM    1  C   UNL     1     -40.859 -50.674  11.770  1.00  0.00     0.161 C 
ENDROOT
BRANCH   1   2
HETATM    2  C   UNL     1     -41.351 -52.124  11.683  1.00  0.00     0.209 C 
BRANCH   2   3
HETATM    3  O   UNL     1     -40.495 -52.962  12.463  1.00  0.00    -0.349 OA
BRANCH   3   4
HETATM    4  C   UNL     1     -41.081 -53.664  13.479  1.00  0.00     0.069 A 
HETATM    5  C   UNL     1     -40.190 -54.160  14.433  1.00  0.00     0.037 A 
HETATM    6  C   UNL     1     -40.657 -54.873  15.536  1.00  0.00     0.004 A 
HETATM    7  C   UNL     1     -42.025 -55.085  15.701  1.00  0.00     0.015 A 
HETATM    8  C   UNL     1     -42.928 -54.588  14.755  1.00  0.00     0.012 A 
HETATM    9  C   UNL     1     -42.449 -53.893  13.635  1.00  0.00     0.051 A 
BRANCH   8  10
HETATM   10  C   UNL     1     -44.404 -54.748  14.908  1.00  0.00     0.155 C 
HETATM   11  C   UNL     1     -45.235 -55.014  13.680  1.00  0.00     0.096 C 
HETATM   12  O   UNL     1     -44.920 -54.671  16.023  1.00  0.00    -0.293 OA
ENDBRANCH   8  10
ENDBRANCH   3   4
ENDBRANCH   2   3
ENDBRANCH   1   2
BRANCH   1  13
HETATM   13  O   UNL     1     -40.262 -50.288  10.524  1.00  0.00    -0.392 OA
HETATM   14  H   UNL     1     -39.834 -49.419  10.636  1.00  0.00     0.210 HD
ENDBRANCH   1  13
BRANCH   1  15
HETATM   15  C   UNL     1     -42.042 -49.760  12.134  1.00  0.00     0.168 C 
BRANCH  15  16
HETATM   16  N   UNL     1     -42.500 -49.947  13.486  1.00  0.00    -0.295 N 
HETATM   17  C   UNL     1     -41.693 -49.769  14.631  1.00  0.00     0.329 A 
HETATM   18  O   UNL     1     -40.540 -49.366  14.645  1.00  0.00    -0.246 OA
HETATM   19  N   UNL     1     -42.489 -50.144  15.732  1.00  0.00    -0.302 N 
HETATM   20  C   UNL     1     -42.072 -50.129  17.104  1.00  0.00     0.161 C 
HETATM   21  C   UNL     1     -43.730 -50.593  15.268  1.00  0.00     0.065 A 
HETATM   22  C   UNL     1     -44.812 -51.095  15.958  1.00  0.00     0.032 A 
HETATM   23  C   UNL     1     -43.737 -50.474  13.875  1.00  0.00     0.066 A 
HETATM   24  C   UNL     1     -45.927 -51.482  15.207  1.00  0.00     0.002 A 
HETATM   25  C   UNL     1     -45.935 -51.358  13.801  1.00  0.00     0.002 A 
HETATM   26  C   UNL     1     -44.828 -50.848  13.117  1.00  0.00     0.032 A 
ENDBRANCH  15  16
ENDBRANCH   1  15
TORSDOF 7
ENDMDL
MODEL 5
REMARK VINA RESULT:      -5.6      2.206      4.379
REMARK  7 active torsions:
REMARK  status: ('A' for Active; 'I' for Inactive)
REMARK    1  A    between atoms: C_2  and  C_4 
REMARK    2  A    between atoms: C_8  and  O_9 
REMARK    3  A    between atoms: O_9  and  C_10 
REMARK    4  A    between atoms: C_10  and  C_11 
REMARK    5  A    between atoms: C_11  and  O_12 
REMARK    6  A    between atoms: C_11  and  C_13 
REMARK    7  A    between atoms: C_13  and  N_14 
ROOT
HETATM    1  C   UNL     1     -41.157 -53.756  13.013  1.00  0.00     0.161 C 
ENDROOT
BRANCH   1   2
HETATM    2  C   UNL     1     -42.681 -53.879  13.127  1.00  0.00     0.209 C 
BRANCH   2   3
HETATM    3  O   UNL     1     -43.116 -53.270  14.344  1.00  0.00    -0.349 OA
BRANCH   3   4
HETATM    4  C   UNL     1     -44.328 -52.637  14.318  1.00  0.00     0.069 A 
HETATM    5  C   UNL     1     -44.866 -52.465  13.041  1.00  0.00     0.037 A 
HETATM    6  C   UNL     1     -46.109 -51.857  12.871  1.00  0.00     0.004 A 
HETATM    7  C   UNL     1     -46.832 -51.427  13.983  1.00  0.00     0.015 A 
HETATM    8  C   UNL     1     -46.305 -51.600  15.269  1.00  0.00     0.012 A 
HETATM    9  C   UNL     1     -45.043 -52.190  15.429  1.00  0.00     0.051 A 
BRANCH   8  10
HETATM   10  C   UNL     1     -47.058 -51.199  16.493  1.00  0.00     0.155 C 
HETATM   11  C   UNL     1     -46.355 -50.370  17.536  1.00  0.00     0.096 C 
HETATM   12  O   UNL     1     -48.233 -51.537  16.633  1.00  0.00    -0.293 OA
ENDBRANCH   8  10
ENDBRANCH   3   4
ENDBRANCH   2   3
ENDBRANCH   1   2
BRANCH   1  13
HETATM   13  O   UNL     1     -40.781 -53.626  11.635  1.00  0.00    -0.392 OA
HETATM   14  H   UNL     1     -39.995 -54.179  11.469  1.00  0.00     0.210 HD
ENDBRANCH   1  13
BRANCH   1  15
HETATM   15  C   UNL     1     -40.683 -52.548  13.841  1.00  0.00     0.168 C 
BRANCH  15  16
HETATM   16  N   UNL     1     -40.181 -51.473  13.026  1.00  0.00    -0.295 N 
HETATM   17  C   UNL     1     -38.819 -51.289  12.704  1.00  0.00     0.329 A 
HETATM   18  O   UNL     1     -37.900 -52.039  12.999  1.00  0.00    -0.246 OA
HETATM   19  N   UNL     1     -38.747 -50.081  11.981  1.00  0.00    -0.302 N 
HETATM   20  C   UNL     1     -37.549 -49.495  11.455  1.00  0.00     0.161 C 
HETATM   21  C   UNL     1     -40.024 -49.513  11.912  1.00  0.00     0.065 A 
HETATM   22  C   UNL     1     -40.444 -48.328  11.349  1.00  0.00     0.032 A 
HETATM   23  C   UNL     1     -40.914 -50.374  12.562  1.00  0.00     0.066 A 
HETATM   24  C   UNL     1     -41.804 -48.016  11.452  1.00  0.00     0.002 A 
HETATM   25  C   UNL     1     -42.701 -48.887  12.105  1.00  0.00     0.002 A 
HETATM   26  C   UNL     1     -42.258 -50.085  12.672  1.00  0.00     0.032 A 
ENDBRANCH  15  16
ENDBRANCH   1  15
TORSDOF 7
ENDMDL
MODEL 6
REMARK VINA RESULT:      -5.6      3.243      5.329
REMARK  7 active torsions:
REMARK  status: ('A' for Active; 'I' for Inactive)
REMARK    1  A    between atoms: C_2  and  C_4 
REMARK    2  A    between atoms: C_8  and  O_9 
REMARK    3  A    between atoms: O_9  and  C_10 
REMARK    4  A    between atoms: C_10  and  C_11 
REMARK    5  A    between atoms: C_11  and  O_12 
REMARK    6  A    between atoms: C_11  and  C_13 
REMARK    7  A    between atoms: C_13  and  N_14 
ROOT
HETATM    1  C   UNL     1     -42.474 -50.723  12.993  1.00  0.00     0.161 C 
ENDROOT
BRANCH   1   2
HETATM    2  C   UNL     1     -41.298 -49.776  12.724  1.00  0.00     0.209 C 
BRANCH   2   3
HETATM    3  O   UNL     1     -41.240 -49.479  11.327  1.00  0.00    -0.349 OA
BRANCH   3   4
HETATM    4  C   UNL     1     -41.393 -48.168  10.969  1.00  0.00     0.069 A 
HETATM    5  C   UNL     1     -40.285 -47.361  11.230  1.00  0.00     0.037 A 
HETATM    6  C   UNL     1     -40.297 -46.009  10.892  1.00  0.00     0.004 A 
HETATM    7  C   UNL     1     -41.417 -45.455  10.274  1.00  0.00     0.015 A 
HETATM    8  C   UNL     1     -42.532 -46.256  10.001  1.00  0.00     0.012 A 
HETATM    9  C   UNL     1     -42.522 -47.610  10.367  1.00  0.00     0.051 A 
BRANCH   8  10
HETATM   10  C   UNL     1     -43.738 -45.723   9.300  1.00  0.00     0.155 C 
HETATM   11  C   UNL     1     -44.817 -46.688   8.882  1.00  0.00     0.096 C 
HETATM   12  O   UNL     1     -43.841 -44.517   9.083  1.00  0.00    -0.293 OA
ENDBRANCH   8  10
ENDBRANCH   3   4
ENDBRANCH   2   3
ENDBRANCH   1   2
BRANCH   1  13
HETATM   13  O   UNL     1     -43.688 -50.144  12.494  1.00  0.00    -0.392 OA
HETATM   14  H   UNL     1     -43.639 -50.100  11.522  1.00  0.00     0.210 HD
ENDBRANCH   1  13
BRANCH   1  15
HETATM   15  C   UNL     1     -42.188 -52.085  12.336  1.00  0.00     0.168 C 
BRANCH  15  16
HETATM   16  N   UNL     1     -42.813 -53.182  13.027  1.00  0.00    -0.295 N 
HETATM   17  C   UNL     1     -44.158 -53.573  12.846  1.00  0.00     0.329 A 
HETATM   18  O   UNL     1     -44.946 -53.098  12.043  1.00  0.00    -0.246 OA
HETATM   19  N   UNL     1     -44.390 -54.612  13.770  1.00  0.00    -0.302 N 
HETATM   20  C   UNL     1     -45.631 -55.309  13.944  1.00  0.00     0.161 C 
HETATM   21  C   UNL     1     -43.235 -54.812  14.534  1.00  0.00     0.065 A 
HETATM   22  C   UNL     1     -42.995 -55.679  15.578  1.00  0.00     0.032 A 
HETATM   23  C   UNL     1     -42.257 -53.924  14.076  1.00  0.00     0.066 A 
HETATM   24  C   UNL     1     -41.725 -55.639  16.164  1.00  0.00     0.002 A 
HETATM   25  C   UNL     1     -40.737 -54.746  15.698  1.00  0.00     0.002 A 
HETATM   26  C   UNL     1     -40.999 -53.872  14.639  1.00  0.00     0.032 A 
ENDBRANCH  15  16
ENDBRANCH   1  15
TORSDOF 7
ENDMDL
MODEL 7
REMARK VINA RESULT:      -5.6      3.055      4.749
REMARK  7 active torsions:
REMARK  status: ('A' for Active; 'I' for Inactive)
REMARK    1  A    between atoms: C_2  and  C_4 
REMARK    2  A    between atoms: C_8  and  O_9 
REMARK    3  A    between atoms: O_9  and  C_10 
REMARK    4  A    between atoms: C_10  and  C_11 
REMARK    5  A    between atoms: C_11  and  O_12 
REMARK    6  A    between atoms: C_11  and  C_13 
REMARK    7  A    between atoms: C_13  and  N_14 
ROOT
HETATM    1  C   UNL     1     -41.234 -50.620  12.081  1.00  0.00     0.161 C 
ENDROOT
BRANCH   1   2
HETATM    2  C   UNL     1     -40.489 -49.790  11.029  1.00  0.00     0.209 C 
BRANCH   2   3
HETATM    3  O   UNL     1     -40.004 -48.587  11.631  1.00  0.00    -0.349 OA
BRANCH   3   4
HETATM    4  C   UNL     1     -40.723 -47.448  11.395  1.00  0.00     0.069 A 
HETATM    5  C   UNL     1     -40.356 -46.356  12.184  1.00  0.00     0.037 A 
HETATM    6  C   UNL     1     -40.991 -45.125  12.029  1.00  0.00     0.004 A 
HETATM    7  C   UNL     1     -41.992 -44.972  11.070  1.00  0.00     0.015 A 
HETATM    8  C   UNL     1     -42.364 -46.058  10.269  1.00  0.00     0.012 A 
HETATM    9  C   UNL     1     -41.738 -47.301  10.448  1.00  0.00     0.051 A 
BRANCH   8  10
HETATM   10  C   UNL     1     -43.396 -45.936   9.198  1.00  0.00     0.155 C 
HETATM   11  C   UNL     1     -43.844 -47.182   8.480  1.00  0.00     0.096 C 
HETATM   12  O   UNL     1     -43.871 -44.835   8.923  1.00  0.00    -0.293 OA
ENDBRANCH   8  10
ENDBRANCH   3   4
ENDBRANCH   2   3
ENDBRANCH   1   2
BRANCH   1  13
HETATM   13  O   UNL     1     -42.613 -50.228  12.122  1.00  0.00    -0.392 OA
HETATM   14  H   UNL     1     -42.721 -49.526  12.789  1.00  0.00     0.210 HD
ENDBRANCH   1  13
BRANCH   1  15
HETATM   15  C   UNL     1     -41.083 -52.115  11.746  1.00  0.00     0.168 C 
BRANCH  15  16
HETATM   16  N   UNL     1     -41.282 -52.968  12.888  1.00  0.00    -0.295 N 
HETATM   17  C   UNL     1     -40.245 -53.425  13.730  1.00  0.00     0.329 A 
HETATM   18  O   UNL     1     -39.066 -53.110  13.659  1.00  0.00    -0.246 OA
HETATM   19  N   UNL     1     -40.848 -54.302  14.653  1.00  0.00    -0.302 N 
HETATM   20  C   UNL     1     -40.166 -55.009  15.698  1.00  0.00     0.161 C 
HETATM   21  C   UNL     1     -42.208 -54.422  14.349  1.00  0.00     0.065 A 
HETATM   22  C   UNL     1     -43.190 -55.188  14.939  1.00  0.00     0.032 A 
HETATM   23  C   UNL     1     -42.478 -53.597  13.253  1.00  0.00     0.066 A 
HETATM   24  C   UNL     1     -44.477 -55.108  14.396  1.00  0.00     0.002 A 
HETATM   25  C   UNL     1     -44.750 -54.273  13.292  1.00  0.00     0.002 A 
HETATM   26  C   UNL     1     -43.741 -53.503  12.706  1.00  0.00     0.032 A 
ENDBRANCH  15  16
ENDBRANCH   1  15
TORSDOF 7
ENDMDL
MODEL 8
REMARK VINA RESULT:      -5.5      3.619      4.831
REMARK  7 active torsions:
REMARK  status: ('A' for Active; 'I' for Inactive)
REMARK    1  A    between atoms: C_2  and  C_4 
REMARK    2  A    between atoms: C_8  and  O_9 
REMARK    3  A    between atoms: O_9  and  C_10 
REMARK    4  A    between atoms: C_10  and  C_11 
REMARK    5  A    between atoms: C_11  and  O_12 
REMARK    6  A    between atoms: C_11  and  C_13 
REMARK    7  A    between atoms: C_13  and  N_14 
ROOT
HETATM    1  C   UNL     1     -41.564 -50.429  11.886  1.00  0.00     0.161 C 
ENDROOT
BRANCH   1   2
HETATM    2  C   UNL     1     -41.386 -48.997  11.365  1.00  0.00     0.209 C 
BRANCH   2   3
HETATM    3  O   UNL     1     -42.467 -48.186  11.829  1.00  0.00    -0.349 OA
BRANCH   3   4
HETATM    4  C   UNL     1     -43.203 -47.538  10.876  1.00  0.00     0.069 A 
HETATM    5  C   UNL     1     -42.599 -46.393  10.354  1.00  0.00     0.037 A 
HETATM    6  C   UNL     1     -43.230 -45.650   9.357  1.00  0.00     0.004 A 
HETATM    7  C   UNL     1     -44.469 -46.057   8.863  1.00  0.00     0.015 A 
HETATM    8  C   UNL     1     -45.081 -47.207   9.374  1.00  0.00     0.012 A 
HETATM    9  C   UNL     1     -44.452 -47.935  10.395  1.00  0.00     0.051 A 
BRANCH   8  10
HETATM   10  C   UNL     1     -46.384 -47.711   8.849  1.00  0.00     0.155 C 
HETATM   11  C   UNL     1     -46.382 -48.914   7.943  1.00  0.00     0.096 C 
HETATM   12  O   UNL     1     -47.433 -47.150   9.163  1.00  0.00    -0.293 OA
ENDBRANCH   8  10
ENDBRANCH   3   4
ENDBRANCH   2   3
ENDBRANCH   1   2
BRANCH   1  13
HETATM   13  O   UNL     1     -40.371 -51.187  11.640  1.00  0.00    -0.392 OA
HETATM   14  H   UNL     1     -40.613 -52.015  11.186  1.00  0.00     0.210 HD
ENDBRANCH   1  13
BRANCH   1  15
HETATM   15  C   UNL     1     -41.902 -50.382  13.387  1.00  0.00     0.168 C 
BRANCH  15  16
HETATM   16  N   UNL     1     -42.581 -51.566  13.845  1.00  0.00    -0.295 N 
HETATM   17  C   UNL     1     -41.929 -52.752  14.245  1.00  0.00     0.329 A 
HETATM   18  O   UNL     1     -40.721 -52.918  14.332  1.00  0.00    -0.246 OA
HETATM   19  N   UNL     1     -42.949 -53.685  14.522  1.00  0.00    -0.302 N 
HETATM   20  C   UNL     1     -42.745 -55.036  14.958  1.00  0.00     0.161 C 
HETATM   21  C   UNL     1     -44.190 -53.102  14.244  1.00  0.00     0.065 A 
HETATM   22  C   UNL     1     -45.460 -53.629  14.321  1.00  0.00     0.032 A 
HETATM   23  C   UNL     1     -43.963 -51.789  13.822  1.00  0.00     0.066 A 
HETATM   24  C   UNL     1     -46.523 -52.795  13.959  1.00  0.00     0.002 A 
HETATM   25  C   UNL     1     -46.294 -51.469  13.536  1.00  0.00     0.002 A 
HETATM   26  C   UNL     1     -44.998 -50.950  13.463  1.00  0.00     0.032 A 
ENDBRANCH  15  16
ENDBRANCH   1  15
TORSDOF 7
ENDMDL
MODEL 9
REMARK VINA RESULT:      -5.5      3.940      6.435
REMARK  7 active torsions:
REMARK  status: ('A' for Active; 'I' for Inactive)
REMARK    1  A    between atoms: C_2  and  C_4 
REMARK    2  A    between atoms: C_8  and  O_9 
REMARK    3  A    between atoms: O_9  and  C_10 
REMARK    4  A    between atoms: C_10  and  C_11 
REMARK    5  A    between atoms: C_11  and  O_12 
REMARK    6  A    between atoms: C_11  and  C_13 
REMARK    7  A    between atoms: C_13  and  N_14 
ROOT
HETATM    1  C   UNL     1     -40.280 -49.450  11.568  1.00  0.00     0.161 C 
ENDROOT
BRANCH   1   2
HETATM    2  C   UNL     1     -39.850 -50.496  12.604  1.00  0.00     0.209 C 
BRANCH   2   3
HETATM    3  O   UNL     1     -40.013 -51.804  12.052  1.00  0.00    -0.349 OA
BRANCH   3   4
HETATM    4  C   UNL     1     -40.898 -52.633  12.684  1.00  0.00     0.069 A 
HETATM    5  C   UNL     1     -40.336 -53.436  13.677  1.00  0.00     0.037 A 
HETATM    6  C   UNL     1     -41.132 -54.310  14.418  1.00  0.00     0.004 A 
HETATM    7  C   UNL     1     -42.503 -54.377  14.177  1.00  0.00     0.015 A 
HETATM    8  C   UNL     1     -43.080 -53.572  13.187  1.00  0.00     0.012 A 
HETATM    9  C   UNL     1     -42.269 -52.714  12.430  1.00  0.00     0.051 A 
BRANCH   8  10
HETATM   10  C   UNL     1     -44.548 -53.572  12.922  1.00  0.00     0.155 C 
HETATM   11  C   UNL     1     -45.273 -52.253  12.861  1.00  0.00     0.096 C 
HETATM   12  O   UNL     1     -45.143 -54.635  12.749  1.00  0.00    -0.293 OA
ENDBRANCH   8  10
ENDBRANCH   3   4
ENDBRANCH   2   3
ENDBRANCH   1   2
BRANCH   1  13
HETATM   13  O   UNL     1     -40.487 -50.082  10.297  1.00  0.00    -0.392 OA
HETATM   14  H   UNL     1     -39.898 -49.669   9.640  1.00  0.00     0.210 HD
ENDBRANCH   1  13
BRANCH   1  15
HETATM   15  C   UNL     1     -41.556 -48.745  12.060  1.00  0.00     0.168 C 
BRANCH  15  16
HETATM   16  N   UNL     1     -41.731 -47.437  11.486  1.00  0.00    -0.295 N 
HETATM   17  C   UNL     1     -40.979 -46.300  11.854  1.00  0.00     0.329 A 
HETATM   18  O   UNL     1     -40.044 -46.277  12.639  1.00  0.00    -0.246 OA
HETATM   19  N   UNL     1     -41.526 -45.219  11.133  1.00  0.00    -0.302 N 
HETATM   20  C   UNL     1     -41.076 -43.860  11.202  1.00  0.00     0.161 C 
HETATM   21  C   UNL     1     -42.619 -45.674  10.387  1.00  0.00     0.065 A 
HETATM   22  C   UNL     1     -43.488 -44.986   9.567  1.00  0.00     0.032 A 
HETATM   23  C   UNL     1     -42.749 -47.048  10.607  1.00  0.00     0.066 A 
HETATM   24  C   UNL     1     -44.510 -45.721   8.957  1.00  0.00     0.002 A 
HETATM   25  C   UNL     1     -44.638 -47.109   9.176  1.00  0.00     0.002 A 
HETATM   26  C   UNL     1     -43.749 -47.790  10.013  1.00  0.00     0.032 A 
ENDBRANCH  15  16
ENDBRANCH   1  15
TORSDOF 7
ENDMDL
