MODEL 1
REMARK VINA RESULT:      -6.3      0.000      0.000
REMARK  4 active torsions:
REMARK  status: ('A' for Active; 'I' for Inactive)
REMARK    1  A    between atoms: C_2  and  C_3 
REMARK    2  A    between atoms: C_7  and  C_8 
REMARK    3  A    between atoms: C_8  and  C_9 
REMARK    4  A    between atoms: C_9  and  N_10 
REMARK       I    between atoms: N_10  and  C_11 
REMARK       I    between atoms: C_11  and  N_13 
ROOT
HETATM    1  N   UNL     1     -42.283 -50.622  12.250  1.00  0.00    -0.343 N 
HETATM    2  C   UNL     1     -42.173 -51.723  13.058  1.00  0.00     0.318 C 
HETATM    3  O   UNL     1     -41.127 -52.361  13.127  1.00  0.00    -0.247 OA
HETATM    4  N   UNL     1     -43.320 -52.097  13.745  1.00  0.00    -0.332 N 
HETATM    5  C   UNL     1     -44.630 -51.443  13.637  1.00  0.00     0.147 C 
HETATM    6  C   UNL     1     -45.527 -52.156  12.621  1.00  0.00     0.142 C 
HETATM    7  N   UNL     1     -46.179 -53.313  13.212  1.00  0.00    -0.359 N 
HETATM    8  C   UNL     1     -45.553 -54.359  13.824  1.00  0.00     0.219 C 
HETATM    9  O   UNL     1     -46.212 -55.157  14.485  1.00  0.00    -0.274 OA
HETATM   10  C   UNL     1     -44.053 -54.484  13.670  1.00  0.00     0.122 C 
HETATM   11  C   UNL     1     -43.312 -53.395  14.437  1.00  0.00     0.136 C 
HETATM   12  H   UNL     1     -43.008 -49.946  12.438  1.00  0.00     0.164 HD
HETATM   13  H   UNL     1     -47.177 -53.279  13.384  1.00  0.00     0.162 HD
ENDROOT
BRANCH   1  14
HETATM   14  C   UNL     1     -41.121 -50.051  11.588  1.00  0.00     0.131 C 
BRANCH  14  15
HETATM   15  C   UNL     1     -41.229 -48.539  11.414  1.00  0.00     0.084 C 
BRANCH  15  16
HETATM   16  C   UNL     1     -42.273 -48.138  10.413  1.00  0.00     0.052 A 
HETATM   17  N   UNL     1     -42.134 -48.238   9.106  1.00  0.00    -0.363 N 
HETATM   18  C   UNL     1     -43.227 -47.665   8.479  1.00  0.00     0.103 A 
ATOM     19  HN  UNL     1     -41.343 -48.671   8.630  1.00  0.00     0.165 HD
HETATM   20  C   UNL     1     -44.203 -47.159   9.314  1.00  0.00    -0.001 A 
HETATM   21  S   UNL     1     -43.748 -47.427  10.944  1.00  0.00    -0.080 SA
BRANCH  20  22
HETATM   22  C   UNL     1     -45.473 -46.452   8.966  1.00  0.00     0.043 C 
HETATM   23  C   UNL     1     -46.688 -47.355   9.102  1.00  0.00     0.010 C 
ENDBRANCH  20  22
ENDBRANCH  15  16
ENDBRANCH  14  15
ENDBRANCH   1  14
TORSDOF 4
ENDMDL
MODEL 2
REMARK VINA RESULT:      -6.0      3.104      6.757
REMARK  4 active torsions:
REMARK  status: ('A' for Active; 'I' for Inactive)
REMARK    1  A    between atoms: C_2  and  C_3 
REMARK    2  A    between atoms: C_7  and  C_8 
REMARK    3  A    between atoms: C_8  and  C_9 
REMARK    4  A    between atoms: C_9  and  N_10 
REMARK       I    between atoms: N_10  and  C_11 
REMARK       I    between atoms: C_11  and  N_13 
ROOT
HETATM    1  N   UNL     1     -41.329 -50.073  11.357  1.00  0.00    -0.343 N 
HETATM    2  C   UNL     1     -40.581 -48.926  11.391  1.00  0.00     0.318 C 
HETATM    3  O   UNL     1     -39.565 -48.848  12.076  1.00  0.00    -0.247 OA
HETATM    4  N   UNL     1     -41.065 -47.856  10.653  1.00  0.00    -0.332 N 
HETATM    5  C   UNL     1     -42.320 -47.843   9.890  1.00  0.00     0.147 C 
HETATM    6  C   UNL     1     -43.463 -47.238  10.709  1.00  0.00     0.142 C 
HETATM    7  N   UNL     1     -43.443 -45.786  10.654  1.00  0.00    -0.359 N 
HETATM    8  C   UNL     1     -42.392 -44.987  10.996  1.00  0.00     0.219 C 
HETATM    9  O   UNL     1     -42.410 -43.797  10.691  1.00  0.00    -0.274 OA
HETATM   10  C   UNL     1     -41.230 -45.611  11.738  1.00  0.00     0.122 C 
HETATM   11  C   UNL     1     -40.423 -46.545  10.844  1.00  0.00     0.136 C 
HETATM   12  H   UNL     1     -41.950 -50.230  10.578  1.00  0.00     0.164 HD
HETATM   13  H   UNL     1     -44.168 -45.304  10.134  1.00  0.00     0.162 HD
ENDROOT
BRANCH   1  14
HETATM   14  C   UNL     1     -40.857 -51.302  11.975  1.00  0.00     0.131 C 
BRANCH  14  15
HETATM   15  C   UNL     1     -41.484 -51.549  13.344  1.00  0.00     0.084 C 
BRANCH  15  16
HETATM   16  C   UNL     1     -42.939 -51.911  13.267  1.00  0.00     0.052 A 
HETATM   17  N   UNL     1     -43.462 -52.716  12.363  1.00  0.00    -0.363 N 
HETATM   18  C   UNL     1     -44.839 -52.732  12.500  1.00  0.00     0.103 A 
ATOM     19  HN  UNL     1     -42.933 -53.245  11.670  1.00  0.00     0.165 HD
HETATM   20  C   UNL     1     -45.351 -51.963  13.526  1.00  0.00    -0.001 A 
HETATM   21  S   UNL     1     -44.063 -51.205  14.363  1.00  0.00    -0.080 SA
BRANCH  20  22
HETATM   22  C   UNL     1     -46.776 -51.734  13.916  1.00  0.00     0.043 C 
HETATM   23  C   UNL     1     -46.914 -51.350  15.380  1.00  0.00     0.010 C 
ENDBRANCH  20  22
ENDBRANCH  15  16
ENDBRANCH  14  15
ENDBRANCH   1  14
TORSDOF 4
ENDMDL
MODEL 3
REMARK VINA RESULT:      -5.9      2.446      3.037
REMARK  4 active torsions:
REMARK  status: ('A' for Active; 'I' for Inactive)
REMARK    1  A    between atoms: C_2  and  C_3 
REMARK    2  A    between atoms: C_7  and  C_8 
REMARK    3  A    between atoms: C_8  and  C_9 
REMARK    4  A    between atoms: C_9  and  N_10 
REMARK       I    between atoms: N_10  and  C_11 
REMARK       I    between atoms: C_11  and  N_13 
ROOT
HETATM    1  N   UNL     1     -43.092 -49.865  12.354  1.00  0.00    -0.343 N 
HETATM    2  C   UNL     1     -42.684 -51.044  12.919  1.00  0.00     0.318 C 
HETATM    3  O   UNL     1     -41.551 -51.479  12.736  1.00  0.00    -0.247 OA
HETATM    4  N   UNL     1     -43.635 -51.732  13.659  1.00  0.00    -0.332 N 
HETATM    5  C   UNL     1     -45.035 -51.323  13.839  1.00  0.00     0.147 C 
HETATM    6  C   UNL     1     -45.952 -52.013  12.826  1.00  0.00     0.142 C 
HETATM    7  N   UNL     1     -46.311 -53.352  13.262  1.00  0.00    -0.359 N 
HETATM    8  C   UNL     1     -45.438 -54.350  13.584  1.00  0.00     0.219 C 
HETATM    9  O   UNL     1     -45.851 -55.355  14.157  1.00  0.00    -0.274 OA
HETATM   10  C   UNL     1     -43.980 -54.168  13.224  1.00  0.00     0.122 C 
HETATM   11  C   UNL     1     -43.313 -53.103  14.086  1.00  0.00     0.136 C 
HETATM   12  H   UNL     1     -43.878 -49.375  12.755  1.00  0.00     0.164 HD
HETATM   13  H   UNL     1     -47.263 -53.532  13.560  1.00  0.00     0.162 HD
ENDROOT
BRANCH   1  14
HETATM   14  C   UNL     1     -42.153 -48.987  11.674  1.00  0.00     0.131 C 
BRANCH  14  15
HETATM   15  C   UNL     1     -42.826 -47.749  11.088  1.00  0.00     0.084 C 
BRANCH  15  16
HETATM   16  C   UNL     1     -41.885 -46.590  10.928  1.00  0.00     0.052 A 
HETATM   17  N   UNL     1     -40.691 -46.667  10.374  1.00  0.00    -0.363 N 
HETATM   18  C   UNL     1     -40.043 -45.451  10.502  1.00  0.00     0.103 A 
ATOM     19  HN  UNL     1     -40.305 -47.495   9.920  1.00  0.00     0.165 HD
HETATM   20  C   UNL     1     -40.759 -44.449  11.126  1.00  0.00    -0.001 A 
HETATM   21  S   UNL     1     -42.309 -45.043  11.552  1.00  0.00    -0.080 SA
BRANCH  20  22
HETATM   22  C   UNL     1     -40.343 -43.052  11.454  1.00  0.00     0.043 C 
HETATM   23  C   UNL     1     -40.749 -42.648  12.862  1.00  0.00     0.010 C 
ENDBRANCH  20  22
ENDBRANCH  15  16
ENDBRANCH  14  15
ENDBRANCH   1  14
TORSDOF 4
ENDMDL
MODEL 4
REMARK VINA RESULT:      -5.7      3.445      6.699
REMARK  4 active torsions:
REMARK  status: ('A' for Active; 'I' for Inactive)
REMARK    1  A    between atoms: C_2  and  C_3 
REMARK    2  A    between atoms: C_7  and  C_8 
REMARK    3  A    between atoms: C_8  and  C_9 
REMARK    4  A    between atoms: C_9  and  N_10 
REMARK       I    between atoms: N_10  and  C_11 
REMARK       I    between atoms: C_11  and  N_13 
ROOT
HETATM    1  N   UNL     1     -40.622 -51.645  13.119  1.00  0.00    -0.343 N 
HETATM    2  C   UNL     1     -39.801 -50.587  13.408  1.00  0.00     0.318 C 
HETATM    3  O   UNL     1     -39.369 -50.407  14.543  1.00  0.00    -0.247 OA
HETATM    4  N   UNL     1     -39.533 -49.714  12.363  1.00  0.00    -0.332 N 
HETATM    5  C   UNL     1     -40.091 -49.809  11.008  1.00  0.00     0.147 C 
HETATM    6  C   UNL     1     -41.334 -48.929  10.854  1.00  0.00     0.142 C 
HETATM    7  N   UNL     1     -40.974 -47.547  10.583  1.00  0.00    -0.359 N 
HETATM    8  C   UNL     1     -40.164 -46.765  11.354  1.00  0.00     0.219 C 
HETATM    9  O   UNL     1     -39.748 -45.699  10.908  1.00  0.00    -0.274 OA
HETATM   10  C   UNL     1     -39.800 -47.257  12.737  1.00  0.00     0.122 C 
HETATM   11  C   UNL     1     -38.852 -48.449  12.683  1.00  0.00     0.136 C 
HETATM   12  H   UNL     1     -40.704 -51.954  12.162  1.00  0.00     0.164 HD
HETATM   13  H   UNL     1     -41.149 -47.166   9.660  1.00  0.00     0.162 HD
ENDROOT
BRANCH   1  14
HETATM   14  C   UNL     1     -40.864 -52.701  14.088  1.00  0.00     0.131 C 
BRANCH  14  15
HETATM   15  C   UNL     1     -41.757 -53.809  13.538  1.00  0.00     0.084 C 
BRANCH  15  16
HETATM   16  C   UNL     1     -43.191 -53.389  13.391  1.00  0.00     0.052 A 
HETATM   17  N   UNL     1     -43.955 -53.686  12.359  1.00  0.00    -0.363 N 
HETATM   18  C   UNL     1     -45.172 -53.039  12.484  1.00  0.00     0.103 A 
ATOM     19  HN  UNL     1     -43.690 -54.297  11.587  1.00  0.00     0.165 HD
HETATM   20  C   UNL     1     -45.337 -52.280  13.625  1.00  0.00    -0.001 A 
HETATM   21  S   UNL     1     -43.924 -52.392  14.587  1.00  0.00    -0.080 SA
BRANCH  20  22
HETATM   22  C   UNL     1     -46.499 -51.437  14.042  1.00  0.00     0.043 C 
HETATM   23  C   UNL     1     -47.089 -51.891  15.368  1.00  0.00     0.010 C 
ENDBRANCH  20  22
ENDBRANCH  15  16
ENDBRANCH  14  15
ENDBRANCH   1  14
TORSDOF 4
ENDMDL
MODEL 5
REMARK VINA RESULT:      -5.6      2.629      3.012
REMARK  4 active torsions:
REMARK  status: ('A' for Active; 'I' for Inactive)
REMARK    1  A    between atoms: C_2  and  C_3 
REMARK    2  A    between atoms: C_7  and  C_8 
REMARK    3  A    between atoms: C_8  and  C_9 
REMARK    4  A    between atoms: C_9  and  N_10 
REMARK       I    between atoms: N_10  and  C_11 
REMARK       I    between atoms: C_11  and  N_13 
ROOT
HETATM    1  N   UNL     1     -39.958 -51.344  13.475  1.00  0.00    -0.343 N 
HETATM    2  C   UNL     1     -40.606 -52.547  13.375  1.00  0.00     0.318 C 
HETATM    3  O   UNL     1     -40.055 -53.528  12.885  1.00  0.00    -0.247 OA
HETATM    4  N   UNL     1     -41.923 -52.572  13.810  1.00  0.00    -0.332 N 
HETATM    5  C   UNL     1     -42.677 -51.418  14.316  1.00  0.00     0.147 C 
HETATM    6  C   UNL     1     -43.509 -50.767  13.208  1.00  0.00     0.142 C 
HETATM    7  N   UNL     1     -44.765 -51.469  13.007  1.00  0.00    -0.359 N 
HETATM    8  C   UNL     1     -44.904 -52.796  12.725  1.00  0.00     0.219 C 
HETATM    9  O   UNL     1     -46.012 -53.321  12.806  1.00  0.00    -0.274 OA
HETATM   10  C   UNL     1     -43.669 -53.577  12.331  1.00  0.00     0.122 C 
HETATM   11  C   UNL     1     -42.722 -53.771  13.509  1.00  0.00     0.136 C 
HETATM   12  H   UNL     1     -40.288 -50.664  14.144  1.00  0.00     0.164 HD
HETATM   13  H   UNL     1     -45.629 -51.021  13.291  1.00  0.00     0.162 HD
ENDROOT
BRANCH   1  14
HETATM   14  C   UNL     1     -38.539 -51.223  13.183  1.00  0.00     0.131 C 
BRANCH  14  15
HETATM   15  C   UNL     1     -38.261 -50.310  11.992  1.00  0.00     0.084 C 
BRANCH  15  16
HETATM   16  C   UNL     1     -39.440 -49.460  11.617  1.00  0.00     0.052 A 
HETATM   17  N   UNL     1     -40.351 -49.797  10.725  1.00  0.00    -0.363 N 
HETATM   18  C   UNL     1     -41.221 -48.739  10.530  1.00  0.00     0.103 A 
ATOM     19  HN  UNL     1     -40.406 -50.699  10.251  1.00  0.00     0.165 HD
HETATM   20  C   UNL     1     -40.984 -47.615  11.297  1.00  0.00    -0.001 A 
HETATM   21  S   UNL     1     -39.634 -47.899  12.313  1.00  0.00    -0.080 SA
BRANCH  20  22
HETATM   22  C   UNL     1     -41.703 -46.305  11.303  1.00  0.00     0.043 C 
HETATM   23  C   UNL     1     -42.542 -46.118  12.557  1.00  0.00     0.010 C 
ENDBRANCH  20  22
ENDBRANCH  15  16
ENDBRANCH  14  15
ENDBRANCH   1  14
TORSDOF 4
ENDMDL
MODEL 6
REMARK VINA RESULT:      -5.5      2.178      2.823
REMARK  4 active torsions:
REMARK  status: ('A' for Active; 'I' for Inactive)
REMARK    1  A    between atoms: C_2  and  C_3 
REMARK    2  A    between atoms: C_7  and  C_8 
REMARK    3  A    between atoms: C_8  and  C_9 
REMARK    4  A    between atoms: C_9  and  N_10 
REMARK       I    between atoms: N_10  and  C_11 
REMARK       I    between atoms: C_11  and  N_13 
ROOT
HETATM    1  N   UNL     1     -41.765 -51.325  13.396  1.00  0.00    -0.343 N 
HETATM    2  C   UNL     1     -42.014 -52.370  14.246  1.00  0.00     0.318 C 
HETATM    3  O   UNL     1     -41.108 -53.095  14.645  1.00  0.00    -0.247 OA
HETATM    4  N   UNL     1     -43.343 -52.585  14.582  1.00  0.00    -0.332 N 
HETATM    5  C   UNL     1     -44.487 -51.821  14.068  1.00  0.00     0.147 C 
HETATM    6  C   UNL     1     -45.128 -52.519  12.866  1.00  0.00     0.142 C 
HETATM    7  N   UNL     1     -46.046 -53.564  13.287  1.00  0.00    -0.359 N 
HETATM    8  C   UNL     1     -45.740 -54.617  14.100  1.00  0.00     0.219 C 
HETATM    9  O   UNL     1     -46.645 -55.301  14.571  1.00  0.00    -0.274 OA
HETATM   10  C   UNL     1     -44.283 -54.893  14.397  1.00  0.00     0.122 C 
HETATM   11  C   UNL     1     -43.677 -53.825  15.300  1.00  0.00     0.136 C 
HETATM   12  H   UNL     1     -42.435 -50.572  13.335  1.00  0.00     0.164 HD
HETATM   13  H   UNL     1     -47.041 -53.425  13.158  1.00  0.00     0.162 HD
ENDROOT
BRANCH   1  14
HETATM   14  C   UNL     1     -40.407 -50.914  13.080  1.00  0.00     0.131 C 
BRANCH  14  15
HETATM   15  C   UNL     1     -40.233 -50.544  11.610  1.00  0.00     0.084 C 
BRANCH  15  16
HETATM   16  C   UNL     1     -40.598 -49.118  11.316  1.00  0.00     0.052 A 
HETATM   17  N   UNL     1     -41.538 -48.746  10.469  1.00  0.00    -0.363 N 
HETATM   18  C   UNL     1     -41.528 -47.368  10.343  1.00  0.00     0.103 A 
ATOM     19  HN  UNL     1     -42.174 -49.377   9.982  1.00  0.00     0.165 HD
HETATM   20  C   UNL     1     -40.601 -46.699  11.118  1.00  0.00    -0.001 A 
HETATM   21  S   UNL     1     -39.721 -47.833  12.053  1.00  0.00    -0.080 SA
BRANCH  20  22
HETATM   22  C   UNL     1     -40.308 -45.235  11.189  1.00  0.00     0.043 C 
HETATM   23  C   UNL     1     -39.485 -44.757  10.003  1.00  0.00     0.010 C 
ENDBRANCH  20  22
ENDBRANCH  15  16
ENDBRANCH  14  15
ENDBRANCH   1  14
TORSDOF 4
ENDMDL
MODEL 7
REMARK VINA RESULT:      -5.4      3.276      5.274
REMARK  4 active torsions:
REMARK  status: ('A' for Active; 'I' for Inactive)
REMARK    1  A    between atoms: C_2  and  C_3 
REMARK    2  A    between atoms: C_7  and  C_8 
REMARK    3  A    between atoms: C_8  and  C_9 
REMARK    4  A    between atoms: C_9  and  N_10 
REMARK       I    between atoms: N_10  and  C_11 
REMARK       I    between atoms: C_11  and  N_13 
ROOT
HETATM    1  N   UNL     1     -42.874 -52.034  13.573  1.00  0.00    -0.343 N 
HETATM    2  C   UNL     1     -42.842 -52.945  14.596  1.00  0.00     0.318 C 
HETATM    3  O   UNL     1     -43.506 -52.783  15.615  1.00  0.00    -0.247 OA
HETATM    4  N   UNL     1     -41.984 -54.023  14.430  1.00  0.00    -0.332 N 
HETATM    5  C   UNL     1     -41.089 -54.233  13.284  1.00  0.00     0.147 C 
HETATM    6  C   UNL     1     -39.680 -53.710  13.575  1.00  0.00     0.142 C 
HETATM    7  N   UNL     1     -38.901 -54.677  14.330  1.00  0.00    -0.359 N 
HETATM    8  C   UNL     1     -39.254 -55.229  15.527  1.00  0.00     0.219 C 
HETATM    9  O   UNL     1     -38.634 -56.200  15.952  1.00  0.00    -0.274 OA
HETATM   10  C   UNL     1     -40.415 -54.620  16.281  1.00  0.00     0.122 C 
HETATM   11  C   UNL     1     -41.746 -54.896  15.590  1.00  0.00     0.136 C 
HETATM   12  H   UNL     1     -42.592 -52.324  12.649  1.00  0.00     0.164 HD
HETATM   13  H   UNL     1     -38.135 -55.156  13.871  1.00  0.00     0.162 HD
ENDROOT
BRANCH   1  14
HETATM   14  C   UNL     1     -43.831 -50.939  13.567  1.00  0.00     0.131 C 
BRANCH  14  15
HETATM   15  C   UNL     1     -43.157 -49.570  13.601  1.00  0.00     0.084 C 
BRANCH  15  16
HETATM   16  C   UNL     1     -41.927 -49.501  12.744  1.00  0.00     0.052 A 
HETATM   17  N   UNL     1     -41.926 -49.587  11.428  1.00  0.00    -0.363 N 
HETATM   18  C   UNL     1     -40.622 -49.614  10.967  1.00  0.00     0.103 A 
ATOM     19  HN  UNL     1     -42.759 -49.628  10.841  1.00  0.00     0.165 HD
HETATM   20  C   UNL     1     -39.639 -49.517  11.932  1.00  0.00    -0.001 A 
HETATM   21  S   UNL     1     -40.373 -49.369  13.473  1.00  0.00    -0.080 SA
BRANCH  20  22
HETATM   22  C   UNL     1     -38.153 -49.553  11.777  1.00  0.00     0.043 C 
HETATM   23  C   UNL     1     -37.532 -50.746  12.484  1.00  0.00     0.010 C 
ENDBRANCH  20  22
ENDBRANCH  15  16
ENDBRANCH  14  15
ENDBRANCH   1  14
TORSDOF 4
ENDMDL
MODEL 8
REMARK VINA RESULT:      -5.3      4.274      7.742
REMARK  4 active torsions:
REMARK  status: ('A' for Active; 'I' for Inactive)
REMARK    1  A    between atoms: C_2  and  C_3 
REMARK    2  A    between atoms: C_7  and  C_8 
REMARK    3  A    between atoms: C_8  and  C_9 
REMARK    4  A    between atoms: C_9  and  N_10 
REMARK       I    between atoms: N_10  and  C_11 
REMARK       I    between atoms: C_11  and  N_13 
ROOT
HETATM    1  N   UNL     1     -39.990 -47.977  12.276  1.00  0.00    -0.343 N 
HETATM    2  C   UNL     1     -39.794 -46.621  12.315  1.00  0.00     0.318 C 
HETATM    3  O   UNL     1     -39.135 -46.099  13.208  1.00  0.00    -0.247 OA
HETATM    4  N   UNL     1     -40.422 -45.881  11.323  1.00  0.00    -0.332 N 
HETATM    5  C   UNL     1     -41.304 -46.426  10.282  1.00  0.00     0.147 C 
HETATM    6  C   UNL     1     -42.776 -46.323  10.689  1.00  0.00     0.142 C 
HETATM    7  N   UNL     1     -43.310 -44.999  10.416  1.00  0.00    -0.359 N 
HETATM    8  C   UNL     1     -42.802 -43.820  10.879  1.00  0.00     0.219 C 
HETATM    9  O   UNL     1     -43.195 -42.761  10.397  1.00  0.00    -0.274 OA
HETATM   10  C   UNL     1     -41.758 -43.872  11.972  1.00  0.00     0.122 C 
HETATM   11  C   UNL     1     -40.429 -44.416  11.460  1.00  0.00     0.136 C 
HETATM   12  H   UNL     1     -40.247 -48.410  11.401  1.00  0.00     0.164 HD
HETATM   13  H   UNL     1     -43.982 -44.886   9.665  1.00  0.00     0.162 HD
ENDROOT
BRANCH   1  14
HETATM   14  C   UNL     1     -39.276 -48.870  13.174  1.00  0.00     0.131 C 
BRANCH  14  15
HETATM   15  C   UNL     1     -38.826 -50.156  12.487  1.00  0.00     0.084 C 
BRANCH  15  16
HETATM   16  C   UNL     1     -39.884 -51.221  12.485  1.00  0.00     0.052 A 
HETATM   17  N   UNL     1     -40.757 -51.407  11.515  1.00  0.00    -0.363 N 
HETATM   18  C   UNL     1     -41.663 -52.384  11.889  1.00  0.00     0.103 A 
ATOM     19  HN  UNL     1     -40.764 -50.908  10.626  1.00  0.00     0.165 HD
HETATM   20  C   UNL     1     -41.456 -52.955  13.129  1.00  0.00    -0.001 A 
HETATM   21  S   UNL     1     -40.065 -52.259  13.846  1.00  0.00    -0.080 SA
BRANCH  20  22
HETATM   22  C   UNL     1     -42.261 -53.995  13.838  1.00  0.00     0.043 C 
HETATM   23  C   UNL     1     -43.654 -54.144  13.247  1.00  0.00     0.010 C 
ENDBRANCH  20  22
ENDBRANCH  15  16
ENDBRANCH  14  15
ENDBRANCH   1  14
TORSDOF 4
ENDMDL
MODEL 9
REMARK VINA RESULT:      -5.2      3.367      7.790
REMARK  4 active torsions:
REMARK  status: ('A' for Active; 'I' for Inactive)
REMARK    1  A    between atoms: C_2  and  C_3 
REMARK    2  A    between atoms: C_7  and  C_8 
REMARK    3  A    between atoms: C_8  and  C_9 
REMARK    4  A    between atoms: C_9  and  N_10 
REMARK       I    between atoms: N_10  and  C_11 
REMARK       I    between atoms: C_11  and  N_13 
ROOT
HETATM    1  N   UNL     1     -43.288 -50.072  12.513  1.00  0.00    -0.343 N 
HETATM    2  C   UNL     1     -42.739 -48.937  13.050  1.00  0.00     0.318 C 
HETATM    3  O   UNL     1     -43.021 -48.569  14.186  1.00  0.00    -0.247 OA
HETATM    4  N   UNL     1     -41.895 -48.213  12.220  1.00  0.00    -0.332 N 
HETATM    5  C   UNL     1     -41.588 -48.538  10.821  1.00  0.00     0.147 C 
HETATM    6  C   UNL     1     -42.491 -47.763   9.858  1.00  0.00     0.142 C 
HETATM    7  N   UNL     1     -41.992 -46.418   9.630  1.00  0.00    -0.359 N 
HETATM    8  C   UNL     1     -41.735 -45.486  10.593  1.00  0.00     0.219 C 
HETATM    9  O   UNL     1     -41.101 -44.474  10.303  1.00  0.00    -0.274 OA
HETATM   10  C   UNL     1     -42.238 -45.748  11.995  1.00  0.00     0.122 C 
HETATM   11  C   UNL     1     -41.470 -46.878  12.671  1.00  0.00     0.136 C 
HETATM   12  H   UNL     1     -42.824 -50.522  11.739  1.00  0.00     0.164 HD
HETATM   13  H   UNL     1     -41.599 -46.187   8.725  1.00  0.00     0.162 HD
ENDROOT
BRANCH   1  14
HETATM   14  C   UNL     1     -44.076 -50.987  13.324  1.00  0.00     0.131 C 
BRANCH  14  15
HETATM   15  C   UNL     1     -44.039 -52.418  12.796  1.00  0.00     0.084 C 
BRANCH  15  16
HETATM   16  C   UNL     1     -42.913 -53.227  13.373  1.00  0.00     0.052 A 
HETATM   17  N   UNL     1     -43.012 -53.987  14.446  1.00  0.00    -0.363 N 
HETATM   18  C   UNL     1     -41.764 -54.488  14.773  1.00  0.00     0.103 A 
ATOM     19  HN  UNL     1     -43.874 -54.177  14.955  1.00  0.00     0.165 HD
HETATM   20  C   UNL     1     -40.730 -54.130  13.930  1.00  0.00    -0.001 A 
HETATM   21  S   UNL     1     -41.344 -53.145  12.670  1.00  0.00    -0.080 SA
BRANCH  20  22
HETATM   22  C   UNL     1     -39.276 -54.464  14.021  1.00  0.00     0.043 C 
HETATM   23  C   UNL     1     -38.883 -54.938  15.410  1.00  0.00     0.010 C 
ENDBRANCH  20  22
ENDBRANCH  15  16
ENDBRANCH  14  15
ENDBRANCH   1  14
TORSDOF 4
ENDMDL
