MODEL 1
REMARK VINA RESULT:      -5.4      0.000      0.000
REMARK  4 active torsions:
REMARK  status: ('A' for Active; 'I' for Inactive)
REMARK    1  A    between atoms: S_2  and  C_3 
REMARK    2  A    between atoms: C_3  and  C_5 
REMARK       I    between atoms: C_5  and  N_7 
REMARK    3  A    between atoms: N_7  and  C_8 
REMARK    4  A    between atoms: C_11  and  N_15 
ROOT
HETATM    1  C   UNL     1     -40.987 -49.355  11.360  1.00  0.00     0.107 A 
HETATM    2  C   UNL     1     -39.683 -49.672  11.702  1.00  0.00     0.051 A 
HETATM    3  C   UNL     1     -39.419 -50.898  12.340  1.00  0.00     0.034 A 
HETATM    4  C   UNL     1     -40.437 -51.809  12.649  1.00  0.00     0.046 A 
HETATM    5  C   UNL     1     -41.704 -51.347  12.282  1.00  0.00     0.119 A 
HETATM    6  N   UNL     1     -41.992 -50.180  11.654  1.00  0.00    -0.350 N 
ATOM      7  HN  UNL     1     -42.953 -49.939  11.413  1.00  0.00     0.166 HD
ENDROOT
BRANCH   1   8
HETATM    8  N   UNL     1     -41.239 -48.160  10.677  1.00  0.00    -0.312 N 
HETATM    9  C   UNL     1     -42.356 -47.366  10.874  1.00  0.00     0.236 C 
HETATM   10  O   UNL     1     -43.218 -47.528  11.736  1.00  0.00    -0.272 OA
HETATM   11  H   UNL     1     -40.636 -47.919   9.902  1.00  0.00     0.170 HD
BRANCH   9  12
HETATM   12  C   UNL     1     -42.430 -46.150   9.938  1.00  0.00     0.135 C 
HETATM   13  C   UNL     1     -42.388 -44.842  10.729  1.00  0.00     0.031 C 
BRANCH  12  14
HETATM   14  S   UNL     1     -43.882 -46.209   8.802  1.00  0.00    -0.160 SA
HETATM   15  C   UNL     1     -43.517 -47.717   7.863  1.00  0.00     0.090 C 
ENDBRANCH  12  14
ENDBRANCH   9  12
ENDBRANCH   1   8
BRANCH   4  16
HETATM   16  N   UNL     1     -40.222 -53.025  13.265  1.00  0.00    -0.376 N 
HETATM   17  C   UNL     1     -41.163 -54.162  13.244  1.00  0.00     0.149 C 
HETATM   18  C   UNL     1     -41.621 -54.488  14.677  1.00  0.00     0.187 C 
HETATM   19  O   UNL     1     -40.506 -54.752  15.546  1.00  0.00    -0.388 OA
HETATM   20  C   UNL     1     -39.627 -53.617  15.587  1.00  0.00     0.187 C 
HETATM   21  C   UNL     1     -39.091 -53.274  14.188  1.00  0.00     0.149 C 
ENDBRANCH   4  16
TORSDOF 4
ENDMDL
MODEL 2
REMARK VINA RESULT:      -5.3      3.095      7.702
REMARK  4 active torsions:
REMARK  status: ('A' for Active; 'I' for Inactive)
REMARK    1  A    between atoms: S_2  and  C_3 
REMARK    2  A    between atoms: C_3  and  C_5 
REMARK       I    between atoms: C_5  and  N_7 
REMARK    3  A    between atoms: N_7  and  C_8 
REMARK    4  A    between atoms: C_11  and  N_15 
ROOT
HETATM    1  C   UNL     1     -40.335 -49.997  11.724  1.00  0.00     0.107 A 
HETATM    2  C   UNL     1     -39.426 -49.025  12.107  1.00  0.00     0.051 A 
HETATM    3  C   UNL     1     -39.644 -47.690  11.720  1.00  0.00     0.034 A 
HETATM    4  C   UNL     1     -40.751 -47.312  10.949  1.00  0.00     0.046 A 
HETATM    5  C   UNL     1     -41.563 -48.395  10.603  1.00  0.00     0.119 A 
HETATM    6  N   UNL     1     -41.390 -49.689  10.971  1.00  0.00    -0.350 N 
ATOM      7  HN  UNL     1     -42.051 -50.408  10.679  1.00  0.00     0.166 HD
ENDROOT
BRANCH   1   8
HETATM    8  N   UNL     1     -40.144 -51.314  12.157  1.00  0.00    -0.312 N 
HETATM    9  C   UNL     1     -41.169 -52.202  12.440  1.00  0.00     0.236 C 
HETATM   10  O   UNL     1     -42.368 -52.008  12.251  1.00  0.00    -0.272 OA
HETATM   11  H   UNL     1     -39.207 -51.603  12.401  1.00  0.00     0.170 HD
BRANCH   9  12
HETATM   12  C   UNL     1     -40.688 -53.560  12.975  1.00  0.00     0.135 C 
HETATM   13  C   UNL     1     -41.819 -54.302  13.688  1.00  0.00     0.031 C 
BRANCH  12  14
HETATM   14  S   UNL     1     -39.191 -53.418  14.043  1.00  0.00    -0.160 SA
HETATM   15  C   UNL     1     -39.303 -54.961  14.990  1.00  0.00     0.090 C 
ENDBRANCH  12  14
ENDBRANCH   9  12
ENDBRANCH   1   8
BRANCH   4  16
HETATM   16  N   UNL     1     -41.007 -46.014  10.555  1.00  0.00    -0.376 N 
HETATM   17  C   UNL     1     -39.976 -45.000  10.261  1.00  0.00     0.149 C 
HETATM   18  C   UNL     1     -40.109 -43.819  11.239  1.00  0.00     0.187 C 
HETATM   19  O   UNL     1     -41.427 -43.245  11.205  1.00  0.00    -0.388 OA
HETATM   20  C   UNL     1     -42.411 -44.236  11.539  1.00  0.00     0.187 C 
HETATM   21  C   UNL     1     -42.365 -45.422  10.561  1.00  0.00     0.149 C 
ENDBRANCH   4  16
TORSDOF 4
ENDMDL
MODEL 3
REMARK VINA RESULT:      -5.3      3.066      7.886
REMARK  4 active torsions:
REMARK  status: ('A' for Active; 'I' for Inactive)
REMARK    1  A    between atoms: S_2  and  C_3 
REMARK    2  A    between atoms: C_3  and  C_5 
REMARK       I    between atoms: C_5  and  N_7 
REMARK    3  A    between atoms: N_7  and  C_8 
REMARK    4  A    between atoms: C_11  and  N_15 
ROOT
HETATM    1  C   UNL     1     -41.998 -50.467  12.244  1.00  0.00     0.107 A 
HETATM    2  C   UNL     1     -42.984 -49.556  12.585  1.00  0.00     0.051 A 
HETATM    3  C   UNL     1     -43.069 -48.341  11.881  1.00  0.00     0.034 A 
HETATM    4  C   UNL     1     -42.181 -48.018  10.846  1.00  0.00     0.046 A 
HETATM    5  C   UNL     1     -41.218 -49.008  10.633  1.00  0.00     0.119 A 
HETATM    6  N   UNL     1     -41.116 -50.194  11.283  1.00  0.00    -0.350 N 
ATOM      7  HN  UNL     1     -40.383 -50.861  11.042  1.00  0.00     0.166 HD
ENDROOT
BRANCH   1   8
HETATM    8  N   UNL     1     -41.950 -51.697  12.910  1.00  0.00    -0.312 N 
HETATM    9  C   UNL     1     -40.821 -52.493  13.004  1.00  0.00     0.236 C 
HETATM   10  O   UNL     1     -39.690 -52.196  12.623  1.00  0.00    -0.272 OA
HETATM   11  H   UNL     1     -42.820 -52.095  13.238  1.00  0.00     0.170 HD
BRANCH   9  12
HETATM   12  C   UNL     1     -41.059 -53.832  13.720  1.00  0.00     0.135 C 
HETATM   13  C   UNL     1     -42.544 -54.195  13.729  1.00  0.00     0.031 C 
BRANCH  12  14
HETATM   14  S   UNL     1     -40.341 -53.872  15.418  1.00  0.00    -0.160 SA
HETATM   15  C   UNL     1     -38.900 -54.942  15.151  1.00  0.00     0.090 C 
ENDBRANCH  12  14
ENDBRANCH   9  12
ENDBRANCH   1   8
BRANCH   4  16
HETATM   16  N   UNL     1     -42.235 -46.843  10.125  1.00  0.00    -0.376 N 
HETATM   17  C   UNL     1     -41.639 -45.561  10.550  1.00  0.00     0.149 C 
HETATM   18  C   UNL     1     -42.742 -44.502  10.720  1.00  0.00     0.187 C 
HETATM   19  O   UNL     1     -43.517 -44.342   9.518  1.00  0.00    -0.388 OA
HETATM   20  C   UNL     1     -44.124 -45.589   9.148  1.00  0.00     0.187 C 
HETATM   21  C   UNL     1     -43.066 -46.678   8.910  1.00  0.00     0.149 C 
ENDBRANCH   4  16
TORSDOF 4
ENDMDL
MODEL 4
REMARK VINA RESULT:      -5.2      2.332      3.138
REMARK  4 active torsions:
REMARK  status: ('A' for Active; 'I' for Inactive)
REMARK    1  A    between atoms: S_2  and  C_3 
REMARK    2  A    between atoms: C_3  and  C_5 
REMARK       I    between atoms: C_5  and  N_7 
REMARK    3  A    between atoms: N_7  and  C_8 
REMARK    4  A    between atoms: C_11  and  N_15 
ROOT
HETATM    1  C   UNL     1     -42.277 -49.435  12.232  1.00  0.00     0.107 A 
HETATM    2  C   UNL     1     -43.346 -49.735  13.059  1.00  0.00     0.051 A 
HETATM    3  C   UNL     1     -43.633 -51.081  13.350  1.00  0.00     0.034 A 
HETATM    4  C   UNL     1     -42.873 -52.134  12.822  1.00  0.00     0.046 A 
HETATM    5  C   UNL     1     -41.851 -51.690  11.978  1.00  0.00     0.119 A 
HETATM    6  N   UNL     1     -41.539 -50.403  11.688  1.00  0.00    -0.350 N 
ATOM      7  HN  UNL     1     -40.760 -50.180  11.069  1.00  0.00     0.166 HD
ENDROOT
BRANCH   1   8
HETATM    8  N   UNL     1     -41.962 -48.093  11.989  1.00  0.00    -0.312 N 
HETATM    9  C   UNL     1     -41.963 -47.504  10.735  1.00  0.00     0.236 C 
HETATM   10  O   UNL     1     -42.340 -48.026   9.688  1.00  0.00    -0.272 OA
HETATM   11  H   UNL     1     -41.588 -47.547  12.752  1.00  0.00     0.170 HD
BRANCH   9  12
HETATM   12  C   UNL     1     -41.501 -46.038  10.735  1.00  0.00     0.135 C 
HETATM   13  C   UNL     1     -39.976 -45.942  10.687  1.00  0.00     0.031 C 
BRANCH  12  14
HETATM   14  S   UNL     1     -42.197 -45.068  12.141  1.00  0.00    -0.160 SA
HETATM   15  C   UNL     1     -40.678 -44.603  13.017  1.00  0.00     0.090 C 
ENDBRANCH  12  14
ENDBRANCH   9  12
ENDBRANCH   1   8
BRANCH   4  16
HETATM   16  N   UNL     1     -43.113 -53.466  13.088  1.00  0.00    -0.376 N 
HETATM   17  C   UNL     1     -44.373 -54.175  12.786  1.00  0.00     0.149 C 
HETATM   18  C   UNL     1     -45.012 -54.686  14.090  1.00  0.00     0.187 C 
HETATM   19  O   UNL     1     -44.109 -55.523  14.833  1.00  0.00    -0.388 OA
HETATM   20  C   UNL     1     -42.911 -54.800  15.156  1.00  0.00     0.187 C 
HETATM   21  C   UNL     1     -42.195 -54.309  13.888  1.00  0.00     0.149 C 
ENDBRANCH   4  16
TORSDOF 4
ENDMDL
MODEL 5
REMARK VINA RESULT:      -5.0      3.437      7.703
REMARK  4 active torsions:
REMARK  status: ('A' for Active; 'I' for Inactive)
REMARK    1  A    between atoms: S_2  and  C_3 
REMARK    2  A    between atoms: C_3  and  C_5 
REMARK       I    between atoms: C_5  and  N_7 
REMARK    3  A    between atoms: N_7  and  C_8 
REMARK    4  A    between atoms: C_11  and  N_15 
ROOT
HETATM    1  C   UNL     1     -42.445 -49.711  12.098  1.00  0.00     0.107 A 
HETATM    2  C   UNL     1     -42.956 -48.647  12.821  1.00  0.00     0.051 A 
HETATM    3  C   UNL     1     -42.681 -47.334  12.397  1.00  0.00     0.034 A 
HETATM    4  C   UNL     1     -41.897 -47.067  11.267  1.00  0.00     0.046 A 
HETATM    5  C   UNL     1     -41.418 -48.229  10.656  1.00  0.00     0.119 A 
HETATM    6  N   UNL     1     -41.675 -49.507  11.030  1.00  0.00    -0.350 N 
ATOM      7  HN  UNL     1     -41.289 -50.293  10.506  1.00  0.00     0.166 HD
ENDROOT
BRANCH   1   8
HETATM    8  N   UNL     1     -42.766 -51.016  12.491  1.00  0.00    -0.312 N 
HETATM    9  C   UNL     1     -41.908 -52.099  12.385  1.00  0.00     0.236 C 
HETATM   10  O   UNL     1     -40.728 -52.058  12.044  1.00  0.00    -0.272 OA
HETATM   11  H   UNL     1     -43.722 -51.212  12.752  1.00  0.00     0.170 HD
BRANCH   9  12
HETATM   12  C   UNL     1     -42.536 -53.435  12.812  1.00  0.00     0.135 C 
HETATM   13  C   UNL     1     -44.049 -53.426  12.597  1.00  0.00     0.031 C 
BRANCH  12  14
HETATM   14  S   UNL     1     -42.099 -53.911  14.540  1.00  0.00    -0.160 SA
HETATM   15  C   UNL     1     -43.449 -55.058  14.927  1.00  0.00     0.090 C 
ENDBRANCH  12  14
ENDBRANCH   9  12
ENDBRANCH   1   8
BRANCH   4  16
HETATM   16  N   UNL     1     -41.611 -45.796  10.812  1.00  0.00    -0.376 N 
HETATM   17  C   UNL     1     -40.262 -45.307  10.464  1.00  0.00     0.149 C 
HETATM   18  C   UNL     1     -39.877 -44.135  11.384  1.00  0.00     0.187 C 
HETATM   19  O   UNL     1     -40.845 -43.073  11.327  1.00  0.00    -0.388 OA
HETATM   20  C   UNL     1     -42.141 -43.559  11.713  1.00  0.00     0.187 C 
HETATM   21  C   UNL     1     -42.606 -44.700  10.794  1.00  0.00     0.149 C 
ENDBRANCH   4  16
TORSDOF 4
ENDMDL
MODEL 6
REMARK VINA RESULT:      -4.8      6.230      9.540
REMARK  4 active torsions:
REMARK  status: ('A' for Active; 'I' for Inactive)
REMARK    1  A    between atoms: S_2  and  C_3 
REMARK    2  A    between atoms: C_3  and  C_5 
REMARK       I    between atoms: C_5  and  N_7 
REMARK    3  A    between atoms: N_7  and  C_8 
REMARK    4  A    between atoms: C_11  and  N_15 
ROOT
HETATM    1  C   UNL     1     -40.580 -55.139  15.926  1.00  0.00     0.107 A 
HETATM    2  C   UNL     1     -40.451 -54.369  14.783  1.00  0.00     0.051 A 
HETATM    3  C   UNL     1     -41.593 -54.089  14.010  1.00  0.00     0.034 A 
HETATM    4  C   UNL     1     -42.861 -54.573  14.357  1.00  0.00     0.046 A 
HETATM    5  C   UNL     1     -42.840 -55.364  15.510  1.00  0.00     0.119 A 
HETATM    6  N   UNL     1     -41.761 -55.640  16.285  1.00  0.00    -0.350 N 
ATOM      7  HN  UNL     1     -41.852 -56.218  17.120  1.00  0.00     0.166 HD
ENDROOT
BRANCH   1   8
HETATM    8  N   UNL     1     -39.451 -55.368  16.721  1.00  0.00    -0.312 N 
HETATM    9  C   UNL     1     -39.099 -56.602  17.243  1.00  0.00     0.236 C 
HETATM   10  O   UNL     1     -39.648 -57.675  17.000  1.00  0.00    -0.272 OA
HETATM   11  H   UNL     1     -38.925 -54.568  17.043  1.00  0.00     0.170 HD
BRANCH   9  12
HETATM   12  C   UNL     1     -37.858 -56.565  18.149  1.00  0.00     0.135 C 
HETATM   13  C   UNL     1     -36.655 -55.977  17.412  1.00  0.00     0.031 C 
BRANCH  12  14
HETATM   14  S   UNL     1     -37.464 -58.207  18.890  1.00  0.00    -0.160 SA
HETATM   15  C   UNL     1     -35.661 -58.086  19.044  1.00  0.00     0.090 C 
ENDBRANCH  12  14
ENDBRANCH   9  12
ENDBRANCH   1   8
BRANCH   4  16
HETATM   16  N   UNL     1     -44.008 -54.317  13.634  1.00  0.00    -0.376 N 
HETATM   17  C   UNL     1     -44.116 -53.327  12.544  1.00  0.00     0.149 C 
HETATM   18  C   UNL     1     -45.142 -52.243  12.922  1.00  0.00     0.187 C 
HETATM   19  O   UNL     1     -46.424 -52.810  13.239  1.00  0.00    -0.388 OA
HETATM   20  C   UNL     1     -46.304 -53.734  14.331  1.00  0.00     0.187 C 
HETATM   21  C   UNL     1     -45.331 -54.876  13.993  1.00  0.00     0.149 C 
ENDBRANCH   4  16
TORSDOF 4
ENDMDL
MODEL 7
REMARK VINA RESULT:      -4.7      3.237      4.438
REMARK  4 active torsions:
REMARK  status: ('A' for Active; 'I' for Inactive)
REMARK    1  A    between atoms: S_2  and  C_3 
REMARK    2  A    between atoms: C_3  and  C_5 
REMARK       I    between atoms: C_5  and  N_7 
REMARK    3  A    between atoms: N_7  and  C_8 
REMARK    4  A    between atoms: C_11  and  N_15 
ROOT
HETATM    1  C   UNL     1     -40.275 -45.736  12.308  1.00  0.00     0.107 A 
HETATM    2  C   UNL     1     -39.436 -46.271  13.270  1.00  0.00     0.051 A 
HETATM    3  C   UNL     1     -39.063 -47.625  13.180  1.00  0.00     0.034 A 
HETATM    4  C   UNL     1     -39.521 -48.455  12.148  1.00  0.00     0.046 A 
HETATM    5  C   UNL     1     -40.387 -47.796  11.270  1.00  0.00     0.119 A 
HETATM    6  N   UNL     1     -40.755 -46.492  11.320  1.00  0.00    -0.350 N 
ATOM      7  HN  UNL     1     -41.383 -46.098  10.620  1.00  0.00     0.166 HD
ENDROOT
BRANCH   1   8
HETATM    8  N   UNL     1     -40.600 -44.376  12.371  1.00  0.00    -0.312 N 
HETATM    9  C   UNL     1     -40.473 -43.492  11.312  1.00  0.00     0.236 C 
HETATM   10  O   UNL     1     -40.171 -43.782  10.157  1.00  0.00    -0.272 OA
HETATM   11  H   UNL     1     -40.822 -43.981  13.274  1.00  0.00     0.170 HD
BRANCH   9  12
HETATM   12  C   UNL     1     -40.821 -42.038  11.670  1.00  0.00     0.135 C 
HETATM   13  C   UNL     1     -40.228 -41.646  13.023  1.00  0.00     0.031 C 
BRANCH  12  14
HETATM   14  S   UNL     1     -42.633 -41.698  11.599  1.00  0.00    -0.160 SA
HETATM   15  C   UNL     1     -43.071 -41.835  13.354  1.00  0.00     0.090 C 
ENDBRANCH  12  14
ENDBRANCH   9  12
ENDBRANCH   1   8
BRANCH   4  16
HETATM   16  N   UNL     1     -39.173 -49.783  12.016  1.00  0.00    -0.376 N 
HETATM   17  C   UNL     1     -40.078 -50.923  12.266  1.00  0.00     0.149 C 
HETATM   18  C   UNL     1     -39.531 -51.783  13.419  1.00  0.00     0.187 C 
HETATM   19  O   UNL     1     -38.189 -52.231  13.159  1.00  0.00    -0.388 OA
HETATM   20  C   UNL     1     -37.317 -51.107  12.964  1.00  0.00     0.187 C 
HETATM   21  C   UNL     1     -37.782 -50.236  11.786  1.00  0.00     0.149 C 
ENDBRANCH   4  16
TORSDOF 4
ENDMDL
MODEL 8
REMARK VINA RESULT:      -4.7      3.398      7.441
REMARK  4 active torsions:
REMARK  status: ('A' for Active; 'I' for Inactive)
REMARK    1  A    between atoms: S_2  and  C_3 
REMARK    2  A    between atoms: C_3  and  C_5 
REMARK       I    between atoms: C_5  and  N_7 
REMARK    3  A    between atoms: N_7  and  C_8 
REMARK    4  A    between atoms: C_11  and  N_15 
ROOT
HETATM    1  C   UNL     1     -42.112 -50.310  12.427  1.00  0.00     0.107 A 
HETATM    2  C   UNL     1     -40.805 -49.970  12.126  1.00  0.00     0.051 A 
HETATM    3  C   UNL     1     -40.541 -48.727  11.521  1.00  0.00     0.034 A 
HETATM    4  C   UNL     1     -41.563 -47.823  11.205  1.00  0.00     0.046 A 
HETATM    5  C   UNL     1     -42.833 -48.309  11.530  1.00  0.00     0.119 A 
HETATM    6  N   UNL     1     -43.120 -49.493  12.126  1.00  0.00    -0.350 N 
ATOM      7  HN  UNL     1     -44.084 -49.751  12.337  1.00  0.00     0.166 HD
ENDROOT
BRANCH   1   8
HETATM    8  N   UNL     1     -42.365 -51.523  13.079  1.00  0.00    -0.312 N 
HETATM    9  C   UNL     1     -43.315 -51.695  14.072  1.00  0.00     0.236 C 
HETATM   10  O   UNL     1     -44.135 -50.858  14.444  1.00  0.00    -0.272 OA
HETATM   11  H   UNL     1     -41.736 -52.295  12.908  1.00  0.00     0.170 HD
BRANCH   9  12
HETATM   12  C   UNL     1     -43.335 -53.107  14.679  1.00  0.00     0.135 C 
HETATM   13  C   UNL     1     -43.028 -54.166  13.619  1.00  0.00     0.031 C 
BRANCH  12  14
HETATM   14  S   UNL     1     -44.903 -53.479  15.575  1.00  0.00    -0.160 SA
HETATM   15  C   UNL     1     -45.843 -54.327  14.276  1.00  0.00     0.090 C 
ENDBRANCH  12  14
ENDBRANCH   9  12
ENDBRANCH   1   8
BRANCH   4  16
HETATM   16  N   UNL     1     -41.349 -46.591  10.620  1.00  0.00    -0.376 N 
HETATM   17  C   UNL     1     -40.062 -45.867  10.623  1.00  0.00     0.149 C 
HETATM   18  C   UNL     1     -40.218 -44.528  11.366  1.00  0.00     0.187 C 
HETATM   19  O   UNL     1     -41.267 -43.723  10.801  1.00  0.00    -0.388 OA
HETATM   20  C   UNL     1     -42.517 -44.428  10.850  1.00  0.00     0.187 C 
HETATM   21  C   UNL     1     -42.442 -45.754  10.075  1.00  0.00     0.149 C 
ENDBRANCH   4  16
TORSDOF 4
ENDMDL
MODEL 9
REMARK VINA RESULT:      -4.4      6.010      7.367
REMARK  4 active torsions:
REMARK  status: ('A' for Active; 'I' for Inactive)
REMARK    1  A    between atoms: S_2  and  C_3 
REMARK    2  A    between atoms: C_3  and  C_5 
REMARK       I    between atoms: C_5  and  N_7 
REMARK    3  A    between atoms: N_7  and  C_8 
REMARK    4  A    between atoms: C_11  and  N_15 
ROOT
HETATM    1  C   UNL     1     -45.964 -51.582  15.543  1.00  0.00     0.107 A 
HETATM    2  C   UNL     1     -46.121 -51.536  14.169  1.00  0.00     0.051 A 
HETATM    3  C   UNL     1     -45.054 -51.931  13.342  1.00  0.00     0.034 A 
HETATM    4  C   UNL     1     -43.830 -52.366  13.865  1.00  0.00     0.046 A 
HETATM    5  C   UNL     1     -43.797 -52.328  15.262  1.00  0.00     0.119 A 
HETATM    6  N   UNL     1     -44.810 -51.967  16.088  1.00  0.00    -0.350 N 
ATOM      7  HN  UNL     1     -44.692 -51.989  17.101  1.00  0.00     0.166 HD
ENDROOT
BRANCH   1   8
HETATM    8  N   UNL     1     -47.046 -51.240  16.363  1.00  0.00    -0.312 N 
HETATM    9  C   UNL     1     -46.954 -50.431  17.483  1.00  0.00     0.236 C 
HETATM   10  O   UNL     1     -45.956 -49.816  17.853  1.00  0.00    -0.272 OA
HETATM   11  H   UNL     1     -47.927 -51.709  16.207  1.00  0.00     0.170 HD
BRANCH   9  12
HETATM   12  C   UNL     1     -48.276 -50.279  18.253  1.00  0.00     0.135 C 
HETATM   13  C   UNL     1     -48.294 -48.985  19.066  1.00  0.00     0.031 C 
BRANCH  12  14
HETATM   14  S   UNL     1     -48.666 -51.745  19.301  1.00  0.00    -0.160 SA
HETATM   15  C   UNL     1     -47.189 -51.812  20.352  1.00  0.00     0.090 C 
ENDBRANCH  12  14
ENDBRANCH   9  12
ENDBRANCH   1   8
BRANCH   4  16
HETATM   16  N   UNL     1     -42.761 -52.771  13.092  1.00  0.00    -0.376 N 
HETATM   17  C   UNL     1     -42.098 -54.087  13.189  1.00  0.00     0.149 C 
HETATM   18  C   UNL     1     -40.626 -53.902  13.599  1.00  0.00     0.187 C 
HETATM   19  O   UNL     1     -39.926 -53.032  12.693  1.00  0.00    -0.388 OA
HETATM   20  C   UNL     1     -40.560 -51.744  12.649  1.00  0.00     0.187 C 
HETATM   21  C   UNL     1     -42.023 -51.856  12.191  1.00  0.00     0.149 C 
ENDBRANCH   4  16
TORSDOF 4
ENDMDL
