MODEL 1
REMARK VINA RESULT:      -5.5      0.000      0.000
REMARK  5 active torsions:
REMARK  status: ('A' for Active; 'I' for Inactive)
REMARK    1  A    between atoms: C_7  and  C_15 
REMARK    2  A    between atoms: N_11  and  C_12 
REMARK    3  A    between atoms: C_12  and  C_13 
REMARK    4  A    between atoms: C_13  and  O_14 
REMARK    5  A    between atoms: C_15  and  O_17 
ROOT
HETATM    1  C   UNL     1     -46.365 -52.345  12.249  1.00  0.00     0.089 C 
HETATM    2  C   UNL     1     -45.074 -52.894  12.740  1.00  0.00     0.080 A 
HETATM    3  N   UNL     1     -43.890 -52.570  12.263  1.00  0.00    -0.344 N 
ATOM      4  HN  UNL     1     -43.692 -51.924  11.499  1.00  0.00     0.167 HD
HETATM    5  C   UNL     1     -42.981 -53.277  13.001  1.00  0.00     0.061 A 
HETATM    6  C   UNL     1     -41.582 -53.282  12.899  1.00  0.00     0.050 A 
HETATM    7  C   UNL     1     -40.851 -54.084  13.786  1.00  0.00     0.040 A 
HETATM    8  C   UNL     1     -41.511 -54.892  14.725  1.00  0.00     0.021 A 
HETATM    9  C   UNL     1     -42.910 -54.904  14.827  1.00  0.00     0.033 A 
HETATM   10  C   UNL     1     -43.616 -54.070  13.950  1.00  0.00     0.062 A 
HETATM   11  N   UNL     1     -44.957 -53.814  13.761  1.00  0.00    -0.333 N 
ENDROOT
BRANCH   7  12
HETATM   12  C   UNL     1     -39.370 -54.147  13.731  1.00  0.00     0.176 C 
HETATM   13  O   UNL     1     -38.669 -53.150  13.712  1.00  0.00    -0.646 OA
BRANCH  12  14
HETATM   14  O   UNL     1     -38.867 -55.398  13.655  1.00  0.00    -0.773 OA
HETATM   15  H   UNL     1     -37.898 -55.458  13.571  1.00  0.00     0.167 HD
ENDBRANCH  12  14
ENDBRANCH   7  12
BRANCH  11  16
HETATM   16  C   UNL     1     -46.047 -54.377  14.538  1.00  0.00     0.156 C 
BRANCH  16  17
HETATM   17  C   UNL     1     -46.223 -53.708  15.899  1.00  0.00     0.184 C 
BRANCH  17  18
HETATM   18  O   UNL     1     -45.684 -54.501  16.951  1.00  0.00    -0.399 OA
HETATM   19  H   UNL     1     -46.103 -55.381  16.902  1.00  0.00     0.209 HD
ENDBRANCH  17  18
ENDBRANCH  16  17
ENDBRANCH  11  16
TORSDOF 5
ENDMDL
MODEL 2
REMARK VINA RESULT:      -5.2      6.317      8.516
REMARK  5 active torsions:
REMARK  status: ('A' for Active; 'I' for Inactive)
REMARK    1  A    between atoms: C_7  and  C_15 
REMARK    2  A    between atoms: N_11  and  C_12 
REMARK    3  A    between atoms: C_12  and  C_13 
REMARK    4  A    between atoms: C_13  and  O_14 
REMARK    5  A    between atoms: C_15  and  O_17 
ROOT
HETATM    1  C   UNL     1     -40.447 -51.851  12.502  1.00  0.00     0.089 C 
HETATM    2  C   UNL     1     -40.693 -50.478  11.990  1.00  0.00     0.080 A 
HETATM    3  N   UNL     1     -41.813 -50.075  11.429  1.00  0.00    -0.344 N 
ATOM      4  HN  UNL     1     -42.649 -50.634  11.255  1.00  0.00     0.167 HD
HETATM    5  C   UNL     1     -41.629 -48.754  11.125  1.00  0.00     0.061 A 
HETATM    6  C   UNL     1     -42.524 -47.859  10.523  1.00  0.00     0.050 A 
HETATM    7  C   UNL     1     -42.112 -46.533  10.326  1.00  0.00     0.040 A 
HETATM    8  C   UNL     1     -40.819 -46.129  10.688  1.00  0.00     0.021 A 
HETATM    9  C   UNL     1     -39.911 -47.019  11.280  1.00  0.00     0.033 A 
HETATM   10  C   UNL     1     -40.357 -48.329  11.494  1.00  0.00     0.062 A 
HETATM   11  N   UNL     1     -39.773 -49.452  12.041  1.00  0.00    -0.333 N 
ENDROOT
BRANCH   7  12
HETATM   12  C   UNL     1     -43.003 -45.533   9.686  1.00  0.00     0.176 C 
HETATM   13  O   UNL     1     -43.483 -45.693   8.578  1.00  0.00    -0.646 OA
BRANCH  12  14
HETATM   14  O   UNL     1     -43.196 -44.413  10.415  1.00  0.00    -0.773 OA
HETATM   15  H   UNL     1     -43.606 -44.545  11.290  1.00  0.00     0.167 HD
ENDBRANCH  12  14
ENDBRANCH   7  12
BRANCH  11  16
HETATM   16  C   UNL     1     -38.440 -49.521  12.615  1.00  0.00     0.156 C 
BRANCH  16  17
HETATM   17  C   UNL     1     -37.437 -50.241  11.717  1.00  0.00     0.184 C 
BRANCH  17  18
HETATM   18  O   UNL     1     -37.631 -49.921  10.344  1.00  0.00    -0.399 OA
HETATM   19  H   UNL     1     -36.872 -50.279   9.847  1.00  0.00     0.209 HD
ENDBRANCH  17  18
ENDBRANCH  16  17
ENDBRANCH  11  16
TORSDOF 5
ENDMDL
MODEL 3
REMARK VINA RESULT:      -5.2      5.990      7.764
REMARK  5 active torsions:
REMARK  status: ('A' for Active; 'I' for Inactive)
REMARK    1  A    between atoms: C_7  and  C_15 
REMARK    2  A    between atoms: N_11  and  C_12 
REMARK    3  A    between atoms: C_12  and  C_13 
REMARK    4  A    between atoms: C_13  and  O_14 
REMARK    5  A    between atoms: C_15  and  O_17 
ROOT
HETATM    1  C   UNL     1     -38.021 -50.638  12.234  1.00  0.00     0.089 C 
HETATM    2  C   UNL     1     -39.190 -49.758  11.976  1.00  0.00     0.080 A 
HETATM    3  N   UNL     1     -39.127 -48.573  11.407  1.00  0.00    -0.344 N 
ATOM      4  HN  UNL     1     -38.288 -48.091  11.082  1.00  0.00     0.167 HD
HETATM    5  C   UNL     1     -40.415 -48.117  11.341  1.00  0.00     0.061 A 
HETATM    6  C   UNL     1     -40.893 -46.908  10.814  1.00  0.00     0.050 A 
HETATM    7  C   UNL     1     -42.273 -46.667  10.843  1.00  0.00     0.040 A 
HETATM    8  C   UNL     1     -43.147 -47.598  11.423  1.00  0.00     0.021 A 
HETATM    9  C   UNL     1     -42.678 -48.804  11.964  1.00  0.00     0.033 A 
HETATM   10  C   UNL     1     -41.299 -49.036  11.895  1.00  0.00     0.062 A 
HETATM   11  N   UNL     1     -40.492 -50.077  12.301  1.00  0.00    -0.333 N 
ENDROOT
BRANCH   7  12
HETATM   12  C   UNL     1     -42.848 -45.406  10.312  1.00  0.00     0.176 C 
HETATM   13  O   UNL     1     -42.327 -44.319  10.488  1.00  0.00    -0.646 OA
BRANCH  12  14
HETATM   14  O   UNL     1     -44.021 -45.560   9.659  1.00  0.00    -0.773 OA
HETATM   15  H   UNL     1     -44.318 -44.790   9.141  1.00  0.00     0.167 HD
ENDBRANCH  12  14
ENDBRANCH   7  12
BRANCH  11  16
HETATM   16  C   UNL     1     -40.945 -51.313  12.916  1.00  0.00     0.156 C 
BRANCH  16  17
HETATM   17  C   UNL     1     -41.519 -52.308  11.911  1.00  0.00     0.184 C 
BRANCH  17  18
HETATM   18  O   UNL     1     -40.541 -53.249  11.482  1.00  0.00    -0.399 OA
HETATM   19  H   UNL     1     -40.939 -53.786  10.771  1.00  0.00     0.209 HD
ENDBRANCH  17  18
ENDBRANCH  16  17
ENDBRANCH  11  16
TORSDOF 5
ENDMDL
MODEL 4
REMARK VINA RESULT:      -5.1      2.823      3.741
REMARK  5 active torsions:
REMARK  status: ('A' for Active; 'I' for Inactive)
REMARK    1  A    between atoms: C_7  and  C_15 
REMARK    2  A    between atoms: N_11  and  C_12 
REMARK    3  A    between atoms: C_12  and  C_13 
REMARK    4  A    between atoms: C_13  and  O_14 
REMARK    5  A    between atoms: C_15  and  O_17 
ROOT
HETATM    1  C   UNL     1     -45.114 -55.122  13.617  1.00  0.00     0.089 C 
HETATM    2  C   UNL     1     -44.276 -53.942  13.284  1.00  0.00     0.080 A 
HETATM    3  N   UNL     1     -43.044 -54.002  12.824  1.00  0.00    -0.344 N 
ATOM      4  HN  UNL     1     -42.494 -54.843  12.647  1.00  0.00     0.167 HD
HETATM    5  C   UNL     1     -42.649 -52.706  12.632  1.00  0.00     0.061 A 
HETATM    6  C   UNL     1     -41.425 -52.224  12.147  1.00  0.00     0.050 A 
HETATM    7  C   UNL     1     -41.257 -50.838  12.020  1.00  0.00     0.040 A 
HETATM    8  C   UNL     1     -42.278 -49.958  12.409  1.00  0.00     0.021 A 
HETATM    9  C   UNL     1     -43.501 -50.430  12.906  1.00  0.00     0.033 A 
HETATM   10  C   UNL     1     -43.656 -51.818  12.994  1.00  0.00     0.062 A 
HETATM   11  N   UNL     1     -44.687 -52.632  13.415  1.00  0.00    -0.333 N 
ENDROOT
BRANCH   7  12
HETATM   12  C   UNL     1     -39.986 -50.256  11.523  1.00  0.00     0.176 C 
HETATM   13  O   UNL     1     -39.020 -50.073  12.242  1.00  0.00    -0.646 OA
BRANCH  12  14
HETATM   14  O   UNL     1     -40.007 -49.903  10.219  1.00  0.00    -0.773 OA
HETATM   15  H   UNL     1     -40.709 -50.315   9.683  1.00  0.00     0.167 HD
ENDBRANCH  12  14
ENDBRANCH   7  12
BRANCH  11  16
HETATM   16  C   UNL     1     -45.993 -52.183  13.867  1.00  0.00     0.156 C 
BRANCH  16  17
HETATM   17  C   UNL     1     -46.879 -51.676  12.733  1.00  0.00     0.184 C 
BRANCH  17  18
HETATM   18  O   UNL     1     -46.746 -52.473  11.561  1.00  0.00    -0.399 OA
HETATM   19  H   UNL     1     -46.859 -51.887  10.790  1.00  0.00     0.209 HD
ENDBRANCH  17  18
ENDBRANCH  16  17
ENDBRANCH  11  16
TORSDOF 5
ENDMDL
MODEL 5
REMARK VINA RESULT:      -5.1      2.478      3.124
REMARK  5 active torsions:
REMARK  status: ('A' for Active; 'I' for Inactive)
REMARK    1  A    between atoms: C_7  and  C_15 
REMARK    2  A    between atoms: N_11  and  C_12 
REMARK    3  A    between atoms: C_12  and  C_13 
REMARK    4  A    between atoms: C_13  and  O_14 
REMARK    5  A    between atoms: C_15  and  O_17 
ROOT
HETATM    1  C   UNL     1     -46.489 -51.666  14.988  1.00  0.00     0.089 C 
HETATM    2  C   UNL     1     -45.164 -51.707  14.315  1.00  0.00     0.080 A 
HETATM    3  N   UNL     1     -44.587 -50.678  13.732  1.00  0.00    -0.344 N 
ATOM      4  HN  UNL     1     -44.960 -49.732  13.645  1.00  0.00     0.167 HD
HETATM    5  C   UNL     1     -43.385 -51.135  13.264  1.00  0.00     0.061 A 
HETATM    6  C   UNL     1     -42.387 -50.433  12.574  1.00  0.00     0.050 A 
HETATM    7  C   UNL     1     -41.221 -51.117  12.207  1.00  0.00     0.040 A 
HETATM    8  C   UNL     1     -41.079 -52.484  12.490  1.00  0.00     0.021 A 
HETATM    9  C   UNL     1     -42.076 -53.199  13.169  1.00  0.00     0.033 A 
HETATM   10  C   UNL     1     -43.218 -52.485  13.552  1.00  0.00     0.062 A 
HETATM   11  N   UNL     1     -44.373 -52.832  14.221  1.00  0.00    -0.333 N 
ENDROOT
BRANCH   7  12
HETATM   12  C   UNL     1     -40.127 -50.440  11.467  1.00  0.00     0.176 C 
HETATM   13  O   UNL     1     -39.021 -50.261  11.946  1.00  0.00    -0.646 OA
BRANCH  12  14
HETATM   14  O   UNL     1     -40.475 -49.998  10.240  1.00  0.00    -0.773 OA
HETATM   15  H   UNL     1     -41.287 -49.460  10.201  1.00  0.00     0.167 HD
ENDBRANCH  12  14
ENDBRANCH   7  12
BRANCH  11  16
HETATM   16  C   UNL     1     -44.674 -54.142  14.772  1.00  0.00     0.156 C 
BRANCH  16  17
HETATM   17  C   UNL     1     -45.503 -55.013  13.831  1.00  0.00     0.184 C 
BRANCH  17  18
HETATM   18  O   UNL     1     -46.742 -55.394  14.418  1.00  0.00    -0.399 OA
HETATM   19  H   UNL     1     -47.160 -56.049  13.828  1.00  0.00     0.209 HD
ENDBRANCH  17  18
ENDBRANCH  16  17
ENDBRANCH  11  16
TORSDOF 5
ENDMDL
MODEL 6
REMARK VINA RESULT:      -5.1      5.938      7.244
REMARK  5 active torsions:
REMARK  status: ('A' for Active; 'I' for Inactive)
REMARK    1  A    between atoms: C_7  and  C_15 
REMARK    2  A    between atoms: N_11  and  C_12 
REMARK    3  A    between atoms: C_12  and  C_13 
REMARK    4  A    between atoms: C_13  and  O_14 
REMARK    5  A    between atoms: C_15  and  O_17 
ROOT
HETATM    1  C   UNL     1     -39.766 -45.164  10.466  1.00  0.00     0.089 C 
HETATM    2  C   UNL     1     -40.213 -46.517  10.886  1.00  0.00     0.080 A 
HETATM    3  N   UNL     1     -39.418 -47.555  11.043  1.00  0.00    -0.344 N 
ATOM      4  HN  UNL     1     -38.410 -47.586  10.890  1.00  0.00     0.167 HD
HETATM    5  C   UNL     1     -40.220 -48.585  11.453  1.00  0.00     0.061 A 
HETATM    6  C   UNL     1     -39.863 -49.904  11.765  1.00  0.00     0.050 A 
HETATM    7  C   UNL     1     -40.869 -50.787  12.184  1.00  0.00     0.040 A 
HETATM    8  C   UNL     1     -42.205 -50.365  12.247  1.00  0.00     0.021 A 
HETATM    9  C   UNL     1     -42.575 -49.051  11.924  1.00  0.00     0.033 A 
HETATM   10  C   UNL     1     -41.548 -48.181  11.540  1.00  0.00     0.062 A 
HETATM   11  N   UNL     1     -41.521 -46.854  11.166  1.00  0.00    -0.333 N 
ENDROOT
BRANCH   7  12
HETATM   12  C   UNL     1     -40.566 -52.200  12.522  1.00  0.00     0.176 C 
HETATM   13  O   UNL     1     -40.284 -52.560  13.651  1.00  0.00    -0.646 OA
BRANCH  12  14
HETATM   14  O   UNL     1     -40.582 -53.041  11.466  1.00  0.00    -0.773 OA
HETATM   15  H   UNL     1     -40.264 -52.666  10.624  1.00  0.00     0.167 HD
ENDBRANCH  12  14
ENDBRANCH   7  12
BRANCH  11  16
HETATM   16  C   UNL     1     -42.665 -45.959  11.126  1.00  0.00     0.156 C 
BRANCH  16  17
HETATM   17  C   UNL     1     -43.290 -45.846   9.738  1.00  0.00     0.184 C 
BRANCH  17  18
HETATM   18  O   UNL     1     -43.768 -44.531   9.480  1.00  0.00    -0.399 OA
HETATM   19  H   UNL     1     -44.368 -44.580   8.711  1.00  0.00     0.209 HD
ENDBRANCH  17  18
ENDBRANCH  16  17
ENDBRANCH  11  16
TORSDOF 5
ENDMDL
MODEL 7
REMARK VINA RESULT:      -5.0      1.836      2.811
REMARK  5 active torsions:
REMARK  status: ('A' for Active; 'I' for Inactive)
REMARK    1  A    between atoms: C_7  and  C_15 
REMARK    2  A    between atoms: N_11  and  C_12 
REMARK    3  A    between atoms: C_12  and  C_13 
REMARK    4  A    between atoms: C_13  and  O_14 
REMARK    5  A    between atoms: C_15  and  O_17 
ROOT
HETATM    1  C   UNL     1     -45.709 -54.004  17.516  1.00  0.00     0.089 C 
HETATM    2  C   UNL     1     -44.566 -54.036  16.568  1.00  0.00     0.080 A 
HETATM    3  N   UNL     1     -43.297 -54.015  16.920  1.00  0.00    -0.344 N 
ATOM      4  HN  UNL     1     -42.924 -53.961  17.868  1.00  0.00     0.167 HD
HETATM    5  C   UNL     1     -42.582 -54.080  15.756  1.00  0.00     0.061 A 
HETATM    6  C   UNL     1     -41.191 -54.097  15.580  1.00  0.00     0.050 A 
HETATM    7  C   UNL     1     -40.683 -54.186  14.277  1.00  0.00     0.040 A 
HETATM    8  C   UNL     1     -41.551 -54.215  13.175  1.00  0.00     0.021 A 
HETATM    9  C   UNL     1     -42.944 -54.185  13.339  1.00  0.00     0.033 A 
HETATM   10  C   UNL     1     -43.426 -54.128  14.652  1.00  0.00     0.062 A 
HETATM   11  N   UNL     1     -44.693 -54.093  15.196  1.00  0.00    -0.333 N 
ENDROOT
BRANCH   7  12
HETATM   12  C   UNL     1     -39.222 -54.200  14.015  1.00  0.00     0.176 C 
HETATM   13  O   UNL     1     -38.618 -53.224  13.605  1.00  0.00    -0.646 OA
BRANCH  12  14
HETATM   14  O   UNL     1     -38.631 -55.396  14.222  1.00  0.00    -0.773 OA
HETATM   15  H   UNL     1     -38.888 -55.856  15.042  1.00  0.00     0.167 HD
ENDBRANCH  12  14
ENDBRANCH   7  12
BRANCH  11  16
HETATM   16  C   UNL     1     -45.939 -54.157  14.451  1.00  0.00     0.156 C 
BRANCH  16  17
HETATM   17  C   UNL     1     -46.261 -52.862  13.708  1.00  0.00     0.184 C 
BRANCH  17  18
HETATM   18  O   UNL     1     -46.251 -53.046  12.297  1.00  0.00    -0.399 OA
HETATM   19  H   UNL     1     -47.004 -53.624  12.069  1.00  0.00     0.209 HD
ENDBRANCH  17  18
ENDBRANCH  16  17
ENDBRANCH  11  16
TORSDOF 5
ENDMDL
MODEL 8
REMARK VINA RESULT:      -5.0      1.638      1.908
REMARK  5 active torsions:
REMARK  status: ('A' for Active; 'I' for Inactive)
REMARK    1  A    between atoms: C_7  and  C_15 
REMARK    2  A    between atoms: N_11  and  C_12 
REMARK    3  A    between atoms: C_12  and  C_13 
REMARK    4  A    between atoms: C_13  and  O_14 
REMARK    5  A    between atoms: C_15  and  O_17 
ROOT
HETATM    1  C   UNL     1     -47.099 -51.346  15.231  1.00  0.00     0.089 C 
HETATM    2  C   UNL     1     -45.819 -52.006  14.867  1.00  0.00     0.080 A 
HETATM    3  N   UNL     1     -44.905 -51.486  14.074  1.00  0.00    -0.344 N 
ATOM      4  HN  UNL     1     -44.947 -50.586  13.595  1.00  0.00     0.167 HD
HETATM    5  C   UNL     1     -43.888 -52.400  14.022  1.00  0.00     0.061 A 
HETATM    6  C   UNL     1     -42.676 -52.324  13.322  1.00  0.00     0.050 A 
HETATM    7  C   UNL     1     -41.771 -53.388  13.435  1.00  0.00     0.040 A 
HETATM    8  C   UNL     1     -42.095 -54.519  14.201  1.00  0.00     0.021 A 
HETATM    9  C   UNL     1     -43.310 -54.610  14.894  1.00  0.00     0.033 A 
HETATM   10  C   UNL     1     -44.183 -53.520  14.790  1.00  0.00     0.062 A 
HETATM   11  N   UNL     1     -45.427 -53.249  15.318  1.00  0.00    -0.333 N 
ENDROOT
BRANCH   7  12
HETATM   12  C   UNL     1     -40.473 -53.381  12.716  1.00  0.00     0.176 C 
HETATM   13  O   UNL     1     -39.400 -53.396  13.293  1.00  0.00    -0.646 OA
BRANCH  12  14
HETATM   14  O   UNL     1     -40.582 -53.307  11.372  1.00  0.00    -0.773 OA
HETATM   15  H   UNL     1     -41.142 -53.989  10.957  1.00  0.00     0.167 HD
ENDBRANCH  12  14
ENDBRANCH   7  12
BRANCH  11  16
HETATM   16  C   UNL     1     -46.168 -54.104  16.229  1.00  0.00     0.156 C 
BRANCH  16  17
HETATM   17  C   UNL     1     -45.732 -53.952  17.684  1.00  0.00     0.184 C 
BRANCH  17  18
HETATM   18  O   UNL     1     -44.890 -55.023  18.098  1.00  0.00    -0.399 OA
HETATM   19  H   UNL     1     -44.472 -55.396  17.299  1.00  0.00     0.209 HD
ENDBRANCH  17  18
ENDBRANCH  16  17
ENDBRANCH  11  16
TORSDOF 5
ENDMDL
MODEL 9
REMARK VINA RESULT:      -4.9      4.460      5.690
REMARK  5 active torsions:
REMARK  status: ('A' for Active; 'I' for Inactive)
REMARK    1  A    between atoms: C_7  and  C_15 
REMARK    2  A    between atoms: N_11  and  C_12 
REMARK    3  A    between atoms: C_12  and  C_13 
REMARK    4  A    between atoms: C_13  and  O_14 
REMARK    5  A    between atoms: C_15  and  O_17 
ROOT
HETATM    1  C   UNL     1     -40.815 -53.964  12.932  1.00  0.00     0.089 C 
HETATM    2  C   UNL     1     -41.169 -52.554  12.621  1.00  0.00     0.080 A 
HETATM    3  N   UNL     1     -40.426 -51.733  11.909  1.00  0.00    -0.344 N 
ATOM      4  HN  UNL     1     -39.517 -51.933  11.491  1.00  0.00     0.167 HD
HETATM    5  C   UNL     1     -41.120 -50.556  11.845  1.00  0.00     0.061 A 
HETATM    6  C   UNL     1     -40.768 -49.364  11.197  1.00  0.00     0.050 A 
HETATM    7  C   UNL     1     -41.658 -48.283  11.258  1.00  0.00     0.040 A 
HETATM    8  C   UNL     1     -42.853 -48.385  11.986  1.00  0.00     0.021 A 
HETATM    9  C   UNL     1     -43.208 -49.568  12.648  1.00  0.00     0.033 A 
HETATM   10  C   UNL     1     -42.317 -50.643  12.547  1.00  0.00     0.062 A 
HETATM   11  N   UNL     1     -42.325 -51.931  13.040  1.00  0.00    -0.333 N 
ENDROOT
BRANCH   7  12
HETATM   12  C   UNL     1     -41.348 -46.988  10.603  1.00  0.00     0.176 C 
HETATM   13  O   UNL     1     -42.211 -46.246  10.168  1.00  0.00    -0.646 OA
BRANCH  12  14
HETATM   14  O   UNL     1     -40.028 -46.724  10.488  1.00  0.00    -0.773 OA
HETATM   15  H   UNL     1     -39.802 -45.932   9.966  1.00  0.00     0.167 HD
ENDBRANCH  12  14
ENDBRANCH   7  12
BRANCH  11  16
HETATM   16  C   UNL     1     -43.391 -52.534  13.821  1.00  0.00     0.156 C 
BRANCH  16  17
HETATM   17  C   UNL     1     -44.588 -52.961  12.975  1.00  0.00     0.184 C 
BRANCH  17  18
HETATM   18  O   UNL     1     -44.267 -54.050  12.117  1.00  0.00    -0.399 OA
HETATM   19  H   UNL     1     -44.461 -54.875  12.600  1.00  0.00     0.209 HD
ENDBRANCH  17  18
ENDBRANCH  16  17
ENDBRANCH  11  16
TORSDOF 5
ENDMDL
