MODEL 1
REMARK VINA RESULT:      -6.6      0.000      0.000
REMARK  3 active torsions:
REMARK  status: ('A' for Active; 'I' for Inactive)
REMARK    1  A    between atoms: C_2  and  C_5 
REMARK    2  A    between atoms: C_10  and  N_11 
REMARK       I    between atoms: N_11  and  C_12 
REMARK    3  A    between atoms: C_12  and  C_14 
ROOT
HETATM    1  C   UNL     1     -45.276 -47.373   9.131  1.00  0.00     0.065 A 
HETATM    2  C   UNL     1     -45.208 -46.034   9.043  1.00  0.00     0.107 A 
HETATM    3  N   UNL     1     -44.026 -45.375   9.275  1.00  0.00    -0.331 N 
HETATM    4  C   UNL     1     -42.839 -46.001   9.591  1.00  0.00     0.272 A 
HETATM    5  O   UNL     1     -41.797 -45.377   9.775  1.00  0.00    -0.266 OA
HETATM    6  C   UNL     1     -42.886 -47.507   9.705  1.00  0.00     0.104 A 
HETATM    7  C   UNL     1     -44.072 -48.102   9.494  1.00  0.00     0.052 A 
HETATM    8  H   UNL     1     -43.985 -44.365   9.200  1.00  0.00     0.168 HD
ENDROOT
BRANCH   6   9
HETATM    9  N   UNL     1     -41.703 -48.160  10.006  1.00  0.00    -0.320 N 
HETATM   10  C   UNL     1     -41.376 -48.773  11.195  1.00  0.00     0.251 C 
HETATM   11  O   UNL     1     -42.079 -48.797  12.207  1.00  0.00    -0.270 OA
HETATM   12  H   UNL     1     -41.009 -48.201   9.255  1.00  0.00     0.169 HD
BRANCH  10  13
HETATM   13  C   UNL     1     -40.010 -49.464  11.221  1.00  0.00     0.213 C 
HETATM   14  C   UNL     1     -40.067 -50.692  12.120  1.00  0.00     0.044 C 
HETATM   15  C   UNL     1     -38.663 -50.829  12.666  1.00  0.00     0.029 C 
HETATM   16  C   UNL     1     -37.899 -49.696  12.013  1.00  0.00     0.168 C 
HETATM   17  O   UNL     1     -38.892 -48.711  11.682  1.00  0.00    -0.376 OA
ENDBRANCH  10  13
ENDBRANCH   6   9
BRANCH   1  18
HETATM   18  C   UNL     1     -46.535 -48.147   8.851  1.00  0.00     0.418 C 
HETATM   19  F   UNL     1     -46.728 -49.192   9.695  1.00  0.00    -0.166 F 
HETATM   20  F   UNL     1     -46.528 -48.661   7.594  1.00  0.00    -0.166 F 
HETATM   21  F   UNL     1     -47.639 -47.362   8.945  1.00  0.00    -0.166 F 
ENDBRANCH   1  18
TORSDOF 3
ENDMDL
MODEL 2
REMARK VINA RESULT:      -6.0      2.659      3.671
REMARK  3 active torsions:
REMARK  status: ('A' for Active; 'I' for Inactive)
REMARK    1  A    between atoms: C_2  and  C_5 
REMARK    2  A    between atoms: C_10  and  N_11 
REMARK       I    between atoms: N_11  and  C_12 
REMARK    3  A    between atoms: C_12  and  C_14 
ROOT
HETATM    1  C   UNL     1     -42.434 -46.594  10.021  1.00  0.00     0.065 A 
HETATM    2  C   UNL     1     -41.466 -45.788  10.488  1.00  0.00     0.107 A 
HETATM    3  N   UNL     1     -40.403 -46.302  11.189  1.00  0.00    -0.331 N 
HETATM    4  C   UNL     1     -40.225 -47.643  11.455  1.00  0.00     0.272 A 
HETATM    5  O   UNL     1     -39.250 -48.065  12.072  1.00  0.00    -0.266 OA
HETATM    6  C   UNL     1     -41.301 -48.573  10.948  1.00  0.00     0.104 A 
HETATM    7  C   UNL     1     -42.334 -48.019  10.291  1.00  0.00     0.052 A 
HETATM    8  H   UNL     1     -39.676 -45.684  11.531  1.00  0.00     0.168 HD
ENDROOT
BRANCH   6   9
HETATM    9  N   UNL     1     -41.138 -49.928  11.190  1.00  0.00    -0.320 N 
HETATM   10  C   UNL     1     -41.774 -50.678  12.152  1.00  0.00     0.251 C 
HETATM   11  O   UNL     1     -42.568 -50.248  12.991  1.00  0.00    -0.270 OA
HETATM   12  H   UNL     1     -40.484 -50.417  10.573  1.00  0.00     0.169 HD
BRANCH  10  13
HETATM   13  C   UNL     1     -41.431 -52.171  12.149  1.00  0.00     0.213 C 
HETATM   14  C   UNL     1     -42.546 -52.961  12.823  1.00  0.00     0.044 C 
HETATM   15  C   UNL     1     -41.850 -54.160  13.427  1.00  0.00     0.029 C 
HETATM   16  C   UNL     1     -40.400 -53.990  13.025  1.00  0.00     0.168 C 
HETATM   17  O   UNL     1     -40.233 -52.580  12.802  1.00  0.00    -0.376 OA
ENDBRANCH  10  13
ENDBRANCH   6   9
BRANCH   1  18
HETATM   18  C   UNL     1     -43.600 -46.089   9.216  1.00  0.00     0.418 C 
HETATM   19  F   UNL     1     -43.839 -44.763   9.382  1.00  0.00    -0.166 F 
HETATM   20  F   UNL     1     -44.747 -46.734   9.551  1.00  0.00    -0.166 F 
HETATM   21  F   UNL     1     -43.415 -46.288   7.885  1.00  0.00    -0.166 F 
ENDBRANCH   1  18
TORSDOF 3
ENDMDL
MODEL 3
REMARK VINA RESULT:      -5.9      4.793      7.029
REMARK  3 active torsions:
REMARK  status: ('A' for Active; 'I' for Inactive)
REMARK    1  A    between atoms: C_2  and  C_5 
REMARK    2  A    between atoms: C_10  and  N_11 
REMARK       I    between atoms: N_11  and  C_12 
REMARK    3  A    between atoms: C_12  and  C_14 
ROOT
HETATM    1  C   UNL     1     -39.231 -49.174  11.689  1.00  0.00     0.065 A 
HETATM    2  C   UNL     1     -40.186 -49.849  11.028  1.00  0.00     0.107 A 
HETATM    3  N   UNL     1     -41.287 -49.198  10.527  1.00  0.00    -0.331 N 
HETATM    4  C   UNL     1     -41.500 -47.840  10.635  1.00  0.00     0.272 A 
HETATM    5  O   UNL     1     -42.490 -47.292  10.159  1.00  0.00    -0.266 OA
HETATM    6  C   UNL     1     -40.445 -47.055  11.380  1.00  0.00     0.104 A 
HETATM    7  C   UNL     1     -39.401 -47.742  11.873  1.00  0.00     0.052 A 
HETATM    8  H   UNL     1     -41.998 -49.717  10.026  1.00  0.00     0.168 HD
ENDROOT
BRANCH   6   9
HETATM    9  N   UNL     1     -40.629 -45.686  11.489  1.00  0.00    -0.320 N 
HETATM   10  C   UNL     1     -40.057 -44.711  10.704  1.00  0.00     0.251 C 
HETATM   11  O   UNL     1     -39.246 -44.903   9.797  1.00  0.00    -0.270 OA
HETATM   12  H   UNL     1     -41.271 -45.377  12.223  1.00  0.00     0.169 HD
BRANCH  10  13
HETATM   13  C   UNL     1     -40.488 -43.277  11.026  1.00  0.00     0.213 C 
HETATM   14  C   UNL     1     -40.525 -43.072  12.535  1.00  0.00     0.044 C 
HETATM   15  C   UNL     1     -41.600 -42.031  12.750  1.00  0.00     0.029 C 
HETATM   16  C   UNL     1     -42.072 -41.689  11.353  1.00  0.00     0.168 C 
HETATM   17  O   UNL     1     -41.761 -42.843  10.555  1.00  0.00    -0.376 OA
ENDBRANCH  10  13
ENDBRANCH   6   9
BRANCH   1  18
HETATM   18  C   UNL     1     -37.988 -49.831  12.224  1.00  0.00     0.418 C 
HETATM   19  F   UNL     1     -38.171 -51.129  12.577  1.00  0.00    -0.166 F 
HETATM   20  F   UNL     1     -37.529 -49.190  13.330  1.00  0.00    -0.166 F 
HETATM   21  F   UNL     1     -36.979 -49.812  11.316  1.00  0.00    -0.166 F 
ENDBRANCH   1  18
TORSDOF 3
ENDMDL
MODEL 4
REMARK VINA RESULT:      -5.8      4.426      6.677
REMARK  3 active torsions:
REMARK  status: ('A' for Active; 'I' for Inactive)
REMARK    1  A    between atoms: C_2  and  C_5 
REMARK    2  A    between atoms: C_10  and  N_11 
REMARK       I    between atoms: N_11  and  C_12 
REMARK    3  A    between atoms: C_12  and  C_14 
ROOT
HETATM    1  C   UNL     1     -43.698 -53.939  13.599  1.00  0.00     0.065 A 
HETATM    2  C   UNL     1     -42.625 -54.627  14.023  1.00  0.00     0.107 A 
HETATM    3  N   UNL     1     -41.355 -54.207  13.712  1.00  0.00    -0.331 N 
HETATM    4  C   UNL     1     -41.070 -53.074  12.978  1.00  0.00     0.272 A 
HETATM    5  O   UNL     1     -39.919 -52.722  12.735  1.00  0.00    -0.266 OA
HETATM    6  C   UNL     1     -42.258 -52.284  12.482  1.00  0.00     0.104 A 
HETATM    7  C   UNL     1     -43.480 -52.751  12.791  1.00  0.00     0.052 A 
HETATM    8  H   UNL     1     -40.552 -54.730  14.042  1.00  0.00     0.168 HD
ENDROOT
BRANCH   6   9
HETATM    9  N   UNL     1     -41.999 -51.133  11.756  1.00  0.00    -0.320 N 
HETATM   10  C   UNL     1     -41.815 -49.864  12.256  1.00  0.00     0.251 C 
HETATM   11  O   UNL     1     -41.896 -49.541  13.442  1.00  0.00    -0.270 OA
HETATM   12  H   UNL     1     -41.924 -51.250  10.742  1.00  0.00     0.169 HD
BRANCH  10  13
HETATM   13  C   UNL     1     -41.489 -48.791  11.213  1.00  0.00     0.213 C 
HETATM   14  C   UNL     1     -40.251 -48.013  11.637  1.00  0.00     0.044 C 
HETATM   15  C   UNL     1     -40.450 -46.632  11.052  1.00  0.00     0.029 C 
HETATM   16  C   UNL     1     -41.765 -46.732  10.307  1.00  0.00     0.168 C 
HETATM   17  O   UNL     1     -42.480 -47.803  10.943  1.00  0.00    -0.376 OA
ENDBRANCH  10  13
ENDBRANCH   6   9
BRANCH   1  18
HETATM   18  C   UNL     1     -45.108 -54.333  13.942  1.00  0.00     0.418 C 
HETATM   19  F   UNL     1     -46.049 -53.596  13.297  1.00  0.00    -0.166 F 
HETATM   20  F   UNL     1     -45.351 -54.192  15.271  1.00  0.00    -0.166 F 
HETATM   21  F   UNL     1     -45.355 -55.633  13.637  1.00  0.00    -0.166 F 
ENDBRANCH   1  18
TORSDOF 3
ENDMDL
MODEL 5
REMARK VINA RESULT:      -5.8      5.197      6.496
REMARK  3 active torsions:
REMARK  status: ('A' for Active; 'I' for Inactive)
REMARK    1  A    between atoms: C_2  and  C_5 
REMARK    2  A    between atoms: C_10  and  N_11 
REMARK       I    between atoms: N_11  and  C_12 
REMARK    3  A    between atoms: C_12  and  C_14 
ROOT
HETATM    1  C   UNL     1     -45.266 -52.562  14.541  1.00  0.00     0.065 A 
HETATM    2  C   UNL     1     -45.276 -53.904  14.611  1.00  0.00     0.107 A 
HETATM    3  N   UNL     1     -44.113 -54.621  14.472  1.00  0.00    -0.331 N 
HETATM    4  C   UNL     1     -42.871 -54.055  14.273  1.00  0.00     0.272 A 
HETATM    5  O   UNL     1     -41.851 -54.731  14.170  1.00  0.00    -0.266 OA
HETATM    6  C   UNL     1     -42.831 -52.548  14.184  1.00  0.00     0.104 A 
HETATM    7  C   UNL     1     -43.999 -51.893  14.300  1.00  0.00     0.052 A 
HETATM    8  H   UNL     1     -44.131 -55.633  14.532  1.00  0.00     0.168 HD
ENDROOT
BRANCH   6   9
HETATM    9  N   UNL     1     -41.593 -51.954  14.000  1.00  0.00    -0.320 N 
HETATM   10  C   UNL     1     -40.940 -51.756  12.804  1.00  0.00     0.251 C 
HETATM   11  O   UNL     1     -41.342 -52.122  11.698  1.00  0.00    -0.270 OA
HETATM   12  H   UNL     1     -41.128 -51.615  14.846  1.00  0.00     0.169 HD
BRANCH  10  13
HETATM   13  C   UNL     1     -39.600 -51.021  12.904  1.00  0.00     0.213 C 
HETATM   14  C   UNL     1     -39.497 -49.979  11.798  1.00  0.00     0.044 C 
HETATM   15  C   UNL     1     -38.016 -49.881  11.506  1.00  0.00     0.029 C 
HETATM   16  C   UNL     1     -37.380 -50.843  12.488  1.00  0.00     0.168 C 
HETATM   17  O   UNL     1     -38.408 -51.795  12.805  1.00  0.00    -0.376 OA
ENDBRANCH  10  13
ENDBRANCH   6   9
BRANCH   1  18
HETATM   18  C   UNL     1     -46.504 -51.726  14.724  1.00  0.00     0.418 C 
HETATM   19  F   UNL     1     -47.578 -52.436  15.154  1.00  0.00    -0.166 F 
HETATM   20  F   UNL     1     -46.874 -51.132  13.560  1.00  0.00    -0.166 F 
HETATM   21  F   UNL     1     -46.308 -50.731  15.626  1.00  0.00    -0.166 F 
ENDBRANCH   1  18
TORSDOF 3
ENDMDL
MODEL 6
REMARK VINA RESULT:      -5.8      4.051      5.257
REMARK  3 active torsions:
REMARK  status: ('A' for Active; 'I' for Inactive)
REMARK    1  A    between atoms: C_2  and  C_5 
REMARK    2  A    between atoms: C_10  and  N_11 
REMARK       I    between atoms: N_11  and  C_12 
REMARK    3  A    between atoms: C_12  and  C_14 
ROOT
HETATM    1  C   UNL     1     -44.971 -51.930  13.153  1.00  0.00     0.065 A 
HETATM    2  C   UNL     1     -44.617 -53.051  12.503  1.00  0.00     0.107 A 
HETATM    3  N   UNL     1     -43.339 -53.213  12.027  1.00  0.00    -0.331 N 
HETATM    4  C   UNL     1     -42.331 -52.285  12.181  1.00  0.00     0.272 A 
HETATM    5  O   UNL     1     -41.194 -52.474  11.756  1.00  0.00    -0.266 OA
HETATM    6  C   UNL     1     -42.701 -51.010  12.903  1.00  0.00     0.104 A 
HETATM    7  C   UNL     1     -43.971 -50.889  13.326  1.00  0.00     0.052 A 
HETATM    8  H   UNL     1     -43.082 -54.065  11.543  1.00  0.00     0.168 HD
ENDROOT
BRANCH   6   9
HETATM    9  N   UNL     1     -41.702 -50.068  13.085  1.00  0.00    -0.320 N 
HETATM   10  C   UNL     1     -41.369 -49.041  12.231  1.00  0.00     0.251 C 
HETATM   11  O   UNL     1     -41.887 -48.823  11.134  1.00  0.00    -0.270 OA
HETATM   12  H   UNL     1     -41.169 -50.141  13.955  1.00  0.00     0.169 HD
BRANCH  10  13
HETATM   13  C   UNL     1     -40.248 -48.119  12.722  1.00  0.00     0.213 C 
HETATM   14  C   UNL     1     -38.916 -48.856  12.684  1.00  0.00     0.044 C 
HETATM   15  C   UNL     1     -38.107 -48.236  13.801  1.00  0.00     0.029 C 
HETATM   16  C   UNL     1     -39.017 -47.169  14.370  1.00  0.00     0.168 C 
HETATM   17  O   UNL     1     -40.350 -47.594  14.042  1.00  0.00    -0.376 OA
ENDBRANCH  10  13
ENDBRANCH   6   9
BRANCH   1  18
HETATM   18  C   UNL     1     -46.345 -51.717  13.726  1.00  0.00     0.418 C 
HETATM   19  F   UNL     1     -46.354 -50.930  14.833  1.00  0.00    -0.166 F 
HETATM   20  F   UNL     1     -46.918 -52.895  14.085  1.00  0.00    -0.166 F 
HETATM   21  F   UNL     1     -47.179 -51.134  12.828  1.00  0.00    -0.166 F 
ENDBRANCH   1  18
TORSDOF 3
ENDMDL
MODEL 7
REMARK VINA RESULT:      -5.7      5.638      6.710
REMARK  3 active torsions:
REMARK  status: ('A' for Active; 'I' for Inactive)
REMARK    1  A    between atoms: C_2  and  C_5 
REMARK    2  A    between atoms: C_10  and  N_11 
REMARK       I    between atoms: N_11  and  C_12 
REMARK    3  A    between atoms: C_12  and  C_14 
ROOT
HETATM    1  C   UNL     1     -46.625 -51.858  15.375  1.00  0.00     0.065 A 
HETATM    2  C   UNL     1     -47.013 -53.052  14.898  1.00  0.00     0.107 A 
HETATM    3  N   UNL     1     -46.452 -53.568  13.756  1.00  0.00    -0.331 N 
HETATM    4  C   UNL     1     -45.462 -52.943  13.028  1.00  0.00     0.272 A 
HETATM    5  O   UNL     1     -44.972 -53.445  12.020  1.00  0.00    -0.266 OA
HETATM    6  C   UNL     1     -45.009 -51.594  13.537  1.00  0.00     0.104 A 
HETATM    7  C   UNL     1     -45.608 -51.121  14.643  1.00  0.00     0.052 A 
HETATM    8  H   UNL     1     -46.749 -54.472  13.409  1.00  0.00     0.168 HD
ENDROOT
BRANCH   6   9
HETATM    9  N   UNL     1     -44.004 -50.952  12.831  1.00  0.00    -0.320 N 
HETATM   10  C   UNL     1     -42.651 -51.023  13.071  1.00  0.00     0.251 C 
HETATM   11  O   UNL     1     -42.116 -51.644  13.991  1.00  0.00    -0.270 OA
HETATM   12  H   UNL     1     -44.308 -50.378  12.041  1.00  0.00     0.169 HD
BRANCH  10  13
HETATM   13  C   UNL     1     -41.771 -50.243  12.089  1.00  0.00     0.213 C 
HETATM   14  C   UNL     1     -40.427 -49.928  12.734  1.00  0.00     0.044 C 
HETATM   15  C   UNL     1     -39.992 -48.631  12.090  1.00  0.00     0.029 C 
HETATM   16  C   UNL     1     -41.095 -48.319  11.101  1.00  0.00     0.168 C 
HETATM   17  O   UNL     1     -42.258 -48.995  11.606  1.00  0.00    -0.376 OA
ENDBRANCH  10  13
ENDBRANCH   6   9
BRANCH   1  18
HETATM   18  C   UNL     1     -47.179 -51.264  16.641  1.00  0.00     0.418 C 
HETATM   19  F   UNL     1     -48.432 -50.760  16.499  1.00  0.00    -0.166 F 
HETATM   20  F   UNL     1     -46.402 -50.245  17.089  1.00  0.00    -0.166 F 
HETATM   21  F   UNL     1     -47.238 -52.180  17.641  1.00  0.00    -0.166 F 
ENDBRANCH   1  18
TORSDOF 3
ENDMDL
MODEL 8
REMARK VINA RESULT:      -5.7      6.250      7.767
REMARK  3 active torsions:
REMARK  status: ('A' for Active; 'I' for Inactive)
REMARK    1  A    between atoms: C_2  and  C_5 
REMARK    2  A    between atoms: C_10  and  N_11 
REMARK       I    between atoms: N_11  and  C_12 
REMARK    3  A    between atoms: C_12  and  C_14 
ROOT
HETATM    1  C   UNL     1     -44.131 -54.029  13.501  1.00  0.00     0.065 A 
HETATM    2  C   UNL     1     -43.995 -53.288  12.388  1.00  0.00     0.107 A 
HETATM    3  N   UNL     1     -42.753 -52.894  11.955  1.00  0.00    -0.331 N 
HETATM    4  C   UNL     1     -41.572 -53.221  12.587  1.00  0.00     0.272 A 
HETATM    5  O   UNL     1     -40.478 -52.863  12.159  1.00  0.00    -0.266 OA
HETATM    6  C   UNL     1     -41.694 -54.048  13.845  1.00  0.00     0.104 A 
HETATM    7  C   UNL     1     -42.932 -54.387  14.241  1.00  0.00     0.052 A 
HETATM    8  H   UNL     1     -42.662 -52.340  11.112  1.00  0.00     0.168 HD
ENDROOT
BRANCH   6   9
HETATM    9  N   UNL     1     -40.520 -54.404  14.489  1.00  0.00    -0.320 N 
HETATM   10  C   UNL     1     -39.966 -53.796  15.593  1.00  0.00     0.251 C 
HETATM   11  O   UNL     1     -40.411 -52.798  16.162  1.00  0.00    -0.270 OA
HETATM   12  H   UNL     1     -40.027 -55.215  14.107  1.00  0.00     0.169 HD
BRANCH  10  13
HETATM   13  C   UNL     1     -38.683 -54.444  16.121  1.00  0.00     0.213 C 
HETATM   14  C   UNL     1     -38.919 -55.926  16.382  1.00  0.00     0.044 C 
HETATM   15  C   UNL     1     -37.979 -56.267  17.516  1.00  0.00     0.029 C 
HETATM   16  C   UNL     1     -37.249 -54.970  17.796  1.00  0.00     0.168 C 
HETATM   17  O   UNL     1     -38.128 -53.933  17.330  1.00  0.00    -0.376 OA
ENDBRANCH  10  13
ENDBRANCH   6   9
BRANCH   1  18
HETATM   18  C   UNL     1     -45.463 -54.519  13.998  1.00  0.00     0.418 C 
HETATM   19  F   UNL     1     -45.775 -55.768  13.568  1.00  0.00    -0.166 F 
HETATM   20  F   UNL     1     -46.472 -53.706  13.589  1.00  0.00    -0.166 F 
HETATM   21  F   UNL     1     -45.512 -54.550  15.354  1.00  0.00    -0.166 F 
ENDBRANCH   1  18
TORSDOF 3
ENDMDL
MODEL 9
REMARK VINA RESULT:      -5.6      4.569      7.433
REMARK  3 active torsions:
REMARK  status: ('A' for Active; 'I' for Inactive)
REMARK    1  A    between atoms: C_2  and  C_5 
REMARK    2  A    between atoms: C_10  and  N_11 
REMARK       I    between atoms: N_11  and  C_12 
REMARK    3  A    between atoms: C_12  and  C_14 
ROOT
HETATM    1  C   UNL     1     -38.975 -50.677  12.842  1.00  0.00     0.065 A 
HETATM    2  C   UNL     1     -39.595 -51.510  13.695  1.00  0.00     0.107 A 
HETATM    3  N   UNL     1     -40.962 -51.645  13.674  1.00  0.00    -0.331 N 
HETATM    4  C   UNL     1     -41.794 -50.978  12.800  1.00  0.00     0.272 A 
HETATM    5  O   UNL     1     -43.012 -51.138  12.801  1.00  0.00    -0.266 OA
HETATM    6  C   UNL     1     -41.125 -50.029  11.833  1.00  0.00     0.104 A 
HETATM    7  C   UNL     1     -39.788 -49.913  11.911  1.00  0.00     0.052 A 
HETATM    8  H   UNL     1     -41.419 -52.280  14.318  1.00  0.00     0.168 HD
ENDROOT
BRANCH   6   9
HETATM    9  N   UNL     1     -41.937 -49.359  10.933  1.00  0.00    -0.320 N 
HETATM   10  C   UNL     1     -42.439 -48.084  11.063  1.00  0.00     0.251 C 
HETATM   11  O   UNL     1     -42.277 -47.344  12.035  1.00  0.00    -0.270 OA
HETATM   12  H   UNL     1     -42.173 -49.867  10.077  1.00  0.00     0.169 HD
BRANCH  10  13
HETATM   13  C   UNL     1     -43.270 -47.584   9.877  1.00  0.00     0.213 C 
HETATM   14  C   UNL     1     -42.923 -46.132   9.576  1.00  0.00     0.044 C 
HETATM   15  C   UNL     1     -44.195 -45.548   9.005  1.00  0.00     0.029 C 
HETATM   16  C   UNL     1     -45.163 -46.713   8.986  1.00  0.00     0.168 C 
HETATM   17  O   UNL     1     -44.689 -47.614  10.000  1.00  0.00    -0.376 OA
ENDBRANCH  10  13
ENDBRANCH   6   9
BRANCH   1  18
HETATM   18  C   UNL     1     -37.480 -50.520  12.797  1.00  0.00     0.418 C 
HETATM   19  F   UNL     1     -37.072 -49.414  12.124  1.00  0.00    -0.166 F 
HETATM   20  F   UNL     1     -36.890 -51.582  12.188  1.00  0.00    -0.166 F 
HETATM   21  F   UNL     1     -36.946 -50.438  14.042  1.00  0.00    -0.166 F 
ENDBRANCH   1  18
TORSDOF 3
ENDMDL
