MODEL 1
REMARK VINA RESULT:      -6.3      0.000      0.000
REMARK  6 active torsions:
REMARK  status: ('A' for Active; 'I' for Inactive)
REMARK    1  A    between atoms: C_2  and  N_3 
REMARK    2  A    between atoms: N_4  and  C_14 
REMARK    3  A    between atoms: C_11  and  C_25 
REMARK    4  A    between atoms: C_14  and  C_15 
REMARK    5  A    between atoms: C_15  and  O_22 
REMARK    6  A    between atoms: C_25  and  O_26 
ROOT
HETATM    1  C   UNL     1     -40.286 -50.485  12.786  1.00  0.00     0.122 A 
HETATM    2  C   UNL     1     -39.148 -51.191  13.237  1.00  0.00     0.136 A 
HETATM    3  N   UNL     1     -41.346 -49.078  11.492  1.00  0.00    -0.324 N 
HETATM    4  C   UNL     1     -40.092 -49.520  11.809  1.00  0.00     0.140 A 
HETATM    5  N   UNL     1     -41.631 -50.586  13.098  1.00  0.00    -0.346 N 
ATOM      6  HN  UNL     1     -42.060 -51.185  13.803  1.00  0.00     0.167 HD
HETATM    7  C   UNL     1     -42.237 -49.743  12.290  1.00  0.00     0.185 A 
HETATM    8  N   UNL     1     -37.956 -50.859  12.661  1.00  0.00    -0.337 N 
ATOM      9  HN  UNL     1     -37.106 -51.364  12.914  1.00  0.00     0.168 HD
HETATM   10  N   UNL     1     -38.930 -49.134  11.263  1.00  0.00    -0.336 N 
ATOM     11  HN  UNL     1     -38.835 -48.390  10.572  1.00  0.00     0.168 HD
HETATM   12  C   UNL     1     -37.907 -49.859  11.752  1.00  0.00     0.183 A 
ENDROOT
BRANCH   2  13
HETATM   13  N   UNL     1     -39.177 -52.212  14.151  1.00  0.00    -0.356 N 
HETATM   14  C   UNL     1     -39.177 -53.639  13.813  1.00  0.00     0.112 C 
HETATM   15  C   UNL     1     -39.019 -54.345  15.176  1.00  0.00     0.066 C 
HETATM   16  C   UNL     1     -38.907 -53.241  16.219  1.00  0.00     0.190 C 
HETATM   17  C   UNL     1     -39.477 -51.998  15.556  1.00  0.00     0.162 C 
HETATM   18  F   UNL     1     -39.628 -53.572  17.320  1.00  0.00    -0.248 F 
BRANCH  14  19
HETATM   19  C   UNL     1     -40.514 -54.090  13.172  1.00  0.00     0.189 C 
BRANCH  19  20
HETATM   20  O   UNL     1     -40.576 -53.891  11.765  1.00  0.00    -0.399 OA
HETATM   21  H   UNL     1     -39.689 -53.590  11.489  1.00  0.00     0.209 HD
ENDBRANCH  19  20
ENDBRANCH  14  19
ENDBRANCH   2  13
BRANCH   3  22
HETATM   22  C   UNL     1     -41.694 -48.201  10.393  1.00  0.00     0.171 C 
BRANCH  22  23
HETATM   23  C   UNL     1     -41.435 -46.713  10.653  1.00  0.00     0.097 C 
HETATM   24  C   UNL     1     -41.760 -46.218  12.050  1.00  0.00     0.068 C 
HETATM   25  C   UNL     1     -42.091 -44.752  11.831  1.00  0.00     0.170 C 
HETATM   26  O   UNL     1     -42.540 -44.601  10.480  1.00  0.00    -0.388 OA
HETATM   27  C   UNL     1     -42.381 -45.858   9.806  1.00  0.00     0.207 C 
BRANCH  23  28
HETATM   28  O   UNL     1     -40.086 -46.354  10.331  1.00  0.00    -0.386 OA
HETATM   29  H   UNL     1     -40.077 -45.783   9.541  1.00  0.00     0.210 HD
ENDBRANCH  23  28
ENDBRANCH  22  23
ENDBRANCH   3  22
TORSDOF 6
ENDMDL
MODEL 2
REMARK VINA RESULT:      -6.2      3.393      4.169
REMARK  6 active torsions:
REMARK  status: ('A' for Active; 'I' for Inactive)
REMARK    1  A    between atoms: C_2  and  N_3 
REMARK    2  A    between atoms: N_4  and  C_14 
REMARK    3  A    between atoms: C_11  and  C_25 
REMARK    4  A    between atoms: C_14  and  C_15 
REMARK    5  A    between atoms: C_15  and  O_22 
REMARK    6  A    between atoms: C_25  and  O_26 
ROOT
HETATM    1  C   UNL     1     -42.972 -50.922  13.301  1.00  0.00     0.122 A 
HETATM    2  C   UNL     1     -43.146 -52.319  13.185  1.00  0.00     0.136 A 
HETATM    3  N   UNL     1     -42.119 -48.990  12.740  1.00  0.00    -0.324 N 
HETATM    4  C   UNL     1     -42.003 -50.331  12.505  1.00  0.00     0.140 A 
HETATM    5  N   UNL     1     -43.628 -49.959  14.050  1.00  0.00    -0.346 N 
ATOM      6  HN  UNL     1     -44.360 -50.107  14.744  1.00  0.00     0.167 HD
HETATM    7  C   UNL     1     -43.104 -48.813  13.673  1.00  0.00     0.185 A 
HETATM    8  N   UNL     1     -42.342 -52.962  12.288  1.00  0.00    -0.337 N 
ATOM      9  HN  UNL     1     -42.450 -53.964  12.129  1.00  0.00     0.168 HD
HETATM   10  N   UNL     1     -41.161 -50.940  11.658  1.00  0.00    -0.336 N 
ATOM     11  HN  UNL     1     -40.437 -50.464  11.120  1.00  0.00     0.168 HD
HETATM   12  C   UNL     1     -41.400 -52.263  11.613  1.00  0.00     0.183 A 
ENDROOT
BRANCH   2  13
HETATM   13  N   UNL     1     -44.098 -53.044  13.854  1.00  0.00    -0.356 N 
HETATM   14  C   UNL     1     -45.314 -53.594  13.244  1.00  0.00     0.112 C 
HETATM   15  C   UNL     1     -45.926 -54.468  14.360  1.00  0.00     0.066 C 
HETATM   16  C   UNL     1     -44.976 -54.376  15.546  1.00  0.00     0.190 C 
HETATM   17  C   UNL     1     -44.144 -53.128  15.303  1.00  0.00     0.162 C 
HETATM   18  F   UNL     1     -45.684 -54.266  16.697  1.00  0.00    -0.248 F 
BRANCH  14  19
HETATM   19  C   UNL     1     -46.332 -52.488  12.866  1.00  0.00     0.189 C 
BRANCH  19  20
HETATM   20  O   UNL     1     -46.848 -52.607  11.545  1.00  0.00    -0.399 OA
HETATM   21  H   UNL     1     -46.920 -53.564  11.361  1.00  0.00     0.209 HD
ENDBRANCH  19  20
ENDBRANCH  14  19
ENDBRANCH   2  13
BRANCH   3  22
HETATM   22  C   UNL     1     -41.453 -47.931  12.010  1.00  0.00     0.171 C 
BRANCH  22  23
HETATM   23  C   UNL     1     -42.068 -47.609  10.643  1.00  0.00     0.097 C 
HETATM   24  C   UNL     1     -41.872 -46.189  10.146  1.00  0.00     0.068 C 
HETATM   25  C   UNL     1     -43.076 -45.966   9.248  1.00  0.00     0.170 C 
HETATM   26  O   UNL     1     -44.120 -46.841   9.689  1.00  0.00    -0.388 OA
HETATM   27  C   UNL     1     -43.594 -47.691  10.720  1.00  0.00     0.207 C 
BRANCH  23  28
HETATM   28  O   UNL     1     -41.613 -48.524   9.638  1.00  0.00    -0.386 OA
HETATM   29  H   UNL     1     -41.238 -49.318  10.062  1.00  0.00     0.210 HD
ENDBRANCH  23  28
ENDBRANCH  22  23
ENDBRANCH   3  22
TORSDOF 6
ENDMDL
MODEL 3
REMARK VINA RESULT:      -6.1      3.211      3.970
REMARK  6 active torsions:
REMARK  status: ('A' for Active; 'I' for Inactive)
REMARK    1  A    between atoms: C_2  and  N_3 
REMARK    2  A    between atoms: N_4  and  C_14 
REMARK    3  A    between atoms: C_11  and  C_25 
REMARK    4  A    between atoms: C_14  and  C_15 
REMARK    5  A    between atoms: C_15  and  O_22 
REMARK    6  A    between atoms: C_25  and  O_26 
ROOT
HETATM    1  C   UNL     1     -42.720 -51.144  13.164  1.00  0.00     0.122 A 
HETATM    2  C   UNL     1     -42.737 -52.547  12.997  1.00  0.00     0.136 A 
HETATM    3  N   UNL     1     -42.075 -49.112  12.683  1.00  0.00    -0.324 N 
HETATM    4  C   UNL     1     -41.808 -50.423  12.406  1.00  0.00     0.140 A 
HETATM    5  N   UNL     1     -43.489 -50.286  13.930  1.00  0.00    -0.346 N 
ATOM      6  HN  UNL     1     -44.212 -50.538  14.605  1.00  0.00     0.167 HD
HETATM    7  C   UNL     1     -43.088 -49.077  13.602  1.00  0.00     0.185 A 
HETATM    8  N   UNL     1     -41.852 -53.067  12.096  1.00  0.00    -0.337 N 
ATOM      9  HN  UNL     1     -41.847 -54.068  11.901  1.00  0.00     0.168 HD
HETATM   10  N   UNL     1     -40.891 -50.906  11.556  1.00  0.00    -0.336 N 
ATOM     11  HN  UNL     1     -40.215 -50.336  11.049  1.00  0.00     0.168 HD
HETATM   12  C   UNL     1     -40.983 -52.246  11.463  1.00  0.00     0.183 A 
ENDROOT
BRANCH   2  13
HETATM   13  N   UNL     1     -43.614 -53.395  13.622  1.00  0.00    -0.356 N 
HETATM   14  C   UNL     1     -43.567 -53.748  15.045  1.00  0.00     0.112 C 
HETATM   15  C   UNL     1     -44.863 -54.557  15.271  1.00  0.00     0.066 C 
HETATM   16  C   UNL     1     -45.589 -54.583  13.933  1.00  0.00     0.190 C 
HETATM   17  C   UNL     1     -44.533 -54.250  12.892  1.00  0.00     0.162 C 
HETATM   18  F   UNL     1     -46.108 -55.817  13.714  1.00  0.00    -0.248 F 
BRANCH  14  19
HETATM   19  C   UNL     1     -42.354 -54.649  15.387  1.00  0.00     0.189 C 
BRANCH  19  20
HETATM   20  O   UNL     1     -42.710 -55.914  15.933  1.00  0.00    -0.399 OA
HETATM   21  H   UNL     1     -43.631 -56.086  15.655  1.00  0.00     0.209 HD
ENDBRANCH  19  20
ENDBRANCH  14  19
ENDBRANCH   2  13
BRANCH   3  22
HETATM   22  C   UNL     1     -41.518 -47.962  12.002  1.00  0.00     0.171 C 
BRANCH  22  23
HETATM   23  C   UNL     1     -42.143 -47.661  10.635  1.00  0.00     0.097 C 
HETATM   24  C   UNL     1     -42.015 -46.229  10.149  1.00  0.00     0.068 C 
HETATM   25  C   UNL     1     -43.225 -46.059   9.247  1.00  0.00     0.170 C 
HETATM   26  O   UNL     1     -44.227 -46.988   9.678  1.00  0.00    -0.388 OA
HETATM   27  C   UNL     1     -43.663 -47.818  10.705  1.00  0.00     0.207 C 
BRANCH  23  28
HETATM   28  O   UNL     1     -41.640 -48.546   9.626  1.00  0.00    -0.386 OA
HETATM   29  H   UNL     1     -41.033 -49.193  10.029  1.00  0.00     0.210 HD
ENDBRANCH  23  28
ENDBRANCH  22  23
ENDBRANCH   3  22
TORSDOF 6
ENDMDL
MODEL 4
REMARK VINA RESULT:      -6.1      3.402      7.401
REMARK  6 active torsions:
REMARK  status: ('A' for Active; 'I' for Inactive)
REMARK    1  A    between atoms: C_2  and  N_3 
REMARK    2  A    between atoms: N_4  and  C_14 
REMARK    3  A    between atoms: C_11  and  C_25 
REMARK    4  A    between atoms: C_14  and  C_15 
REMARK    5  A    between atoms: C_15  and  O_22 
REMARK    6  A    between atoms: C_25  and  O_26 
ROOT
HETATM    1  C   UNL     1     -42.180 -49.422  12.350  1.00  0.00     0.122 A 
HETATM    2  C   UNL     1     -41.436 -48.719  11.375  1.00  0.00     0.136 A 
HETATM    3  N   UNL     1     -42.630 -51.142  13.621  1.00  0.00    -0.324 N 
HETATM    4  C   UNL     1     -41.838 -50.746  12.580  1.00  0.00     0.140 A 
HETATM    5  N   UNL     1     -43.202 -49.037  13.199  1.00  0.00    -0.346 N 
ATOM      6  HN  UNL     1     -43.676 -48.134  13.230  1.00  0.00     0.167 HD
HETATM    7  C   UNL     1     -43.433 -50.086  13.959  1.00  0.00     0.185 A 
HETATM    8  N   UNL     1     -40.440 -49.412  10.749  1.00  0.00    -0.337 N 
ATOM      9  HN  UNL     1     -39.841 -48.946  10.067  1.00  0.00     0.168 HD
HETATM   10  N   UNL     1     -40.904 -51.469  11.946  1.00  0.00    -0.336 N 
ATOM     11  HN  UNL     1     -40.715 -52.455  12.126  1.00  0.00     0.168 HD
HETATM   12  C   UNL     1     -40.251 -50.720  11.040  1.00  0.00     0.183 A 
ENDROOT
BRANCH   2  13
HETATM   13  N   UNL     1     -41.607 -47.393  11.072  1.00  0.00    -0.356 N 
HETATM   14  C   UNL     1     -42.847 -46.805  10.555  1.00  0.00     0.112 C 
HETATM   15  C   UNL     1     -42.573 -45.286  10.571  1.00  0.00     0.066 C 
HETATM   16  C   UNL     1     -41.171 -45.109  11.138  1.00  0.00     0.190 C 
HETATM   17  C   UNL     1     -40.496 -46.462  10.977  1.00  0.00     0.162 C 
HETATM   18  F   UNL     1     -40.507 -44.155  10.439  1.00  0.00    -0.248 F 
BRANCH  14  19
HETATM   19  C   UNL     1     -43.141 -47.241   9.098  1.00  0.00     0.189 C 
BRANCH  19  20
HETATM   20  O   UNL     1     -42.834 -46.248   8.125  1.00  0.00    -0.399 OA
HETATM   21  H   UNL     1     -41.973 -46.499   7.737  1.00  0.00     0.209 HD
ENDBRANCH  19  20
ENDBRANCH  14  19
ENDBRANCH   2  13
BRANCH   3  22
HETATM   22  C   UNL     1     -42.523 -52.385  14.355  1.00  0.00     0.171 C 
BRANCH  22  23
HETATM   23  C   UNL     1     -43.318 -53.553  13.760  1.00  0.00     0.097 C 
HETATM   24  C   UNL     1     -44.808 -53.321  13.591  1.00  0.00     0.068 C 
HETATM   25  C   UNL     1     -45.390 -54.720  13.687  1.00  0.00     0.170 C 
HETATM   26  O   UNL     1     -44.483 -55.521  14.453  1.00  0.00    -0.388 OA
HETATM   27  C   UNL     1     -43.308 -54.741  14.724  1.00  0.00     0.207 C 
BRANCH  23  28
HETATM   28  O   UNL     1     -42.764 -53.977  12.509  1.00  0.00    -0.386 OA
HETATM   29  H   UNL     1     -41.804 -53.807  12.500  1.00  0.00     0.210 HD
ENDBRANCH  23  28
ENDBRANCH  22  23
ENDBRANCH   3  22
TORSDOF 6
ENDMDL
MODEL 5
REMARK VINA RESULT:      -6.1      3.265      4.017
REMARK  6 active torsions:
REMARK  status: ('A' for Active; 'I' for Inactive)
REMARK    1  A    between atoms: C_2  and  N_3 
REMARK    2  A    between atoms: N_4  and  C_14 
REMARK    3  A    between atoms: C_11  and  C_25 
REMARK    4  A    between atoms: C_14  and  C_15 
REMARK    5  A    between atoms: C_15  and  O_22 
REMARK    6  A    between atoms: C_25  and  O_26 
ROOT
HETATM    1  C   UNL     1     -42.887 -51.039  12.824  1.00  0.00     0.122 A 
HETATM    2  C   UNL     1     -42.889 -52.434  13.048  1.00  0.00     0.136 A 
HETATM    3  N   UNL     1     -42.174 -49.195  11.891  1.00  0.00    -0.324 N 
HETATM    4  C   UNL     1     -41.880 -50.524  12.021  1.00  0.00     0.140 A 
HETATM    5  N   UNL     1     -43.746 -50.029  13.221  1.00  0.00    -0.346 N 
ATOM      6  HN  UNL     1     -44.552 -50.110  13.840  1.00  0.00     0.167 HD
HETATM    7  C   UNL     1     -43.299 -48.943  12.627  1.00  0.00     0.185 A 
HETATM    8  N   UNL     1     -41.895 -53.151  12.444  1.00  0.00    -0.337 N 
ATOM      9  HN  UNL     1     -41.870 -54.167  12.534  1.00  0.00     0.168 HD
HETATM   10  N   UNL     1     -40.861 -51.191  11.461  1.00  0.00    -0.336 N 
ATOM     11  HN  UNL     1     -40.122 -50.759  10.907  1.00  0.00     0.168 HD
HETATM   12  C   UNL     1     -40.946 -52.507  11.727  1.00  0.00     0.183 A 
ENDROOT
BRANCH   2  13
HETATM   13  N   UNL     1     -43.844 -53.107  13.764  1.00  0.00    -0.356 N 
HETATM   14  C   UNL     1     -45.092 -53.637  13.205  1.00  0.00     0.112 C 
HETATM   15  C   UNL     1     -45.701 -54.455  14.364  1.00  0.00     0.066 C 
HETATM   16  C   UNL     1     -44.718 -54.354  15.522  1.00  0.00     0.190 C 
HETATM   17  C   UNL     1     -43.855 -53.141  15.216  1.00  0.00     0.162 C 
HETATM   18  F   UNL     1     -45.392 -54.184  16.686  1.00  0.00    -0.248 F 
BRANCH  14  19
HETATM   19  C   UNL     1     -46.085 -52.513  12.815  1.00  0.00     0.189 C 
BRANCH  19  20
HETATM   20  O   UNL     1     -46.582 -52.618  11.486  1.00  0.00    -0.399 OA
HETATM   21  H   UNL     1     -47.179 -53.391  11.474  1.00  0.00     0.209 HD
ENDBRANCH  19  20
ENDBRANCH  14  19
ENDBRANCH   2  13
BRANCH   3  22
HETATM   22  C   UNL     1     -41.526 -48.257  10.997  1.00  0.00     0.171 C 
BRANCH  22  23
HETATM   23  C   UNL     1     -40.285 -47.570  11.578  1.00  0.00     0.097 C 
HETATM   24  C   UNL     1     -40.345 -47.235  13.057  1.00  0.00     0.068 C 
HETATM   25  C   UNL     1     -39.423 -46.034  13.178  1.00  0.00     0.170 C 
HETATM   26  O   UNL     1     -39.384 -45.381  11.905  1.00  0.00    -0.388 OA
HETATM   27  C   UNL     1     -40.118 -46.179  10.963  1.00  0.00     0.207 C 
BRANCH  23  28
HETATM   28  O   UNL     1     -39.099 -48.329  11.316  1.00  0.00    -0.386 OA
HETATM   29  H   UNL     1     -38.662 -47.991  10.513  1.00  0.00     0.210 HD
ENDBRANCH  23  28
ENDBRANCH  22  23
ENDBRANCH   3  22
TORSDOF 6
ENDMDL
MODEL 6
REMARK VINA RESULT:      -6.0      3.272      4.046
REMARK  6 active torsions:
REMARK  status: ('A' for Active; 'I' for Inactive)
REMARK    1  A    between atoms: C_2  and  N_3 
REMARK    2  A    between atoms: N_4  and  C_14 
REMARK    3  A    between atoms: C_11  and  C_25 
REMARK    4  A    between atoms: C_14  and  C_15 
REMARK    5  A    between atoms: C_15  and  O_22 
REMARK    6  A    between atoms: C_25  and  O_26 
ROOT
HETATM    1  C   UNL     1     -42.844 -51.219  12.840  1.00  0.00     0.122 A 
HETATM    2  C   UNL     1     -42.784 -52.618  13.026  1.00  0.00     0.136 A 
HETATM    3  N   UNL     1     -42.206 -49.319  11.967  1.00  0.00    -0.324 N 
HETATM    4  C   UNL     1     -41.853 -50.636  12.064  1.00  0.00     0.140 A 
HETATM    5  N   UNL     1     -43.753 -50.261  13.253  1.00  0.00    -0.346 N 
ATOM      6  HN  UNL     1     -44.562 -50.395  13.860  1.00  0.00     0.167 HD
HETATM    7  C   UNL     1     -43.350 -49.139  12.695  1.00  0.00     0.185 A 
HETATM    8  N   UNL     1     -41.751 -53.272  12.417  1.00  0.00    -0.337 N 
ATOM      9  HN  UNL     1     -41.680 -54.288  12.479  1.00  0.00     0.168 HD
HETATM   10  N   UNL     1     -40.798 -51.240  11.500  1.00  0.00    -0.336 N 
ATOM     11  HN  UNL     1     -40.072 -50.759  10.968  1.00  0.00     0.168 HD
HETATM   12  C   UNL     1     -40.825 -52.565  11.730  1.00  0.00     0.183 A 
ENDROOT
BRANCH   2  13
HETATM   13  N   UNL     1     -43.716 -53.353  13.712  1.00  0.00    -0.356 N 
HETATM   14  C   UNL     1     -43.736 -53.532  15.168  1.00  0.00     0.112 C 
HETATM   15  C   UNL     1     -45.069 -54.262  15.435  1.00  0.00     0.066 C 
HETATM   16  C   UNL     1     -45.746 -54.426  14.081  1.00  0.00     0.190 C 
HETATM   17  C   UNL     1     -44.639 -54.259  13.052  1.00  0.00     0.162 C 
HETATM   18  F   UNL     1     -46.304 -55.659  13.990  1.00  0.00    -0.248 F 
BRANCH  14  19
HETATM   19  C   UNL     1     -42.572 -54.425  15.665  1.00  0.00     0.189 C 
BRANCH  19  20
HETATM   20  O   UNL     1     -42.908 -55.804  15.772  1.00  0.00    -0.399 OA
HETATM   21  H   UNL     1     -42.094 -56.304  15.568  1.00  0.00     0.209 HD
ENDBRANCH  19  20
ENDBRANCH  14  19
ENDBRANCH   2  13
BRANCH   3  22
HETATM   22  C   UNL     1     -41.592 -48.328  11.107  1.00  0.00     0.171 C 
BRANCH  22  23
HETATM   23  C   UNL     1     -40.325 -47.681  11.677  1.00  0.00     0.097 C 
HETATM   24  C   UNL     1     -40.316 -47.451  13.177  1.00  0.00     0.068 C 
HETATM   25  C   UNL     1     -39.388 -46.260  13.341  1.00  0.00     0.170 C 
HETATM   26  O   UNL     1     -39.407 -45.518  12.116  1.00  0.00    -0.388 OA
HETATM   27  C   UNL     1     -40.185 -46.249  11.155  1.00  0.00     0.207 C 
BRANCH  23  28
HETATM   28  O   UNL     1     -39.153 -48.417  11.308  1.00  0.00    -0.386 OA
HETATM   29  H   UNL     1     -38.985 -48.312  10.354  1.00  0.00     0.210 HD
ENDBRANCH  23  28
ENDBRANCH  22  23
ENDBRANCH   3  22
TORSDOF 6
ENDMDL
MODEL 7
REMARK VINA RESULT:      -5.9      3.165      7.197
REMARK  6 active torsions:
REMARK  status: ('A' for Active; 'I' for Inactive)
REMARK    1  A    between atoms: C_2  and  N_3 
REMARK    2  A    between atoms: N_4  and  C_14 
REMARK    3  A    between atoms: C_11  and  C_25 
REMARK    4  A    between atoms: C_14  and  C_15 
REMARK    5  A    between atoms: C_15  and  O_22 
REMARK    6  A    between atoms: C_25  and  O_26 
ROOT
HETATM    1  C   UNL     1     -40.430 -48.306  12.586  1.00  0.00     0.122 A 
HETATM    2  C   UNL     1     -41.020 -47.122  13.084  1.00  0.00     0.136 A 
HETATM    3  N   UNL     1     -39.871 -50.417  12.678  1.00  0.00    -0.324 N 
HETATM    4  C   UNL     1     -40.387 -49.402  13.435  1.00  0.00     0.140 A 
HETATM    5  N   UNL     1     -39.896 -48.635  11.352  1.00  0.00    -0.346 N 
ATOM      6  HN  UNL     1     -39.768 -48.020  10.548  1.00  0.00     0.167 HD
HETATM    7  C   UNL     1     -39.591 -49.911  11.438  1.00  0.00     0.185 A 
HETATM    8  N   UNL     1     -41.501 -47.169  14.361  1.00  0.00    -0.337 N 
ATOM      9  HN  UNL     1     -41.976 -46.359  14.760  1.00  0.00     0.168 HD
HETATM   10  N   UNL     1     -40.799 -49.464  14.709  1.00  0.00    -0.336 N 
ATOM     11  HN  UNL     1     -40.711 -50.286  15.306  1.00  0.00     0.168 HD
HETATM   12  C   UNL     1     -41.344 -48.295  15.093  1.00  0.00     0.183 A 
ENDROOT
BRANCH   2  13
HETATM   13  N   UNL     1     -41.195 -45.973  12.356  1.00  0.00    -0.356 N 
HETATM   14  C   UNL     1     -42.419 -45.620  11.630  1.00  0.00     0.112 C 
HETATM   15  C   UNL     1     -42.166 -44.172  11.156  1.00  0.00     0.066 C 
HETATM   16  C   UNL     1     -40.792 -43.783  11.684  1.00  0.00     0.190 C 
HETATM   17  C   UNL     1     -40.093 -45.096  12.001  1.00  0.00     0.162 C 
HETATM   18  F   UNL     1     -40.111 -43.093  10.735  1.00  0.00    -0.248 F 
BRANCH  14  19
HETATM   19  C   UNL     1     -42.644 -46.517  10.387  1.00  0.00     0.189 C 
BRANCH  19  20
HETATM   20  O   UNL     1     -42.190 -45.938   9.169  1.00  0.00    -0.399 OA
HETATM   21  H   UNL     1     -41.791 -45.078   9.403  1.00  0.00     0.209 HD
ENDBRANCH  19  20
ENDBRANCH  14  19
ENDBRANCH   2  13
BRANCH   3  22
HETATM   22  C   UNL     1     -39.799 -51.813  13.053  1.00  0.00     0.171 C 
BRANCH  22  23
HETATM   23  C   UNL     1     -40.943 -52.682  12.517  1.00  0.00     0.097 C 
HETATM   24  C   UNL     1     -42.301 -52.010  12.437  1.00  0.00     0.068 C 
HETATM   25  C   UNL     1     -43.271 -53.171  12.579  1.00  0.00     0.170 C 
HETATM   26  O   UNL     1     -42.603 -54.215  13.296  1.00  0.00    -0.388 OA
HETATM   27  C   UNL     1     -41.233 -53.828  13.489  1.00  0.00     0.207 C 
BRANCH  23  28
HETATM   28  O   UNL     1     -40.618 -53.240  11.239  1.00  0.00    -0.386 OA
HETATM   29  H   UNL     1     -40.375 -52.527  10.620  1.00  0.00     0.210 HD
ENDBRANCH  23  28
ENDBRANCH  22  23
ENDBRANCH   3  22
TORSDOF 6
ENDMDL
MODEL 8
REMARK VINA RESULT:      -5.8      2.261      2.864
REMARK  6 active torsions:
REMARK  status: ('A' for Active; 'I' for Inactive)
REMARK    1  A    between atoms: C_2  and  N_3 
REMARK    2  A    between atoms: N_4  and  C_14 
REMARK    3  A    between atoms: C_11  and  C_25 
REMARK    4  A    between atoms: C_14  and  C_15 
REMARK    5  A    between atoms: C_15  and  O_22 
REMARK    6  A    between atoms: C_25  and  O_26 
ROOT
HETATM    1  C   UNL     1     -41.903 -49.881  12.102  1.00  0.00     0.122 A 
HETATM    2  C   UNL     1     -41.359 -51.153  12.391  1.00  0.00     0.136 A 
HETATM    3  N   UNL     1     -41.858 -47.865  11.260  1.00  0.00    -0.324 N 
HETATM    4  C   UNL     1     -41.062 -48.945  11.520  1.00  0.00     0.140 A 
HETATM    5  N   UNL     1     -43.177 -49.357  12.244  1.00  0.00    -0.346 N 
ATOM      6  HN  UNL     1     -43.988 -49.806  12.670  1.00  0.00     0.167 HD
HETATM    7  C   UNL     1     -43.117 -48.156  11.711  1.00  0.00     0.185 A 
HETATM    8  N   UNL     1     -40.047 -51.345  12.064  1.00  0.00    -0.337 N 
ATOM      9  HN  UNL     1     -39.611 -52.256  12.209  1.00  0.00     0.168 HD
HETATM   10  N   UNL     1     -39.759 -49.083  11.238  1.00  0.00    -0.336 N 
ATOM     11  HN  UNL     1     -39.172 -48.349  10.843  1.00  0.00     0.168 HD
HETATM   12  C   UNL     1     -39.331 -50.321  11.546  1.00  0.00     0.183 A 
ENDROOT
BRANCH   2  13
HETATM   13  N   UNL     1     -42.070 -52.205  12.909  1.00  0.00    -0.356 N 
HETATM   14  C   UNL     1     -41.616 -53.061  14.010  1.00  0.00     0.112 C 
HETATM   15  C   UNL     1     -42.843 -53.943  14.325  1.00  0.00     0.066 C 
HETATM   16  C   UNL     1     -43.947 -53.495  13.377  1.00  0.00     0.190 C 
HETATM   17  C   UNL     1     -43.240 -52.759  12.251  1.00  0.00     0.162 C 
HETATM   18  F   UNL     1     -44.613 -54.577  12.901  1.00  0.00    -0.248 F 
BRANCH  14  19
HETATM   19  C   UNL     1     -40.439 -53.979  13.593  1.00  0.00     0.189 C 
BRANCH  19  20
HETATM   20  O   UNL     1     -40.518 -54.444  12.250  1.00  0.00    -0.399 OA
HETATM   21  H   UNL     1     -40.673 -55.407  12.300  1.00  0.00     0.209 HD
ENDBRANCH  19  20
ENDBRANCH  14  19
ENDBRANCH   2  13
BRANCH   3  22
HETATM   22  C   UNL     1     -41.492 -46.696  10.487  1.00  0.00     0.171 C 
BRANCH  22  23
HETATM   23  C   UNL     1     -41.187 -45.446  11.321  1.00  0.00     0.097 C 
HETATM   24  C   UNL     1     -42.330 -44.459  11.475  1.00  0.00     0.068 C 
HETATM   25  C   UNL     1     -41.618 -43.132  11.672  1.00  0.00     0.170 C 
HETATM   26  O   UNL     1     -40.328 -43.231  11.059  1.00  0.00    -0.388 OA
HETATM   27  C   UNL     1     -40.141 -44.583  10.611  1.00  0.00     0.207 C 
BRANCH  23  28
HETATM   28  O   UNL     1     -40.688 -45.793  12.618  1.00  0.00    -0.386 OA
HETATM   29  H   UNL     1     -39.719 -45.688  12.636  1.00  0.00     0.210 HD
ENDBRANCH  23  28
ENDBRANCH  22  23
ENDBRANCH   3  22
TORSDOF 6
ENDMDL
MODEL 9
REMARK VINA RESULT:      -5.7      3.581      7.054
REMARK  6 active torsions:
REMARK  status: ('A' for Active; 'I' for Inactive)
REMARK    1  A    between atoms: C_2  and  N_3 
REMARK    2  A    between atoms: N_4  and  C_14 
REMARK    3  A    between atoms: C_11  and  C_25 
REMARK    4  A    between atoms: C_14  and  C_15 
REMARK    5  A    between atoms: C_15  and  O_22 
REMARK    6  A    between atoms: C_25  and  O_26 
ROOT
HETATM    1  C   UNL     1     -41.760 -49.722  12.665  1.00  0.00     0.122 A 
HETATM    2  C   UNL     1     -41.833 -48.325  12.868  1.00  0.00     0.136 A 
HETATM    3  N   UNL     1     -42.156 -51.809  13.176  1.00  0.00    -0.324 N 
HETATM    4  C   UNL     1     -42.256 -50.539  13.669  1.00  0.00     0.140 A 
HETATM    5  N   UNL     1     -41.315 -50.487  11.601  1.00  0.00    -0.346 N 
ATOM      6  HN  UNL     1     -40.871 -50.158  10.743  1.00  0.00     0.167 HD
HETATM    7  C   UNL     1     -41.586 -51.731  11.935  1.00  0.00     0.185 A 
HETATM    8  N   UNL     1     -42.393 -47.907  14.041  1.00  0.00    -0.337 N 
ATOM      9  HN  UNL     1     -42.513 -46.910  14.226  1.00  0.00     0.168 HD
HETATM   10  N   UNL     1     -42.761 -50.162  14.853  1.00  0.00    -0.336 N 
ATOM     11  HN  UNL     1     -43.079 -50.806  15.577  1.00  0.00     0.168 HD
HETATM   12  C   UNL     1     -42.790 -48.821  14.956  1.00  0.00     0.183 A 
ENDROOT
BRANCH   2  13
HETATM   13  N   UNL     1     -41.444 -47.383  11.951  1.00  0.00    -0.356 N 
HETATM   14  C   UNL     1     -42.351 -46.674  11.043  1.00  0.00     0.112 C 
HETATM   15  C   UNL     1     -41.453 -45.610  10.376  1.00  0.00     0.066 C 
HETATM   16  C   UNL     1     -40.069 -45.772  10.990  1.00  0.00     0.190 C 
HETATM   17  C   UNL     1     -40.053 -47.169  11.591  1.00  0.00     0.162 C 
HETATM   18  F   UNL     1     -39.120 -45.652  10.028  1.00  0.00    -0.248 F 
BRANCH  14  19
HETATM   19  C   UNL     1     -42.921 -47.602   9.941  1.00  0.00     0.189 C 
BRANCH  19  20
HETATM   20  O   UNL     1     -41.942 -48.424   9.315  1.00  0.00    -0.399 OA
HETATM   21  H   UNL     1     -42.379 -49.276   9.123  1.00  0.00     0.209 HD
ENDBRANCH  19  20
ENDBRANCH  14  19
ENDBRANCH   2  13
BRANCH   3  22
HETATM   22  C   UNL     1     -42.714 -53.006  13.771  1.00  0.00     0.171 C 
BRANCH  22  23
HETATM   23  C   UNL     1     -44.147 -53.332  13.335  1.00  0.00     0.097 C 
HETATM   24  C   UNL     1     -45.045 -52.139  13.068  1.00  0.00     0.068 C 
HETATM   25  C   UNL     1     -46.435 -52.678  13.360  1.00  0.00     0.170 C 
HETATM   26  O   UNL     1     -46.298 -53.766  14.281  1.00  0.00    -0.388 OA
HETATM   27  C   UNL     1     -44.899 -54.023  14.474  1.00  0.00     0.207 C 
BRANCH  23  28
HETATM   28  O   UNL     1     -44.161 -54.195  12.191  1.00  0.00    -0.386 OA
HETATM   29  H   UNL     1     -43.264 -54.542  12.030  1.00  0.00     0.210 HD
ENDBRANCH  23  28
ENDBRANCH  22  23
ENDBRANCH   3  22
TORSDOF 6
ENDMDL
