MODEL 1
REMARK VINA RESULT:      -6.6      0.000      0.000
REMARK  4 active torsions:
REMARK  status: ('A' for Active; 'I' for Inactive)
REMARK    1  A    between atoms: C_8  and  C_11 
REMARK       I    between atoms: C_11  and  N_13 
REMARK    2  A    between atoms: N_13  and  C_14 
REMARK    3  A    between atoms: C_14  and  C_15 
REMARK    4  A    between atoms: C_15  and  C_16 
ROOT
HETATM    1  C   UNL     1     -42.438 -50.625  13.140  1.00  0.00     0.236 C 
HETATM    2  O   UNL     1     -41.712 -50.147  14.008  1.00  0.00    -0.272 OA
HETATM    3  N   UNL     1     -42.293 -50.309  11.804  1.00  0.00    -0.359 N 
HETATM    4  H   UNL     1     -42.877 -50.813  11.145  1.00  0.00     0.162 HD
ENDROOT
BRANCH   1   5
HETATM    5  C   UNL     1     -43.690 -51.460  13.470  1.00  0.00     0.168 C 
HETATM    6  N   UNL     1     -43.580 -52.914  13.260  1.00  0.00    -0.221 NA
HETATM    7  C   UNL     1     -42.956 -53.625  14.359  1.00  0.00     0.066 C 
HETATM    8  C   UNL     1     -44.791 -53.537  12.908  1.00  0.00     0.202 C 
HETATM    9  C   UNL     1     -41.456 -53.839  14.156  1.00  0.00     0.045 C 
HETATM   10  C   UNL     1     -43.679 -54.971  14.432  1.00  0.00     0.045 C 
HETATM   11  S   UNL     1     -43.245 -52.591  15.842  1.00  0.00    -0.141 SA
HETATM   12  C   UNL     1     -45.039 -54.710  13.818  1.00  0.00     0.099 C 
HETATM   13  C   UNL     1     -44.115 -51.270  14.927  1.00  0.00     0.105 C 
HETATM   14  O   UNL     1     -45.600 -53.106  12.100  1.00  0.00    -0.280 OA
ENDBRANCH   1   5
BRANCH   3  15
HETATM   15  C   UNL     1     -41.132 -49.566  11.338  1.00  0.00     0.128 C 
BRANCH  15  16
HETATM   16  C   UNL     1     -41.445 -48.090  11.130  1.00  0.00     0.076 C 
BRANCH  16  17
HETATM   17  C   UNL     1     -42.616 -47.872  10.208  1.00  0.00     0.010 A 
HETATM   18  C   UNL     1     -43.869 -47.540  10.717  1.00  0.00     0.025 A 
HETATM   19  C   UNL     1     -44.937 -47.399   9.836  1.00  0.00     0.003 A 
HETATM   20  C   UNL     1     -44.726 -47.579   8.476  1.00  0.00     0.017 A 
HETATM   21  C   UNL     1     -43.446 -47.888   8.050  1.00  0.00     0.088 A 
HETATM   22  N   UNL     1     -42.391 -48.038   8.883  1.00  0.00    -0.369 N 
ATOM     23  HN  UNL     1     -41.463 -48.267   8.527  1.00  0.00     0.165 HD
ENDBRANCH  16  17
ENDBRANCH  15  16
ENDBRANCH   3  15
TORSDOF 4
ENDMDL
MODEL 2
REMARK VINA RESULT:      -6.4      2.628      6.013
REMARK  4 active torsions:
REMARK  status: ('A' for Active; 'I' for Inactive)
REMARK    1  A    between atoms: C_8  and  C_11 
REMARK       I    between atoms: C_11  and  N_13 
REMARK    2  A    between atoms: N_13  and  C_14 
REMARK    3  A    between atoms: C_14  and  C_15 
REMARK    4  A    between atoms: C_15  and  C_16 
ROOT
HETATM    1  C   UNL     1     -41.037 -51.056  11.981  1.00  0.00     0.236 C 
HETATM    2  O   UNL     1     -40.011 -51.690  12.215  1.00  0.00    -0.272 OA
HETATM    3  N   UNL     1     -42.284 -51.648  11.990  1.00  0.00    -0.359 N 
HETATM    4  H   UNL     1     -43.086 -51.037  11.872  1.00  0.00     0.162 HD
ENDROOT
BRANCH   1   5
HETATM    5  C   UNL     1     -41.019 -49.604  11.470  1.00  0.00     0.168 C 
HETATM    6  N   UNL     1     -42.236 -48.810  11.714  1.00  0.00    -0.221 NA
HETATM    7  C   UNL     1     -42.304 -48.222  13.038  1.00  0.00     0.066 C 
HETATM    8  C   UNL     1     -42.487 -47.829  10.738  1.00  0.00     0.202 C 
HETATM    9  C   UNL     1     -43.089 -49.078  14.031  1.00  0.00     0.045 C 
HETATM   10  C   UNL     1     -42.989 -46.868  12.845  1.00  0.00     0.045 C 
HETATM   11  S   UNL     1     -40.566 -48.057  13.593  1.00  0.00    -0.141 SA
HETATM   12  C   UNL     1     -42.707 -46.497  11.404  1.00  0.00     0.099 C 
HETATM   13  C   UNL     1     -39.863 -48.813  12.086  1.00  0.00     0.105 C 
HETATM   14  O   UNL     1     -42.386 -47.989   9.531  1.00  0.00    -0.280 OA
ENDBRANCH   1   5
BRANCH   3  15
HETATM   15  C   UNL     1     -42.461 -53.002  12.494  1.00  0.00     0.128 C 
BRANCH  15  16
HETATM   16  C   UNL     1     -43.917 -53.448  12.430  1.00  0.00     0.076 C 
BRANCH  16  17
HETATM   17  C   UNL     1     -44.787 -52.721  13.421  1.00  0.00     0.010 A 
HETATM   18  C   UNL     1     -45.965 -52.101  13.011  1.00  0.00     0.025 A 
HETATM   19  C   UNL     1     -46.715 -51.396  13.949  1.00  0.00     0.003 A 
HETATM   20  C   UNL     1     -46.279 -51.337  15.265  1.00  0.00     0.017 A 
HETATM   21  C   UNL     1     -45.108 -51.998  15.594  1.00  0.00     0.088 A 
HETATM   22  N   UNL     1     -44.356 -52.685  14.704  1.00  0.00    -0.369 N 
ATOM     23  HN  UNL     1     -43.497 -53.158  14.988  1.00  0.00     0.165 HD
ENDBRANCH  16  17
ENDBRANCH  15  16
ENDBRANCH   3  15
TORSDOF 4
ENDMDL
MODEL 3
REMARK VINA RESULT:      -6.3      2.174      3.700
REMARK  4 active torsions:
REMARK  status: ('A' for Active; 'I' for Inactive)
REMARK    1  A    between atoms: C_8  and  C_11 
REMARK       I    between atoms: C_11  and  N_13 
REMARK    2  A    between atoms: N_13  and  C_14 
REMARK    3  A    between atoms: C_14  and  C_15 
REMARK    4  A    between atoms: C_15  and  C_16 
ROOT
HETATM    1  C   UNL     1     -43.472 -50.057  13.637  1.00  0.00     0.236 C 
HETATM    2  O   UNL     1     -43.187 -49.315  14.575  1.00  0.00    -0.272 OA
HETATM    3  N   UNL     1     -42.966 -49.863  12.368  1.00  0.00    -0.359 N 
HETATM    4  H   UNL     1     -43.182 -50.571  11.672  1.00  0.00     0.162 HD
ENDROOT
BRANCH   1   5
HETATM    5  C   UNL     1     -44.559 -51.144  13.737  1.00  0.00     0.168 C 
HETATM    6  N   UNL     1     -44.141 -52.518  13.404  1.00  0.00    -0.221 NA
HETATM    7  C   UNL     1     -43.498 -53.222  14.496  1.00  0.00     0.066 C 
HETATM    8  C   UNL     1     -45.164 -53.311  12.855  1.00  0.00     0.202 C 
HETATM    9  C   UNL     1     -41.973 -53.125  14.452  1.00  0.00     0.045 C 
HETATM   10  C   UNL     1     -43.943 -54.678  14.356  1.00  0.00     0.045 C 
HETATM   11  S   UNL     1     -44.129 -52.439  16.027  1.00  0.00    -0.141 SA
HETATM   12  C   UNL     1     -45.261 -54.608  13.614  1.00  0.00     0.099 C 
HETATM   13  C   UNL     1     -45.151 -51.208  15.146  1.00  0.00     0.105 C 
HETATM   14  O   UNL     1     -45.960 -52.949  12.002  1.00  0.00    -0.280 OA
ENDBRANCH   1   5
BRANCH   3  15
HETATM   15  C   UNL     1     -41.899 -48.903  12.131  1.00  0.00     0.128 C 
BRANCH  15  16
HETATM   16  C   UNL     1     -40.941 -49.372  11.042  1.00  0.00     0.076 C 
BRANCH  16  17
HETATM   17  C   UNL     1     -39.670 -49.953  11.603  1.00  0.00     0.010 A 
HETATM   18  C   UNL     1     -39.670 -50.611  12.830  1.00  0.00     0.025 A 
HETATM   19  C   UNL     1     -38.464 -51.088  13.337  1.00  0.00     0.003 A 
HETATM   20  C   UNL     1     -37.298 -50.908  12.606  1.00  0.00     0.017 A 
HETATM   21  C   UNL     1     -37.388 -50.260  11.386  1.00  0.00     0.088 A 
HETATM   22  N   UNL     1     -38.543 -49.781  10.871  1.00  0.00    -0.369 N 
ATOM     23  HN  UNL     1     -38.565 -49.308   9.967  1.00  0.00     0.165 HD
ENDBRANCH  16  17
ENDBRANCH  15  16
ENDBRANCH   3  15
TORSDOF 4
ENDMDL
MODEL 4
REMARK VINA RESULT:      -6.2      3.385      6.193
REMARK  4 active torsions:
REMARK  status: ('A' for Active; 'I' for Inactive)
REMARK    1  A    between atoms: C_8  and  C_11 
REMARK       I    between atoms: C_11  and  N_13 
REMARK    2  A    between atoms: N_13  and  C_14 
REMARK    3  A    between atoms: C_14  and  C_15 
REMARK    4  A    between atoms: C_15  and  C_16 
ROOT
HETATM    1  C   UNL     1     -40.624 -52.529  14.304  1.00  0.00     0.236 C 
HETATM    2  O   UNL     1     -41.114 -52.657  15.424  1.00  0.00    -0.272 OA
HETATM    3  N   UNL     1     -41.093 -53.231  13.212  1.00  0.00    -0.359 N 
HETATM    4  H   UNL     1     -40.690 -53.003  12.309  1.00  0.00     0.162 HD
ENDROOT
BRANCH   1   5
HETATM    5  C   UNL     1     -39.329 -51.735  14.049  1.00  0.00     0.168 C 
HETATM    6  N   UNL     1     -39.219 -51.069  12.739  1.00  0.00    -0.221 NA
HETATM    7  C   UNL     1     -39.886 -49.783  12.672  1.00  0.00     0.066 C 
HETATM    8  C   UNL     1     -37.901 -50.954  12.263  1.00  0.00     0.202 C 
HETATM    9  C   UNL     1     -41.304 -49.875  12.109  1.00  0.00     0.045 C 
HETATM   10  C   UNL     1     -39.009 -48.920  11.763  1.00  0.00     0.045 C 
HETATM   11  S   UNL     1     -39.936 -49.163  14.394  1.00  0.00    -0.141 SA
HETATM   12  C   UNL     1     -37.625 -49.525  11.877  1.00  0.00     0.099 C 
HETATM   13  C   UNL     1     -39.132 -50.643  15.102  1.00  0.00     0.105 C 
HETATM   14  O   UNL     1     -37.055 -51.834  12.303  1.00  0.00    -0.280 OA
ENDBRANCH   1   5
BRANCH   3  15
HETATM   15  C   UNL     1     -42.334 -53.987  13.292  1.00  0.00     0.128 C 
BRANCH  15  16
HETATM   16  C   UNL     1     -43.467 -53.305  12.534  1.00  0.00     0.076 C 
BRANCH  16  17
HETATM   17  C   UNL     1     -44.471 -52.662  13.455  1.00  0.00     0.010 A 
HETATM   18  C   UNL     1     -45.617 -52.057  12.945  1.00  0.00     0.025 A 
HETATM   19  C   UNL     1     -46.495 -51.429  13.825  1.00  0.00     0.003 A 
HETATM   20  C   UNL     1     -46.213 -51.430  15.184  1.00  0.00     0.017 A 
HETATM   21  C   UNL     1     -45.064 -52.071  15.611  1.00  0.00     0.088 A 
HETATM   22  N   UNL     1     -44.190 -52.684  14.780  1.00  0.00    -0.369 N 
ATOM     23  HN  UNL     1     -43.352 -53.144  15.136  1.00  0.00     0.165 HD
ENDBRANCH  16  17
ENDBRANCH  15  16
ENDBRANCH   3  15
TORSDOF 4
ENDMDL
MODEL 5
REMARK VINA RESULT:      -6.1      1.701      2.589
REMARK  4 active torsions:
REMARK  status: ('A' for Active; 'I' for Inactive)
REMARK    1  A    between atoms: C_8  and  C_11 
REMARK       I    between atoms: C_11  and  N_13 
REMARK    2  A    between atoms: N_13  and  C_14 
REMARK    3  A    between atoms: C_14  and  C_15 
REMARK    4  A    between atoms: C_15  and  C_16 
ROOT
HETATM    1  C   UNL     1     -42.565 -50.542  13.228  1.00  0.00     0.236 C 
HETATM    2  O   UNL     1     -42.016 -49.866  14.094  1.00  0.00    -0.272 OA
HETATM    3  N   UNL     1     -42.221 -50.449  11.895  1.00  0.00    -0.359 N 
HETATM    4  H   UNL     1     -42.663 -51.104  11.257  1.00  0.00     0.162 HD
ENDROOT
BRANCH   1   5
HETATM    5  C   UNL     1     -43.809 -51.405  13.511  1.00  0.00     0.168 C 
HETATM    6  N   UNL     1     -43.658 -52.857  13.307  1.00  0.00    -0.221 NA
HETATM    7  C   UNL     1     -43.060 -53.553  14.429  1.00  0.00     0.066 C 
HETATM    8  C   UNL     1     -44.840 -53.507  12.910  1.00  0.00     0.202 C 
HETATM    9  C   UNL     1     -41.549 -53.733  14.283  1.00  0.00     0.045 C 
HETATM   10  C   UNL     1     -43.755 -54.915  14.476  1.00  0.00     0.045 C 
HETATM   11  S   UNL     1     -43.428 -52.526  15.900  1.00  0.00    -0.141 SA
HETATM   12  C   UNL     1     -45.096 -54.686  13.811  1.00  0.00     0.099 C 
HETATM   13  C   UNL     1     -44.293 -51.226  14.951  1.00  0.00     0.105 C 
HETATM   14  O   UNL     1     -45.628 -53.095  12.072  1.00  0.00    -0.280 OA
ENDBRANCH   1   5
BRANCH   3  15
HETATM   15  C   UNL     1     -41.039 -49.707  11.482  1.00  0.00     0.128 C 
BRANCH  15  16
HETATM   16  C   UNL     1     -41.396 -48.486  10.644  1.00  0.00     0.076 C 
BRANCH  16  17
HETATM   17  C   UNL     1     -40.722 -47.232  11.136  1.00  0.00     0.010 A 
HETATM   18  C   UNL     1     -40.368 -47.093  12.475  1.00  0.00     0.025 A 
HETATM   19  C   UNL     1     -39.794 -45.898  12.899  1.00  0.00     0.003 A 
HETATM   20  C   UNL     1     -39.578 -44.882  11.979  1.00  0.00     0.017 A 
HETATM   21  C   UNL     1     -39.940 -45.107  10.663  1.00  0.00     0.088 A 
HETATM   22  N   UNL     1     -40.505 -46.254  10.223  1.00  0.00    -0.369 N 
ATOM     23  HN  UNL     1     -40.759 -46.379   9.242  1.00  0.00     0.165 HD
ENDBRANCH  16  17
ENDBRANCH  15  16
ENDBRANCH   3  15
TORSDOF 4
ENDMDL
MODEL 6
REMARK VINA RESULT:      -5.7      3.733      6.976
REMARK  4 active torsions:
REMARK  status: ('A' for Active; 'I' for Inactive)
REMARK    1  A    between atoms: C_8  and  C_11 
REMARK       I    between atoms: C_11  and  N_13 
REMARK    2  A    between atoms: N_13  and  C_14 
REMARK    3  A    between atoms: C_14  and  C_15 
REMARK    4  A    between atoms: C_15  and  C_16 
ROOT
HETATM    1  C   UNL     1     -40.565 -50.336  12.486  1.00  0.00     0.236 C 
HETATM    2  O   UNL     1     -41.613 -50.200  13.114  1.00  0.00    -0.272 OA
HETATM    3  N   UNL     1     -40.252 -51.506  11.824  1.00  0.00    -0.359 N 
HETATM    4  H   UNL     1     -39.409 -51.505  11.259  1.00  0.00     0.162 HD
ENDROOT
BRANCH   1   5
HETATM    5  C   UNL     1     -39.425 -49.301  12.536  1.00  0.00     0.168 C 
HETATM    6  N   UNL     1     -38.942 -48.926  13.877  1.00  0.00    -0.221 NA
HETATM    7  C   UNL     1     -37.976 -49.850  14.438  1.00  0.00     0.066 C 
HETATM    8  C   UNL     1     -38.457 -47.609  13.965  1.00  0.00     0.202 C 
HETATM    9  C   UNL     1     -38.612 -50.900  15.348  1.00  0.00     0.045 C 
HETATM   10  C   UNL     1     -36.999 -48.980  15.232  1.00  0.00     0.045 C 
HETATM   11  S   UNL     1     -37.183 -50.665  13.002  1.00  0.00    -0.141 SA
HETATM   12  C   UNL     1     -37.084 -47.615  14.582  1.00  0.00     0.099 C 
HETATM   13  C   UNL     1     -38.199 -49.789  11.763  1.00  0.00     0.105 C 
HETATM   14  O   UNL     1     -38.990 -46.625  13.474  1.00  0.00    -0.280 OA
ENDBRANCH   1   5
BRANCH   3  15
HETATM   15  C   UNL     1     -41.248 -52.553  11.655  1.00  0.00     0.128 C 
BRANCH  15  16
HETATM   16  C   UNL     1     -41.162 -53.605  12.754  1.00  0.00     0.076 C 
BRANCH  16  17
HETATM   17  C   UNL     1     -42.518 -54.028  13.255  1.00  0.00     0.010 A 
HETATM   18  C   UNL     1     -42.650 -54.693  14.471  1.00  0.00     0.025 A 
HETATM   19  C   UNL     1     -43.915 -55.113  14.874  1.00  0.00     0.003 A 
HETATM   20  C   UNL     1     -45.011 -54.850  14.064  1.00  0.00     0.017 A 
HETATM   21  C   UNL     1     -44.796 -54.165  12.881  1.00  0.00     0.088 A 
HETATM   22  N   UNL     1     -43.579 -53.751  12.460  1.00  0.00    -0.369 N 
ATOM     23  HN  UNL     1     -43.464 -53.249  11.579  1.00  0.00     0.165 HD
ENDBRANCH  16  17
ENDBRANCH  15  16
ENDBRANCH   3  15
TORSDOF 4
ENDMDL
MODEL 7
REMARK VINA RESULT:      -5.6      3.574      4.744
REMARK  4 active torsions:
REMARK  status: ('A' for Active; 'I' for Inactive)
REMARK    1  A    between atoms: C_8  and  C_11 
REMARK       I    between atoms: C_11  and  N_13 
REMARK    2  A    between atoms: N_13  and  C_14 
REMARK    3  A    between atoms: C_14  and  C_15 
REMARK    4  A    between atoms: C_15  and  C_16 
ROOT
HETATM    1  C   UNL     1     -42.551 -54.228  14.053  1.00  0.00     0.236 C 
HETATM    2  O   UNL     1     -42.126 -54.704  15.103  1.00  0.00    -0.272 OA
HETATM    3  N   UNL     1     -41.715 -53.676  13.104  1.00  0.00    -0.359 N 
HETATM    4  H   UNL     1     -42.138 -53.384  12.229  1.00  0.00     0.162 HD
ENDROOT
BRANCH   1   5
HETATM    5  C   UNL     1     -44.054 -54.023  13.782  1.00  0.00     0.168 C 
HETATM    6  N   UNL     1     -44.841 -53.429  14.878  1.00  0.00    -0.221 NA
HETATM    7  C   UNL     1     -44.771 -51.983  14.940  1.00  0.00     0.066 C 
HETATM    8  C   UNL     1     -46.182 -53.850  14.914  1.00  0.00     0.202 C 
HETATM    9  C   UNL     1     -43.701 -51.478  15.908  1.00  0.00     0.045 C 
HETATM   10  C   UNL     1     -46.158 -51.530  15.398  1.00  0.00     0.045 C 
HETATM   11  S   UNL     1     -44.381 -51.434  13.236  1.00  0.00    -0.141 SA
HETATM   12  C   UNL     1     -47.087 -52.648  14.971  1.00  0.00     0.099 C 
HETATM   13  C   UNL     1     -44.280 -53.129  12.561  1.00  0.00     0.105 C 
HETATM   14  O   UNL     1     -46.568 -54.998  14.761  1.00  0.00    -0.280 OA
ENDBRANCH   1   5
BRANCH   3  15
HETATM   15  C   UNL     1     -40.271 -53.834  13.204  1.00  0.00     0.128 C 
BRANCH  15  16
HETATM   16  C   UNL     1     -39.635 -52.738  14.050  1.00  0.00     0.076 C 
BRANCH  16  17
HETATM   17  C   UNL     1     -39.147 -51.579  13.220  1.00  0.00     0.010 A 
HETATM   18  C   UNL     1     -37.962 -50.924  13.543  1.00  0.00     0.025 A 
HETATM   19  C   UNL     1     -37.572 -49.825  12.782  1.00  0.00     0.003 A 
HETATM   20  C   UNL     1     -38.365 -49.417  11.718  1.00  0.00     0.017 A 
HETATM   21  C   UNL     1     -39.517 -50.135  11.452  1.00  0.00     0.088 A 
HETATM   22  N   UNL     1     -39.925 -51.202  12.177  1.00  0.00    -0.369 N 
ATOM     23  HN  UNL     1     -40.783 -51.704  11.947  1.00  0.00     0.165 HD
ENDBRANCH  16  17
ENDBRANCH  15  16
ENDBRANCH   3  15
TORSDOF 4
ENDMDL
MODEL 8
REMARK VINA RESULT:      -5.6      2.906      6.484
REMARK  4 active torsions:
REMARK  status: ('A' for Active; 'I' for Inactive)
REMARK    1  A    between atoms: C_8  and  C_11 
REMARK       I    between atoms: C_11  and  N_13 
REMARK    2  A    between atoms: N_13  and  C_14 
REMARK    3  A    between atoms: C_14  and  C_15 
REMARK    4  A    between atoms: C_15  and  C_16 
ROOT
HETATM    1  C   UNL     1     -39.768 -50.043  12.596  1.00  0.00     0.236 C 
HETATM    2  O   UNL     1     -38.615 -50.138  13.009  1.00  0.00    -0.272 OA
HETATM    3  N   UNL     1     -40.661 -51.094  12.661  1.00  0.00    -0.359 N 
HETATM    4  H   UNL     1     -41.618 -50.905  12.378  1.00  0.00     0.162 HD
ENDROOT
BRANCH   1   5
HETATM    5  C   UNL     1     -40.268 -48.825  11.796  1.00  0.00     0.168 C 
HETATM    6  N   UNL     1     -41.676 -48.441  12.002  1.00  0.00    -0.221 NA
HETATM    7  C   UNL     1     -41.900 -47.620  13.176  1.00  0.00     0.066 C 
HETATM    8  C   UNL     1     -42.280 -47.851  10.878  1.00  0.00     0.202 C 
HETATM    9  C   UNL     1     -42.310 -48.432  14.403  1.00  0.00     0.045 C 
HETATM   10  C   UNL     1     -43.015 -46.649  12.783  1.00  0.00     0.045 C 
HETATM   11  S   UNL     1     -40.309 -46.769  13.493  1.00  0.00    -0.141 SA
HETATM   12  C   UNL     1     -42.924 -46.549  11.275  1.00  0.00     0.099 C 
HETATM   13  C   UNL     1     -39.437 -47.579  12.107  1.00  0.00     0.105 C 
HETATM   14  O   UNL     1     -42.168 -48.243   9.726  1.00  0.00    -0.280 OA
ENDBRANCH   1   5
BRANCH   3  15
HETATM   15  C   UNL     1     -40.344 -52.292  13.424  1.00  0.00     0.128 C 
BRANCH  15  16
HETATM   16  C   UNL     1     -40.859 -53.554  12.743  1.00  0.00     0.076 C 
BRANCH  16  17
HETATM   17  C   UNL     1     -42.253 -53.918  13.180  1.00  0.00     0.010 A 
HETATM   18  C   UNL     1     -42.471 -54.569  14.391  1.00  0.00     0.025 A 
HETATM   19  C   UNL     1     -43.770 -54.935  14.735  1.00  0.00     0.003 A 
HETATM   20  C   UNL     1     -44.813 -54.632  13.872  1.00  0.00     0.017 A 
HETATM   21  C   UNL     1     -44.514 -53.965  12.696  1.00  0.00     0.088 A 
HETATM   22  N   UNL     1     -43.263 -53.604  12.333  1.00  0.00    -0.369 N 
ATOM     23  HN  UNL     1     -43.085 -53.113  11.456  1.00  0.00     0.165 HD
ENDBRANCH  16  17
ENDBRANCH  15  16
ENDBRANCH   3  15
TORSDOF 4
ENDMDL
MODEL 9
REMARK VINA RESULT:      -5.5      3.444      4.507
REMARK  4 active torsions:
REMARK  status: ('A' for Active; 'I' for Inactive)
REMARK    1  A    between atoms: C_8  and  C_11 
REMARK       I    between atoms: C_11  and  N_13 
REMARK    2  A    between atoms: N_13  and  C_14 
REMARK    3  A    between atoms: C_14  and  C_15 
REMARK    4  A    between atoms: C_15  and  C_16 
ROOT
HETATM    1  C   UNL     1     -42.380 -53.750  14.933  1.00  0.00     0.236 C 
HETATM    2  O   UNL     1     -41.989 -54.866  15.266  1.00  0.00    -0.272 OA
HETATM    3  N   UNL     1     -41.587 -52.878  14.215  1.00  0.00    -0.359 N 
HETATM    4  H   UNL     1     -42.016 -52.011  13.905  1.00  0.00     0.162 HD
ENDROOT
BRANCH   1   5
HETATM    5  C   UNL     1     -43.701 -53.144  15.443  1.00  0.00     0.168 C 
HETATM    6  N   UNL     1     -44.430 -52.278  14.500  1.00  0.00    -0.221 NA
HETATM    7  C   UNL     1     -45.259 -53.001  13.555  1.00  0.00     0.066 C 
HETATM    8  C   UNL     1     -45.178 -51.259  15.116  1.00  0.00     0.202 C 
HETATM    9  C   UNL     1     -44.557 -53.261  12.223  1.00  0.00     0.045 C 
HETATM   10  C   UNL     1     -46.492 -52.119  13.342  1.00  0.00     0.045 C 
HETATM   11  S   UNL     1     -45.665 -54.590  14.369  1.00  0.00    -0.141 SA
HETATM   12  C   UNL     1     -46.594 -51.290  14.605  1.00  0.00     0.099 C 
HETATM   13  C   UNL     1     -44.684 -54.236  15.869  1.00  0.00     0.105 C 
HETATM   14  O   UNL     1     -44.792 -50.557  16.039  1.00  0.00    -0.280 OA
ENDBRANCH   1   5
BRANCH   3  15
HETATM   15  C   UNL     1     -40.332 -53.326  13.628  1.00  0.00     0.128 C 
BRANCH  15  16
HETATM   16  C   UNL     1     -39.180 -52.385  13.959  1.00  0.00     0.076 C 
BRANCH  16  17
HETATM   17  C   UNL     1     -39.294 -51.061  13.248  1.00  0.00     0.010 A 
HETATM   18  C   UNL     1     -39.023 -49.870  13.917  1.00  0.00     0.025 A 
HETATM   19  C   UNL     1     -39.190 -48.666  13.239  1.00  0.00     0.003 A 
HETATM   20  C   UNL     1     -39.610 -48.680  11.916  1.00  0.00     0.017 A 
HETATM   21  C   UNL     1     -39.839 -49.908  11.319  1.00  0.00     0.088 A 
HETATM   22  N   UNL     1     -39.691 -51.093  11.953  1.00  0.00    -0.369 N 
ATOM     23  HN  UNL     1     -39.872 -51.977  11.476  1.00  0.00     0.165 HD
ENDBRANCH  16  17
ENDBRANCH  15  16
ENDBRANCH   3  15
TORSDOF 4
ENDMDL
