MODEL 1
REMARK VINA RESULT:      -7.3      0.000      0.000
REMARK  4 active torsions:
REMARK  status: ('A' for Active; 'I' for Inactive)
REMARK       I    between atoms: N_2  and  C_3 
REMARK    1  A    between atoms: C_3  and  C_5 
REMARK    2  A    between atoms: N_10  and  C_11 
REMARK    3  A    between atoms: C_11  and  C_12 
REMARK       I    between atoms: C_12  and  N_14 
REMARK    4  A    between atoms: N_14  and  C_15 
ROOT
HETATM    1  C   UNL     1     -40.933 -52.296  12.151  1.00  0.00     0.234 C 
ENDROOT
BRANCH   1   2
HETATM    2  N   UNL     1     -40.379 -50.958  11.999  1.00  0.00    -0.315 N 
HETATM    3  C   UNL     1     -39.076 -50.749  12.432  1.00  0.00     0.247 A 
HETATM    4  C   UNL     1     -38.582 -49.351  12.345  1.00  0.00     0.075 A 
HETATM    5  O   UNL     1     -38.343 -51.628  12.878  1.00  0.00    -0.268 OA
HETATM    6  C   UNL     1     -39.341 -48.397  11.789  1.00  0.00     0.024 A 
HETATM    7  C   UNL     1     -40.648 -48.709  11.243  1.00  0.00     0.047 A 
HETATM    8  C   UNL     1     -41.133 -49.955  11.395  1.00  0.00     0.111 A 
BRANCH   7   9
HETATM    9  C   UNL     1     -41.517 -47.682  10.573  1.00  0.00     0.252 C 
HETATM   10  N   UNL     1     -42.372 -48.189   9.619  1.00  0.00    -0.361 N 
HETATM   11  C   UNL     1     -43.319 -47.341   8.939  1.00  0.00     0.149 C 
HETATM   12  H   UNL     1     -42.490 -49.188   9.538  1.00  0.00     0.162 HD
HETATM   13  O   UNL     1     -41.479 -46.495  10.883  1.00  0.00    -0.268 OA
ENDBRANCH   7   9
ENDBRANCH   1   2
BRANCH   1  14
HETATM   14  C   UNL     1     -42.169 -52.291  13.037  1.00  0.00     0.236 C 
HETATM   15  O   UNL     1     -42.095 -51.983  14.226  1.00  0.00    -0.272 OA
HETATM   16  N   UNL     1     -43.364 -52.630  12.423  1.00  0.00    -0.355 N 
HETATM   17  H   UNL     1     -43.413 -52.634  11.404  1.00  0.00     0.162 HD
BRANCH  16  18
HETATM   18  C   UNL     1     -44.579 -52.761  13.225  1.00  0.00     0.084 C 
HETATM   19  C   UNL     1     -45.063 -54.215  13.305  1.00  0.00     0.025 C 
HETATM   20  C   UNL     1     -46.050 -54.523  14.445  1.00  0.00     0.002 C 
HETATM   21  C   UNL     1     -45.733 -53.854  15.786  1.00  0.00     0.000 C 
HETATM   22  C   UNL     1     -46.544 -52.588  16.097  1.00  0.00     0.000 C 
HETATM   23  C   UNL     1     -46.354 -51.352  15.210  1.00  0.00     0.000 C 
HETATM   24  C   UNL     1     -46.801 -51.521  13.755  1.00  0.00     0.002 C 
HETATM   25  C   UNL     1     -45.669 -51.789  12.753  1.00  0.00     0.025 C 
ENDBRANCH  16  18
ENDBRANCH   1  14
TORSDOF 4
ENDMDL
MODEL 2
REMARK VINA RESULT:      -7.0      1.504      1.951
REMARK  4 active torsions:
REMARK  status: ('A' for Active; 'I' for Inactive)
REMARK       I    between atoms: N_2  and  C_3 
REMARK    1  A    between atoms: C_3  and  C_5 
REMARK    2  A    between atoms: N_10  and  C_11 
REMARK    3  A    between atoms: C_11  and  C_12 
REMARK       I    between atoms: C_12  and  N_14 
REMARK    4  A    between atoms: N_14  and  C_15 
ROOT
HETATM    1  C   UNL     1     -40.840 -50.397  11.881  1.00  0.00     0.234 C 
ENDROOT
BRANCH   1   2
HETATM    2  N   UNL     1     -40.904 -49.004  11.460  1.00  0.00    -0.315 N 
HETATM    3  C   UNL     1     -39.831 -48.185  11.787  1.00  0.00     0.247 A 
HETATM    4  C   UNL     1     -39.977 -46.753  11.422  1.00  0.00     0.075 A 
HETATM    5  O   UNL     1     -38.810 -48.569  12.352  1.00  0.00    -0.268 OA
HETATM    6  C   UNL     1     -41.049 -46.334  10.736  1.00  0.00     0.024 A 
HETATM    7  C   UNL     1     -42.077 -47.266  10.318  1.00  0.00     0.047 A 
HETATM    8  C   UNL     1     -41.990 -48.549  10.717  1.00  0.00     0.111 A 
BRANCH   7   9
HETATM    9  C   UNL     1     -43.275 -46.850   9.512  1.00  0.00     0.252 C 
HETATM   10  N   UNL     1     -44.396 -47.628   9.707  1.00  0.00    -0.361 N 
HETATM   11  C   UNL     1     -45.645 -47.313   9.061  1.00  0.00     0.149 C 
HETATM   12  H   UNL     1     -44.412 -48.296  10.463  1.00  0.00     0.162 HD
HETATM   13  O   UNL     1     -43.252 -45.876   8.767  1.00  0.00    -0.268 OA
ENDBRANCH   7   9
ENDBRANCH   1   2
BRANCH   1  14
HETATM   14  C   UNL     1     -42.046 -50.782  12.723  1.00  0.00     0.236 C 
HETATM   15  O   UNL     1     -42.245 -50.260  13.820  1.00  0.00    -0.272 OA
HETATM   16  N   UNL     1     -42.902 -51.724  12.175  1.00  0.00    -0.355 N 
HETATM   17  H   UNL     1     -42.831 -51.936  11.180  1.00  0.00     0.162 HD
BRANCH  16  18
HETATM   18  C   UNL     1     -44.020 -52.234  12.965  1.00  0.00     0.084 C 
HETATM   19  C   UNL     1     -44.329 -53.703  12.649  1.00  0.00     0.025 C 
HETATM   20  C   UNL     1     -45.172 -54.445  13.700  1.00  0.00     0.002 C 
HETATM   21  C   UNL     1     -44.819 -54.140  15.160  1.00  0.00     0.000 C 
HETATM   22  C   UNL     1     -45.738 -53.131  15.862  1.00  0.00     0.000 C 
HETATM   23  C   UNL     1     -45.766 -51.682  15.358  1.00  0.00     0.000 C 
HETATM   24  C   UNL     1     -46.314 -51.497  13.940  1.00  0.00     0.002 C 
HETATM   25  C   UNL     1     -45.250 -51.322  12.849  1.00  0.00     0.025 C 
ENDBRANCH  16  18
ENDBRANCH   1  14
TORSDOF 4
ENDMDL
MODEL 3
REMARK VINA RESULT:      -6.5      1.637      2.644
REMARK  4 active torsions:
REMARK  status: ('A' for Active; 'I' for Inactive)
REMARK       I    between atoms: N_2  and  C_3 
REMARK    1  A    between atoms: C_3  and  C_5 
REMARK    2  A    between atoms: N_10  and  C_11 
REMARK    3  A    between atoms: C_11  and  C_12 
REMARK       I    between atoms: C_12  and  N_14 
REMARK    4  A    between atoms: N_14  and  C_15 
ROOT
HETATM    1  C   UNL     1     -39.773 -50.479  12.136  1.00  0.00     0.234 C 
ENDROOT
BRANCH   1   2
HETATM    2  N   UNL     1     -40.056 -49.057  12.003  1.00  0.00    -0.315 N 
HETATM    3  C   UNL     1     -39.391 -48.188  12.858  1.00  0.00     0.247 A 
HETATM    4  C   UNL     1     -39.776 -46.757  12.753  1.00  0.00     0.075 A 
HETATM    5  O   UNL     1     -38.541 -48.531  13.675  1.00  0.00    -0.268 OA
HETATM    6  C   UNL     1     -40.644 -46.356  11.814  1.00  0.00     0.024 A 
HETATM    7  C   UNL     1     -41.210 -47.300  10.870  1.00  0.00     0.047 A 
HETATM    8  C   UNL     1     -40.928 -48.608  11.014  1.00  0.00     0.111 A 
BRANCH   7   9
HETATM    9  C   UNL     1     -42.154 -46.890   9.775  1.00  0.00     0.252 C 
HETATM   10  N   UNL     1     -42.629 -47.931   9.009  1.00  0.00    -0.361 N 
HETATM   11  C   UNL     1     -43.598 -47.709   7.965  1.00  0.00     0.149 C 
HETATM   12  H   UNL     1     -42.466 -48.882   9.305  1.00  0.00     0.162 HD
HETATM   13  O   UNL     1     -42.490 -45.722   9.609  1.00  0.00    -0.268 OA
ENDBRANCH   7   9
ENDBRANCH   1   2
BRANCH   1  14
HETATM   14  C   UNL     1     -41.039 -51.277  12.408  1.00  0.00     0.236 C 
HETATM   15  O   UNL     1     -41.437 -52.125  11.610  1.00  0.00    -0.272 OA
HETATM   16  N   UNL     1     -41.689 -51.007  13.601  1.00  0.00    -0.355 N 
HETATM   17  H   UNL     1     -41.195 -50.486  14.327  1.00  0.00     0.162 HD
BRANCH  16  18
HETATM   18  C   UNL     1     -42.973 -51.644  13.888  1.00  0.00     0.084 C 
HETATM   19  C   UNL     1     -43.913 -50.723  14.676  1.00  0.00     0.025 C 
HETATM   20  C   UNL     1     -45.400 -51.116  14.653  1.00  0.00     0.002 C 
HETATM   21  C   UNL     1     -45.929 -51.605  13.301  1.00  0.00     0.000 C 
HETATM   22  C   UNL     1     -46.038 -53.128  13.149  1.00  0.00     0.000 C 
HETATM   23  C   UNL     1     -44.754 -53.967  13.174  1.00  0.00     0.000 C 
HETATM   24  C   UNL     1     -43.994 -53.954  14.504  1.00  0.00     0.002 C 
HETATM   25  C   UNL     1     -42.780 -53.016  14.551  1.00  0.00     0.025 C 
ENDBRANCH  16  18
ENDBRANCH   1  14
TORSDOF 4
ENDMDL
MODEL 4
REMARK VINA RESULT:      -6.2      1.579      2.326
REMARK  4 active torsions:
REMARK  status: ('A' for Active; 'I' for Inactive)
REMARK       I    between atoms: N_2  and  C_3 
REMARK    1  A    between atoms: C_3  and  C_5 
REMARK    2  A    between atoms: N_10  and  C_11 
REMARK    3  A    between atoms: C_11  and  C_12 
REMARK       I    between atoms: C_12  and  N_14 
REMARK    4  A    between atoms: N_14  and  C_15 
ROOT
HETATM    1  C   UNL     1     -40.869 -52.753  12.165  1.00  0.00     0.234 C 
ENDROOT
BRANCH   1   2
HETATM    2  N   UNL     1     -40.223 -51.455  12.299  1.00  0.00    -0.315 N 
HETATM    3  C   UNL     1     -39.055 -51.393  13.048  1.00  0.00     0.247 A 
HETATM    4  C   UNL     1     -38.479 -50.037  13.237  1.00  0.00     0.075 A 
HETATM    5  O   UNL     1     -38.502 -52.366  13.554  1.00  0.00    -0.268 OA
HETATM    6  C   UNL     1     -39.027 -48.977  12.627  1.00  0.00     0.024 A 
HETATM    7  C   UNL     1     -40.177 -49.130  11.757  1.00  0.00     0.047 A 
HETATM    8  C   UNL     1     -40.751 -50.342  11.649  1.00  0.00     0.111 A 
BRANCH   7   9
HETATM    9  C   UNL     1     -40.799 -47.978  11.019  1.00  0.00     0.252 C 
HETATM   10  N   UNL     1     -40.080 -46.804  11.079  1.00  0.00    -0.361 N 
HETATM   11  C   UNL     1     -40.509 -45.628  10.363  1.00  0.00     0.149 C 
HETATM   12  H   UNL     1     -39.141 -46.813  11.449  1.00  0.00     0.162 HD
HETATM   13  O   UNL     1     -41.847 -48.095  10.393  1.00  0.00    -0.268 OA
ENDBRANCH   7   9
ENDBRANCH   1   2
BRANCH   1  14
HETATM   14  C   UNL     1     -42.263 -52.748  12.772  1.00  0.00     0.236 C 
HETATM   15  O   UNL     1     -43.265 -52.793  12.058  1.00  0.00    -0.272 OA
HETATM   16  N   UNL     1     -42.330 -52.712  14.156  1.00  0.00    -0.355 N 
HETATM   17  H   UNL     1     -41.491 -52.923  14.697  1.00  0.00     0.162 HD
BRANCH  16  18
HETATM   18  C   UNL     1     -43.628 -52.589  14.816  1.00  0.00     0.084 C 
HETATM   19  C   UNL     1     -43.881 -51.166  15.331  1.00  0.00     0.025 C 
HETATM   20  C   UNL     1     -45.349 -50.825  15.643  1.00  0.00     0.002 C 
HETATM   21  C   UNL     1     -46.375 -51.361  14.639  1.00  0.00     0.000 C 
HETATM   22  C   UNL     1     -47.103 -52.643  15.064  1.00  0.00     0.000 C 
HETATM   23  C   UNL     1     -46.292 -53.935  15.226  1.00  0.00     0.000 C 
HETATM   24  C   UNL     1     -45.253 -53.914  16.351  1.00  0.00     0.002 C 
HETATM   25  C   UNL     1     -43.809 -53.662  15.899  1.00  0.00     0.025 C 
ENDBRANCH  16  18
ENDBRANCH   1  14
TORSDOF 4
ENDMDL
MODEL 5
REMARK VINA RESULT:      -6.1      2.399      6.517
REMARK  4 active torsions:
REMARK  status: ('A' for Active; 'I' for Inactive)
REMARK       I    between atoms: N_2  and  C_3 
REMARK    1  A    between atoms: C_3  and  C_5 
REMARK    2  A    between atoms: N_10  and  C_11 
REMARK    3  A    between atoms: C_11  and  C_12 
REMARK       I    between atoms: C_12  and  N_14 
REMARK    4  A    between atoms: N_14  and  C_15 
ROOT
HETATM    1  C   UNL     1     -40.956 -52.629  11.945  1.00  0.00     0.234 C 
ENDROOT
BRANCH   1   2
HETATM    2  N   UNL     1     -41.347 -53.340  13.154  1.00  0.00    -0.315 N 
HETATM    3  C   UNL     1     -40.342 -53.949  13.895  1.00  0.00     0.247 A 
HETATM    4  C   UNL     1     -40.792 -54.741  15.067  1.00  0.00     0.075 A 
HETATM    5  O   UNL     1     -39.144 -53.878  13.631  1.00  0.00    -0.268 OA
HETATM    6  C   UNL     1     -42.087 -54.764  15.413  1.00  0.00     0.024 A 
HETATM    7  C   UNL     1     -43.071 -54.004  14.667  1.00  0.00     0.047 A 
HETATM    8  C   UNL     1     -42.680 -53.353  13.556  1.00  0.00     0.111 A 
BRANCH   7   9
HETATM    9  C   UNL     1     -44.526 -53.966  15.042  1.00  0.00     0.252 C 
HETATM   10  N   UNL     1     -45.295 -53.123  14.270  1.00  0.00    -0.361 N 
HETATM   11  C   UNL     1     -46.721 -53.031  14.459  1.00  0.00     0.149 C 
HETATM   12  H   UNL     1     -44.904 -52.723  13.430  1.00  0.00     0.162 HD
HETATM   13  O   UNL     1     -44.983 -54.659  15.945  1.00  0.00    -0.268 OA
ENDBRANCH   7   9
ENDBRANCH   1   2
BRANCH   1  14
HETATM   14  C   UNL     1     -40.872 -51.129  12.182  1.00  0.00     0.236 C 
HETATM   15  O   UNL     1     -40.019 -50.654  12.931  1.00  0.00    -0.272 OA
HETATM   16  N   UNL     1     -41.786 -50.347  11.495  1.00  0.00    -0.355 N 
HETATM   17  H   UNL     1     -42.297 -50.757  10.712  1.00  0.00     0.162 HD
BRANCH  16  18
HETATM   18  C   UNL     1     -41.849 -48.910  11.752  1.00  0.00     0.084 C 
HETATM   19  C   UNL     1     -42.991 -48.544  12.709  1.00  0.00     0.025 C 
HETATM   20  C   UNL     1     -42.883 -47.161  13.373  1.00  0.00     0.002 C 
HETATM   21  C   UNL     1     -41.477 -46.762  13.834  1.00  0.00     0.000 C 
HETATM   22  C   UNL     1     -40.718 -45.817  12.892  1.00  0.00     0.000 C 
HETATM   23  C   UNL     1     -40.333 -46.319  11.495  1.00  0.00     0.000 C 
HETATM   24  C   UNL     1     -41.512 -46.623  10.565  1.00  0.00     0.002 C 
HETATM   25  C   UNL     1     -41.879 -48.108  10.444  1.00  0.00     0.025 C 
ENDBRANCH  16  18
ENDBRANCH   1  14
TORSDOF 4
ENDMDL
MODEL 6
REMARK VINA RESULT:      -6.1      1.917      3.660
REMARK  4 active torsions:
REMARK  status: ('A' for Active; 'I' for Inactive)
REMARK       I    between atoms: N_2  and  C_3 
REMARK    1  A    between atoms: C_3  and  C_5 
REMARK    2  A    between atoms: N_10  and  C_11 
REMARK    3  A    between atoms: C_11  and  C_12 
REMARK       I    between atoms: C_12  and  N_14 
REMARK    4  A    between atoms: N_14  and  C_15 
ROOT
HETATM    1  C   UNL     1     -40.952 -51.533  12.135  1.00  0.00     0.234 C 
ENDROOT
BRANCH   1   2
HETATM    2  N   UNL     1     -40.263 -50.291  12.457  1.00  0.00    -0.315 N 
HETATM    3  C   UNL     1     -40.725 -49.126  11.858  1.00  0.00     0.247 A 
HETATM    4  C   UNL     1     -39.939 -47.898  12.140  1.00  0.00     0.075 A 
HETATM    5  O   UNL     1     -41.708 -49.065  11.124  1.00  0.00    -0.268 OA
HETATM    6  C   UNL     1     -38.912 -47.933  13.000  1.00  0.00     0.024 A 
HETATM    7  C   UNL     1     -38.558 -49.160  13.687  1.00  0.00     0.047 A 
HETATM    8  C   UNL     1     -39.214 -50.292  13.373  1.00  0.00     0.111 A 
BRANCH   7   9
HETATM    9  C   UNL     1     -37.441 -49.237  14.691  1.00  0.00     0.252 C 
HETATM   10  N   UNL     1     -37.086 -48.028  15.247  1.00  0.00    -0.361 N 
HETATM   11  C   UNL     1     -36.081 -47.947  16.278  1.00  0.00     0.149 C 
HETATM   12  H   UNL     1     -37.668 -47.219  15.093  1.00  0.00     0.162 HD
HETATM   13  O   UNL     1     -36.919 -50.303  15.002  1.00  0.00    -0.268 OA
ENDBRANCH   7   9
ENDBRANCH   1   2
BRANCH   1  14
HETATM   14  C   UNL     1     -42.138 -51.769  13.056  1.00  0.00     0.236 C 
HETATM   15  O   UNL     1     -42.015 -51.691  14.279  1.00  0.00    -0.272 OA
HETATM   16  N   UNL     1     -43.346 -52.051  12.441  1.00  0.00    -0.355 N 
HETATM   17  H   UNL     1     -43.449 -51.862  11.443  1.00  0.00     0.162 HD
BRANCH  16  18
HETATM   18  C   UNL     1     -44.509 -52.404  13.253  1.00  0.00     0.084 C 
HETATM   19  C   UNL     1     -44.865 -53.891  13.137  1.00  0.00     0.025 C 
HETATM   20  C   UNL     1     -45.770 -54.446  14.250  1.00  0.00     0.002 C 
HETATM   21  C   UNL     1     -45.452 -53.948  15.664  1.00  0.00     0.000 C 
HETATM   22  C   UNL     1     -46.353 -52.817  16.181  1.00  0.00     0.000 C 
HETATM   23  C   UNL     1     -46.307 -51.456  15.477  1.00  0.00     0.000 C 
HETATM   24  C   UNL     1     -46.802 -51.456  14.028  1.00  0.00     0.002 C 
HETATM   25  C   UNL     1     -45.697 -51.476  12.963  1.00  0.00     0.025 C 
ENDBRANCH  16  18
ENDBRANCH   1  14
TORSDOF 4
ENDMDL
MODEL 7
REMARK VINA RESULT:      -5.9      2.566      3.523
REMARK  4 active torsions:
REMARK  status: ('A' for Active; 'I' for Inactive)
REMARK       I    between atoms: N_2  and  C_3 
REMARK    1  A    between atoms: C_3  and  C_5 
REMARK    2  A    between atoms: N_10  and  C_11 
REMARK    3  A    between atoms: C_11  and  C_12 
REMARK       I    between atoms: C_12  and  N_14 
REMARK    4  A    between atoms: N_14  and  C_15 
ROOT
HETATM    1  C   UNL     1     -40.639 -49.738  11.447  1.00  0.00     0.234 C 
ENDROOT
BRANCH   1   2
HETATM    2  N   UNL     1     -39.648 -49.335  12.435  1.00  0.00    -0.315 N 
HETATM    3  C   UNL     1     -38.649 -50.248  12.752  1.00  0.00     0.247 A 
HETATM    4  C   UNL     1     -37.715 -49.835  13.830  1.00  0.00     0.075 A 
HETATM    5  O   UNL     1     -38.513 -51.343  12.213  1.00  0.00    -0.268 OA
HETATM    6  C   UNL     1     -37.803 -48.614  14.373  1.00  0.00     0.024 A 
HETATM    7  C   UNL     1     -38.795 -47.662  13.909  1.00  0.00     0.047 A 
HETATM    8  C   UNL     1     -39.695 -48.060  12.992  1.00  0.00     0.111 A 
BRANCH   7   9
HETATM    9  C   UNL     1     -38.904 -46.267  14.458  1.00  0.00     0.252 C 
HETATM   10  N   UNL     1     -39.275 -46.201  15.784  1.00  0.00    -0.361 N 
HETATM   11  C   UNL     1     -39.354 -44.938  16.474  1.00  0.00     0.149 C 
HETATM   12  H   UNL     1     -39.291 -47.043  16.339  1.00  0.00     0.162 HD
HETATM   13  O   UNL     1     -38.650 -45.278  13.779  1.00  0.00    -0.268 OA
ENDBRANCH   7   9
ENDBRANCH   1   2
BRANCH   1  14
HETATM   14  C   UNL     1     -41.971 -50.074  12.097  1.00  0.00     0.236 C 
HETATM   15  O   UNL     1     -42.798 -49.194  12.338  1.00  0.00    -0.272 OA
HETATM   16  N   UNL     1     -42.199 -51.412  12.374  1.00  0.00    -0.355 N 
HETATM   17  H   UNL     1     -41.602 -52.116  11.937  1.00  0.00     0.162 HD
BRANCH  16  18
HETATM   18  C   UNL     1     -43.403 -51.808  13.101  1.00  0.00     0.084 C 
HETATM   19  C   UNL     1     -43.120 -52.074  14.585  1.00  0.00     0.025 C 
HETATM   20  C   UNL     1     -44.352 -52.071  15.506  1.00  0.00     0.002 C 
HETATM   21  C   UNL     1     -45.389 -50.981  15.213  1.00  0.00     0.000 C 
HETATM   22  C   UNL     1     -46.613 -51.437  14.407  1.00  0.00     0.000 C 
HETATM   23  C   UNL     1     -46.411 -51.912  12.963  1.00  0.00     0.000 C 
HETATM   24  C   UNL     1     -45.584 -53.192  12.808  1.00  0.00     0.002 C 
HETATM   25  C   UNL     1     -44.119 -52.975  12.406  1.00  0.00     0.025 C 
ENDBRANCH  16  18
ENDBRANCH   1  14
TORSDOF 4
ENDMDL
MODEL 8
REMARK VINA RESULT:      -5.9      2.699      6.336
REMARK  4 active torsions:
REMARK  status: ('A' for Active; 'I' for Inactive)
REMARK       I    between atoms: N_2  and  C_3 
REMARK    1  A    between atoms: C_3  and  C_5 
REMARK    2  A    between atoms: N_10  and  C_11 
REMARK    3  A    between atoms: C_11  and  C_12 
REMARK       I    between atoms: C_12  and  N_14 
REMARK    4  A    between atoms: N_14  and  C_15 
ROOT
HETATM    1  C   UNL     1     -40.112 -50.948  11.934  1.00  0.00     0.234 C 
ENDROOT
BRANCH   1   2
HETATM    2  N   UNL     1     -40.810 -52.077  12.533  1.00  0.00    -0.315 N 
HETATM    3  C   UNL     1     -40.067 -52.947  13.320  1.00  0.00     0.247 A 
HETATM    4  C   UNL     1     -40.795 -54.135  13.835  1.00  0.00     0.075 A 
HETATM    5  O   UNL     1     -38.879 -52.796  13.592  1.00  0.00    -0.268 OA
HETATM    6  C   UNL     1     -42.109 -54.273  13.612  1.00  0.00     0.024 A 
HETATM    7  C   UNL     1     -42.852 -53.262  12.885  1.00  0.00     0.047 A 
HETATM    8  C   UNL     1     -42.182 -52.227  12.347  1.00  0.00     0.111 A 
BRANCH   7   9
HETATM    9  C   UNL     1     -44.333 -53.354  12.648  1.00  0.00     0.252 C 
HETATM   10  N   UNL     1     -44.977 -52.138  12.570  1.00  0.00    -0.361 N 
HETATM   11  C   UNL     1     -46.386 -52.057  12.275  1.00  0.00     0.149 C 
HETATM   12  H   UNL     1     -44.434 -51.290  12.510  1.00  0.00     0.162 HD
HETATM   13  O   UNL     1     -44.905 -54.430  12.505  1.00  0.00    -0.268 OA
ENDBRANCH   7   9
ENDBRANCH   1   2
BRANCH   1  14
HETATM   14  C   UNL     1     -40.422 -49.649  12.663  1.00  0.00     0.236 C 
HETATM   15  O   UNL     1     -40.367 -49.584  13.891  1.00  0.00    -0.272 OA
HETATM   16  N   UNL     1     -40.742 -48.561  11.868  1.00  0.00    -0.355 N 
HETATM   17  H   UNL     1     -40.535 -48.600  10.869  1.00  0.00     0.162 HD
BRANCH  16  18
HETATM   18  C   UNL     1     -41.165 -47.308  12.489  1.00  0.00     0.084 C 
HETATM   19  C   UNL     1     -42.686 -47.246  12.687  1.00  0.00     0.025 C 
HETATM   20  C   UNL     1     -43.180 -46.196  13.698  1.00  0.00     0.002 C 
HETATM   21  C   UNL     1     -42.338 -46.063  14.971  1.00  0.00     0.000 C 
HETATM   22  C   UNL     1     -41.353 -44.886  14.988  1.00  0.00     0.000 C 
HETATM   23  C   UNL     1     -40.194 -44.879  13.984  1.00  0.00     0.000 C 
HETATM   24  C   UNL     1     -40.608 -44.769  12.513  1.00  0.00     0.002 C 
HETATM   25  C   UNL     1     -40.606 -46.093  11.736  1.00  0.00     0.025 C 
ENDBRANCH  16  18
ENDBRANCH   1  14
TORSDOF 4
ENDMDL
MODEL 9
REMARK VINA RESULT:      -5.7      2.799      7.754
REMARK  4 active torsions:
REMARK  status: ('A' for Active; 'I' for Inactive)
REMARK       I    between atoms: N_2  and  C_3 
REMARK    1  A    between atoms: C_3  and  C_5 
REMARK    2  A    between atoms: N_10  and  C_11 
REMARK    3  A    between atoms: C_11  and  C_12 
REMARK       I    between atoms: C_12  and  N_14 
REMARK    4  A    between atoms: N_14  and  C_15 
ROOT
HETATM    1  C   UNL     1     -44.005 -51.347  13.628  1.00  0.00     0.234 C 
ENDROOT
BRANCH   1   2
HETATM    2  N   UNL     1     -44.168 -52.773  13.873  1.00  0.00    -0.315 N 
HETATM    3  C   UNL     1     -45.139 -53.443  13.140  1.00  0.00     0.247 A 
HETATM    4  C   UNL     1     -45.337 -54.874  13.486  1.00  0.00     0.075 A 
HETATM    5  O   UNL     1     -45.825 -52.928  12.261  1.00  0.00    -0.268 OA
HETATM    6  C   UNL     1     -44.544 -55.470  14.387  1.00  0.00     0.024 A 
HETATM    7  C   UNL     1     -43.465 -54.742  15.027  1.00  0.00     0.047 A 
HETATM    8  C   UNL     1     -43.336 -53.425  14.779  1.00  0.00     0.111 A 
BRANCH   7   9
HETATM    9  C   UNL     1     -42.525 -55.378  16.011  1.00  0.00     0.252 C 
HETATM   10  N   UNL     1     -41.600 -54.517  16.560  1.00  0.00    -0.361 N 
HETATM   11  C   UNL     1     -40.675 -54.960  17.573  1.00  0.00     0.149 C 
HETATM   12  H   UNL     1     -41.698 -53.523  16.414  1.00  0.00     0.162 HD
HETATM   13  O   UNL     1     -42.606 -56.564  16.316  1.00  0.00    -0.268 OA
ENDBRANCH   7   9
ENDBRANCH   1   2
BRANCH   1  14
HETATM   14  C   UNL     1     -42.587 -51.015  13.188  1.00  0.00     0.236 C 
HETATM   15  O   UNL     1     -42.152 -51.407  12.105  1.00  0.00    -0.272 OA
HETATM   16  N   UNL     1     -41.841 -50.238  14.059  1.00  0.00    -0.355 N 
HETATM   17  H   UNL     1     -42.318 -49.741  14.811  1.00  0.00     0.162 HD
BRANCH  16  18
HETATM   18  C   UNL     1     -40.434 -49.970  13.767  1.00  0.00     0.084 C 
HETATM   19  C   UNL     1     -39.515 -50.376  14.927  1.00  0.00     0.025 C 
HETATM   20  C   UNL     1     -38.028 -50.539  14.568  1.00  0.00     0.002 C 
HETATM   21  C   UNL     1     -37.747 -51.225  13.227  1.00  0.00     0.000 C 
HETATM   22  C   UNL     1     -37.409 -50.281  12.064  1.00  0.00     0.000 C 
HETATM   23  C   UNL     1     -38.485 -49.307  11.567  1.00  0.00     0.000 C 
HETATM   24  C   UNL     1     -38.908 -48.235  12.576  1.00  0.00     0.002 C 
HETATM   25  C   UNL     1     -40.224 -48.518  13.313  1.00  0.00     0.025 C 
ENDBRANCH  16  18
ENDBRANCH   1  14
TORSDOF 4
ENDMDL
