MODEL 1
REMARK VINA RESULT:      -6.2      0.000      0.000
REMARK  7 active torsions:
REMARK  status: ('A' for Active; 'I' for Inactive)
REMARK    1  A    between atoms: C_2  and  N_3 
REMARK    2  A    between atoms: C_2  and  C_23 
REMARK       I    between atoms: N_3  and  C_4 
REMARK    3  A    between atoms: C_4  and  C_6 
REMARK    4  A    between atoms: C_6  and  N_7 
REMARK    5  A    between atoms: C_11  and  C_12 
REMARK       I    between atoms: C_12  and  N_14 
REMARK    6  A    between atoms: N_14  and  C_16 
REMARK    7  A    between atoms: C_16  and  C_18 
ROOT
HETATM    1  N   UNL     1     -40.521 -48.616  12.189  1.00  0.00    -0.315 N 
HETATM    2  C   UNL     1     -39.218 -48.338  11.824  1.00  0.00     0.095 C 
HETATM    3  C   UNL     1     -38.235 -49.194  12.121  1.00  0.00     0.018 C 
HETATM    4  C   UNL     1     -38.545 -50.475  12.712  1.00  0.00     0.024 C 
HETATM    5  C   UNL     1     -39.816 -50.889  12.855  1.00  0.00     0.100 C 
HETATM    6  C   UNL     1     -40.855 -49.797  12.867  1.00  0.00     0.263 C 
HETATM    7  O   UNL     1     -41.946 -49.930  13.419  1.00  0.00    -0.267 OA
ENDROOT
BRANCH   1   8
HETATM    8  C   UNL     1     -41.547 -47.577  12.039  1.00  0.00     0.234 C 
BRANCH   8   9
HETATM    9  C   UNL     1     -42.282 -47.675  10.689  1.00  0.00     0.236 C 
HETATM   10  N   UNL     1     -43.368 -46.847  10.565  1.00  0.00    -0.355 N 
HETATM   11  H   UNL     1     -43.573 -46.198  11.331  1.00  0.00     0.162 HD
HETATM   12  O   UNL     1     -41.887 -48.413   9.793  1.00  0.00    -0.272 OA
BRANCH  10  13
HETATM   13  C   UNL     1     -44.192 -46.775   9.383  1.00  0.00     0.084 C 
HETATM   14  C   UNL     1     -44.479 -45.324   9.009  1.00  0.00     0.032 C 
BRANCH  13  15
HETATM   15  C   UNL     1     -45.476 -47.525   9.650  1.00  0.00     0.008 A 
HETATM   16  C   UNL     1     -46.160 -48.320   8.562  1.00  0.00     0.007 A 
HETATM   17  C   UNL     1     -46.770 -47.037   9.046  1.00  0.00     0.007 A 
ENDBRANCH  13  15
ENDBRANCH  10  13
ENDBRANCH   8   9
ENDBRANCH   1   8
BRANCH   5  18
HETATM   18  C   UNL     1     -40.191 -52.306  13.175  1.00  0.00     0.259 C 
HETATM   19  O   UNL     1     -40.400 -53.085  12.243  1.00  0.00    -0.267 OA
HETATM   20  N   UNL     1     -40.260 -52.749  14.507  1.00  0.00    -0.347 N 
HETATM   21  C   UNL     1     -39.797 -52.032  15.697  1.00  0.00     0.153 C 
BRANCH  20  22
HETATM   22  C   UNL     1     -40.773 -54.124  14.729  1.00  0.00     0.087 C 
HETATM   23  C   UNL     1     -39.979 -54.921  15.781  1.00  0.00     0.033 C 
BRANCH  22  24
HETATM   24  C   UNL     1     -42.250 -54.136  15.099  1.00  0.00     0.008 A 
HETATM   25  C   UNL     1     -43.021 -55.432  15.219  1.00  0.00     0.007 A 
HETATM   26  C   UNL     1     -43.374 -54.452  14.136  1.00  0.00     0.007 A 
ENDBRANCH  22  24
ENDBRANCH  20  22
ENDBRANCH   5  18
TORSDOF 7
ENDMDL
MODEL 2
REMARK VINA RESULT:      -5.9      2.221      6.675
REMARK  7 active torsions:
REMARK  status: ('A' for Active; 'I' for Inactive)
REMARK    1  A    between atoms: C_2  and  N_3 
REMARK    2  A    between atoms: C_2  and  C_23 
REMARK       I    between atoms: N_3  and  C_4 
REMARK    3  A    between atoms: C_4  and  C_6 
REMARK    4  A    between atoms: C_6  and  N_7 
REMARK    5  A    between atoms: C_11  and  C_12 
REMARK       I    between atoms: C_12  and  N_14 
REMARK    6  A    between atoms: N_14  and  C_16 
REMARK    7  A    between atoms: C_16  and  C_18 
ROOT
HETATM    1  N   UNL     1     -40.144 -52.945  14.334  1.00  0.00    -0.315 N 
HETATM    2  C   UNL     1     -39.411 -52.531  15.430  1.00  0.00     0.095 C 
HETATM    3  C   UNL     1     -38.623 -51.455  15.349  1.00  0.00     0.018 C 
HETATM    4  C   UNL     1     -38.627 -50.642  14.156  1.00  0.00     0.024 C 
HETATM    5  C   UNL     1     -39.506 -50.864  13.162  1.00  0.00     0.100 C 
HETATM    6  C   UNL     1     -40.093 -52.252  13.116  1.00  0.00     0.263 C 
HETATM    7  O   UNL     1     -40.525 -52.751  12.078  1.00  0.00    -0.267 OA
ENDROOT
BRANCH   1   8
HETATM    8  C   UNL     1     -40.839 -54.237  14.380  1.00  0.00     0.234 C 
BRANCH   8   9
HETATM    9  C   UNL     1     -42.318 -54.089  14.780  1.00  0.00     0.236 C 
HETATM   10  N   UNL     1     -43.175 -53.860  13.735  1.00  0.00    -0.355 N 
HETATM   11  H   UNL     1     -42.793 -53.861  12.784  1.00  0.00     0.162 HD
HETATM   12  O   UNL     1     -42.685 -54.211  15.944  1.00  0.00    -0.272 OA
BRANCH  10  13
HETATM   13  C   UNL     1     -44.601 -53.697  13.887  1.00  0.00     0.084 C 
HETATM   14  C   UNL     1     -45.319 -55.034  13.731  1.00  0.00     0.032 C 
BRANCH  13  15
HETATM   15  C   UNL     1     -45.081 -52.706  12.853  1.00  0.00     0.008 A 
HETATM   16  C   UNL     1     -45.400 -51.277  13.228  1.00  0.00     0.007 A 
HETATM   17  C   UNL     1     -46.512 -52.225  12.882  1.00  0.00     0.007 A 
ENDBRANCH  13  15
ENDBRANCH  10  13
ENDBRANCH   8   9
ENDBRANCH   1   8
BRANCH   5  18
HETATM   18  C   UNL     1     -39.761 -49.887  12.053  1.00  0.00     0.259 C 
HETATM   19  O   UNL     1     -38.905 -49.754  11.176  1.00  0.00    -0.267 OA
HETATM   20  N   UNL     1     -40.969 -49.170  11.988  1.00  0.00    -0.347 N 
HETATM   21  C   UNL     1     -42.171 -49.399  12.792  1.00  0.00     0.153 C 
BRANCH  20  22
HETATM   22  C   UNL     1     -41.072 -48.128  10.936  1.00  0.00     0.087 C 
HETATM   23  C   UNL     1     -42.467 -48.036  10.288  1.00  0.00     0.033 C 
BRANCH  22  24
HETATM   24  C   UNL     1     -40.663 -46.752  11.445  1.00  0.00     0.008 A 
HETATM   25  C   UNL     1     -41.243 -45.489  10.849  1.00  0.00     0.007 A 
HETATM   26  C   UNL     1     -39.778 -45.786  10.688  1.00  0.00     0.007 A 
ENDBRANCH  22  24
ENDBRANCH  20  22
ENDBRANCH   5  18
TORSDOF 7
ENDMDL
MODEL 3
REMARK VINA RESULT:      -5.9      2.647      6.827
REMARK  7 active torsions:
REMARK  status: ('A' for Active; 'I' for Inactive)
REMARK    1  A    between atoms: C_2  and  N_3 
REMARK    2  A    between atoms: C_2  and  C_23 
REMARK       I    between atoms: N_3  and  C_4 
REMARK    3  A    between atoms: C_4  and  C_6 
REMARK    4  A    between atoms: C_6  and  N_7 
REMARK    5  A    between atoms: C_11  and  C_12 
REMARK       I    between atoms: C_12  and  N_14 
REMARK    6  A    between atoms: N_14  and  C_16 
REMARK    7  A    between atoms: C_16  and  C_18 
ROOT
HETATM    1  N   UNL     1     -41.587 -52.991  13.891  1.00  0.00    -0.315 N 
HETATM    2  C   UNL     1     -41.130 -52.626  15.143  1.00  0.00     0.095 C 
HETATM    3  C   UNL     1     -40.327 -51.567  15.286  1.00  0.00     0.018 C 
HETATM    4  C   UNL     1     -40.034 -50.720  14.153  1.00  0.00     0.024 C 
HETATM    5  C   UNL     1     -40.655 -50.894  12.973  1.00  0.00     0.100 C 
HETATM    6  C   UNL     1     -41.236 -52.266  12.743  1.00  0.00     0.263 C 
HETATM    7  O   UNL     1     -41.416 -52.726  11.616  1.00  0.00    -0.267 OA
ENDROOT
BRANCH   1   8
HETATM    8  C   UNL     1     -42.293 -54.268  13.727  1.00  0.00     0.234 C 
BRANCH   8   9
HETATM    9  C   UNL     1     -43.778 -54.167  14.123  1.00  0.00     0.236 C 
HETATM   10  N   UNL     1     -44.425 -53.057  13.645  1.00  0.00    -0.355 N 
HETATM   11  H   UNL     1     -43.909 -52.422  13.028  1.00  0.00     0.162 HD
HETATM   12  O   UNL     1     -44.329 -55.042  14.781  1.00  0.00    -0.272 OA
BRANCH  10  13
HETATM   13  C   UNL     1     -45.818 -52.770  13.892  1.00  0.00     0.084 C 
HETATM   14  C   UNL     1     -46.449 -52.071  12.691  1.00  0.00     0.032 C 
BRANCH  13  15
HETATM   15  C   UNL     1     -45.916 -51.909  15.128  1.00  0.00     0.008 A 
HETATM   16  C   UNL     1     -46.466 -52.458  16.424  1.00  0.00     0.007 A 
HETATM   17  C   UNL     1     -47.269 -51.469  15.632  1.00  0.00     0.007 A 
ENDBRANCH  13  15
ENDBRANCH  10  13
ENDBRANCH   8   9
ENDBRANCH   1   8
BRANCH   5  18
HETATM   18  C   UNL     1     -40.622 -49.881  11.867  1.00  0.00     0.259 C 
HETATM   19  O   UNL     1     -39.643 -49.856  11.119  1.00  0.00    -0.267 OA
HETATM   20  N   UNL     1     -41.704 -49.007  11.659  1.00  0.00    -0.347 N 
HETATM   21  C   UNL     1     -43.026 -49.080  12.285  1.00  0.00     0.153 C 
BRANCH  20  22
HETATM   22  C   UNL     1     -41.522 -47.950  10.633  1.00  0.00     0.087 C 
HETATM   23  C   UNL     1     -42.774 -47.699   9.771  1.00  0.00     0.033 C 
BRANCH  22  24
HETATM   24  C   UNL     1     -41.056 -46.633  11.237  1.00  0.00     0.008 A 
HETATM   25  C   UNL     1     -41.145 -45.337  10.464  1.00  0.00     0.007 A 
HETATM   26  C   UNL     1     -39.799 -45.897  10.826  1.00  0.00     0.007 A 
ENDBRANCH  22  24
ENDBRANCH  20  22
ENDBRANCH   5  18
TORSDOF 7
ENDMDL
MODEL 4
REMARK VINA RESULT:      -5.8      5.271      8.595
REMARK  7 active torsions:
REMARK  status: ('A' for Active; 'I' for Inactive)
REMARK    1  A    between atoms: C_2  and  N_3 
REMARK    2  A    between atoms: C_2  and  C_23 
REMARK       I    between atoms: N_3  and  C_4 
REMARK    3  A    between atoms: C_4  and  C_6 
REMARK    4  A    between atoms: C_6  and  N_7 
REMARK    5  A    between atoms: C_11  and  C_12 
REMARK       I    between atoms: C_12  and  N_14 
REMARK    6  A    between atoms: N_14  and  C_16 
REMARK    7  A    between atoms: C_16  and  C_18 
ROOT
HETATM    1  N   UNL     1     -45.490 -53.680  14.110  1.00  0.00    -0.315 N 
HETATM    2  C   UNL     1     -45.603 -52.851  13.012  1.00  0.00     0.095 C 
HETATM    3  C   UNL     1     -46.376 -51.762  13.063  1.00  0.00     0.018 C 
HETATM    4  C   UNL     1     -46.999 -51.374  14.307  1.00  0.00     0.024 C 
HETATM    5  C   UNL     1     -46.716 -52.010  15.458  1.00  0.00     0.100 C 
HETATM    6  C   UNL     1     -46.167 -53.406  15.308  1.00  0.00     0.263 C 
HETATM    7  O   UNL     1     -46.283 -54.259  16.186  1.00  0.00    -0.267 OA
ENDROOT
BRANCH   1   8
HETATM    8  C   UNL     1     -44.806 -54.972  13.970  1.00  0.00     0.234 C 
BRANCH   8   9
HETATM    9  C   UNL     1     -43.452 -54.997  14.703  1.00  0.00     0.236 C 
HETATM   10  N   UNL     1     -42.676 -53.882  14.515  1.00  0.00    -0.355 N 
HETATM   11  H   UNL     1     -43.064 -53.109  13.965  1.00  0.00     0.162 HD
HETATM   12  O   UNL     1     -43.130 -55.933  15.427  1.00  0.00    -0.272 OA
BRANCH  10  13
HETATM   13  C   UNL     1     -41.377 -53.698  15.114  1.00  0.00     0.084 C 
HETATM   14  C   UNL     1     -41.327 -52.398  15.913  1.00  0.00     0.032 C 
BRANCH  13  15
HETATM   15  C   UNL     1     -40.341 -53.692  14.014  1.00  0.00     0.008 A 
HETATM   16  C   UNL     1     -39.155 -54.628  14.051  1.00  0.00     0.007 A 
HETATM   17  C   UNL     1     -38.956 -53.159  14.290  1.00  0.00     0.007 A 
ENDBRANCH  13  15
ENDBRANCH  10  13
ENDBRANCH   8   9
ENDBRANCH   1   8
BRANCH   5  18
HETATM   18  C   UNL     1     -47.087 -51.475  16.809  1.00  0.00     0.259 C 
HETATM   19  O   UNL     1     -48.234 -51.658  17.221  1.00  0.00    -0.267 OA
HETATM   20  N   UNL     1     -46.137 -50.816  17.609  1.00  0.00    -0.347 N 
HETATM   21  C   UNL     1     -44.692 -50.745  17.379  1.00  0.00     0.153 C 
BRANCH  20  22
HETATM   22  C   UNL     1     -46.631 -50.200  18.865  1.00  0.00     0.087 C 
HETATM   23  C   UNL     1     -45.655 -50.334  20.049  1.00  0.00     0.033 C 
BRANCH  22  24
HETATM   24  C   UNL     1     -47.001 -48.734  18.683  1.00  0.00     0.008 A 
HETATM   25  C   UNL     1     -47.368 -47.862  19.863  1.00  0.00     0.007 A 
HETATM   26  C   UNL     1     -48.402 -48.179  18.821  1.00  0.00     0.007 A 
ENDBRANCH  22  24
ENDBRANCH  20  22
ENDBRANCH   5  18
TORSDOF 7
ENDMDL
MODEL 5
REMARK VINA RESULT:      -5.8      3.464      6.813
REMARK  7 active torsions:
REMARK  status: ('A' for Active; 'I' for Inactive)
REMARK    1  A    between atoms: C_2  and  N_3 
REMARK    2  A    between atoms: C_2  and  C_23 
REMARK       I    between atoms: N_3  and  C_4 
REMARK    3  A    between atoms: C_4  and  C_6 
REMARK    4  A    between atoms: C_6  and  N_7 
REMARK    5  A    between atoms: C_11  and  C_12 
REMARK       I    between atoms: C_12  and  N_14 
REMARK    6  A    between atoms: N_14  and  C_16 
REMARK    7  A    between atoms: C_16  and  C_18 
ROOT
HETATM    1  N   UNL     1     -43.751 -54.310  14.580  1.00  0.00    -0.315 N 
HETATM    2  C   UNL     1     -42.997 -54.850  15.604  1.00  0.00     0.095 C 
HETATM    3  C   UNL     1     -41.664 -54.884  15.515  1.00  0.00     0.018 C 
HETATM    4  C   UNL     1     -40.994 -54.243  14.408  1.00  0.00     0.024 C 
HETATM    5  C   UNL     1     -41.673 -53.493  13.521  1.00  0.00     0.100 C 
HETATM    6  C   UNL     1     -43.151 -53.776  13.430  1.00  0.00     0.263 C 
HETATM    7  O   UNL     1     -43.807 -53.539  12.418  1.00  0.00    -0.267 OA
ENDROOT
BRANCH   1   8
HETATM    8  C   UNL     1     -45.211 -54.467  14.601  1.00  0.00     0.234 C 
BRANCH   8   9
HETATM    9  C   UNL     1     -45.936 -53.132  14.852  1.00  0.00     0.236 C 
HETATM   10  N   UNL     1     -45.384 -52.355  15.837  1.00  0.00    -0.355 N 
HETATM   11  H   UNL     1     -44.520 -52.678  16.283  1.00  0.00     0.162 HD
HETATM   12  O   UNL     1     -46.907 -52.792  14.184  1.00  0.00    -0.272 OA
BRANCH  10  13
HETATM   13  C   UNL     1     -45.902 -51.065  16.228  1.00  0.00     0.084 C 
HETATM   14  C   UNL     1     -44.766 -50.113  16.592  1.00  0.00     0.032 C 
BRANCH  13  15
HETATM   15  C   UNL     1     -46.834 -51.261  17.399  1.00  0.00     0.008 A 
HETATM   16  C   UNL     1     -48.306 -50.930  17.292  1.00  0.00     0.007 A 
HETATM   17  C   UNL     1     -47.402 -50.060  18.116  1.00  0.00     0.007 A 
ENDBRANCH  13  15
ENDBRANCH  10  13
ENDBRANCH   8   9
ENDBRANCH   1   8
BRANCH   5  18
HETATM   18  C   UNL     1     -41.008 -52.569  12.544  1.00  0.00     0.259 C 
HETATM   19  O   UNL     1     -40.608 -53.032  11.474  1.00  0.00    -0.267 OA
HETATM   20  N   UNL     1     -40.883 -51.196  12.821  1.00  0.00    -0.347 N 
HETATM   21  C   UNL     1     -41.524 -50.458  13.911  1.00  0.00     0.153 C 
BRANCH  20  22
HETATM   22  C   UNL     1     -40.090 -50.389  11.860  1.00  0.00     0.087 C 
HETATM   23  C   UNL     1     -40.822 -49.133  11.352  1.00  0.00     0.033 C 
BRANCH  22  24
HETATM   24  C   UNL     1     -38.734 -49.987  12.425  1.00  0.00     0.008 A 
HETATM   25  C   UNL     1     -37.547 -49.743  11.522  1.00  0.00     0.007 A 
HETATM   26  C   UNL     1     -37.526 -50.896  12.486  1.00  0.00     0.007 A 
ENDBRANCH  22  24
ENDBRANCH  20  22
ENDBRANCH   5  18
TORSDOF 7
ENDMDL
MODEL 6
REMARK VINA RESULT:      -5.8      3.712      6.161
REMARK  7 active torsions:
REMARK  status: ('A' for Active; 'I' for Inactive)
REMARK    1  A    between atoms: C_2  and  N_3 
REMARK    2  A    between atoms: C_2  and  C_23 
REMARK       I    between atoms: N_3  and  C_4 
REMARK    3  A    between atoms: C_4  and  C_6 
REMARK    4  A    between atoms: C_6  and  N_7 
REMARK    5  A    between atoms: C_11  and  C_12 
REMARK       I    between atoms: C_12  and  N_14 
REMARK    6  A    between atoms: N_14  and  C_16 
REMARK    7  A    between atoms: C_16  and  C_18 
ROOT
HETATM    1  N   UNL     1     -41.551 -52.987  13.045  1.00  0.00    -0.315 N 
HETATM    2  C   UNL     1     -41.744 -53.783  14.157  1.00  0.00     0.095 C 
HETATM    3  C   UNL     1     -40.794 -53.880  15.092  1.00  0.00     0.018 C 
HETATM    4  C   UNL     1     -39.612 -53.054  15.012  1.00  0.00     0.024 C 
HETATM    5  C   UNL     1     -39.496 -52.087  14.085  1.00  0.00     0.100 C 
HETATM    6  C   UNL     1     -40.369 -52.252  12.866  1.00  0.00     0.263 C 
HETATM    7  O   UNL     1     -40.082 -51.758  11.777  1.00  0.00    -0.267 OA
ENDROOT
BRANCH   1   8
HETATM    8  C   UNL     1     -42.511 -53.053  11.936  1.00  0.00     0.234 C 
BRANCH   8   9
HETATM    9  C   UNL     1     -43.952 -53.285  12.426  1.00  0.00     0.236 C 
HETATM   10  N   UNL     1     -44.621 -52.148  12.799  1.00  0.00    -0.355 N 
HETATM   11  H   UNL     1     -44.152 -51.246  12.674  1.00  0.00     0.162 HD
HETATM   12  O   UNL     1     -44.456 -54.403  12.436  1.00  0.00    -0.272 OA
BRANCH  10  13
HETATM   13  C   UNL     1     -45.981 -52.139  13.282  1.00  0.00     0.084 C 
HETATM   14  C   UNL     1     -46.930 -51.591  12.220  1.00  0.00     0.032 C 
BRANCH  13  15
HETATM   15  C   UNL     1     -46.036 -51.299  14.536  1.00  0.00     0.008 A 
HETATM   16  C   UNL     1     -45.861 -51.920  15.903  1.00  0.00     0.007 A 
HETATM   17  C   UNL     1     -47.212 -51.426  15.474  1.00  0.00     0.007 A 
ENDBRANCH  13  15
ENDBRANCH  10  13
ENDBRANCH   8   9
ENDBRANCH   1   8
BRANCH   5  18
HETATM   18  C   UNL     1     -38.449 -51.015  14.137  1.00  0.00     0.259 C 
HETATM   19  O   UNL     1     -37.391 -51.195  13.531  1.00  0.00    -0.267 OA
HETATM   20  N   UNL     1     -38.685 -49.811  14.825  1.00  0.00    -0.347 N 
HETATM   21  C   UNL     1     -39.962 -49.345  15.367  1.00  0.00     0.153 C 
BRANCH  20  22
HETATM   22  C   UNL     1     -37.541 -48.872  14.939  1.00  0.00     0.087 C 
HETATM   23  C   UNL     1     -37.923 -47.398  14.703  1.00  0.00     0.033 C 
BRANCH  22  24
HETATM   24  C   UNL     1     -36.822 -48.997  16.276  1.00  0.00     0.008 A 
HETATM   25  C   UNL     1     -35.589 -48.178  16.585  1.00  0.00     0.007 A 
HETATM   26  C   UNL     1     -35.483 -49.673  16.470  1.00  0.00     0.007 A 
ENDBRANCH  22  24
ENDBRANCH  20  22
ENDBRANCH   5  18
TORSDOF 7
ENDMDL
MODEL 7
REMARK VINA RESULT:      -5.8      2.264      3.838
REMARK  7 active torsions:
REMARK  status: ('A' for Active; 'I' for Inactive)
REMARK    1  A    between atoms: C_2  and  N_3 
REMARK    2  A    between atoms: C_2  and  C_23 
REMARK       I    between atoms: N_3  and  C_4 
REMARK    3  A    between atoms: C_4  and  C_6 
REMARK    4  A    between atoms: C_6  and  N_7 
REMARK    5  A    between atoms: C_11  and  C_12 
REMARK       I    between atoms: C_12  and  N_14 
REMARK    6  A    between atoms: N_14  and  C_16 
REMARK    7  A    between atoms: C_16  and  C_18 
ROOT
HETATM    1  N   UNL     1     -39.755 -50.821  13.825  1.00  0.00    -0.315 N 
HETATM    2  C   UNL     1     -38.777 -51.783  13.984  1.00  0.00     0.095 C 
HETATM    3  C   UNL     1     -39.110 -53.070  14.122  1.00  0.00     0.018 C 
HETATM    4  C   UNL     1     -40.487 -53.481  13.978  1.00  0.00     0.024 C 
HETATM    5  C   UNL     1     -41.436 -52.616  13.576  1.00  0.00     0.100 C 
HETATM    6  C   UNL     1     -41.116 -51.158  13.792  1.00  0.00     0.263 C 
HETATM    7  O   UNL     1     -41.990 -50.302  13.914  1.00  0.00    -0.267 OA
ENDROOT
BRANCH   1   8
HETATM    8  C   UNL     1     -39.385 -49.401  13.881  1.00  0.00     0.234 C 
BRANCH   8   9
HETATM    9  C   UNL     1     -39.418 -48.735  12.494  1.00  0.00     0.236 C 
HETATM   10  N   UNL     1     -40.480 -47.893  12.287  1.00  0.00    -0.355 N 
HETATM   11  H   UNL     1     -41.125 -47.725  13.065  1.00  0.00     0.162 HD
HETATM   12  O   UNL     1     -38.532 -48.924  11.668  1.00  0.00    -0.272 OA
BRANCH  10  13
HETATM   13  C   UNL     1     -40.699 -47.163  11.061  1.00  0.00     0.084 C 
HETATM   14  C   UNL     1     -40.059 -45.779  11.133  1.00  0.00     0.032 C 
BRANCH  13  15
HETATM   15  C   UNL     1     -42.188 -47.055  10.830  1.00  0.00     0.008 A 
HETATM   16  C   UNL     1     -42.843 -47.701   9.631  1.00  0.00     0.007 A 
HETATM   17  C   UNL     1     -42.712 -46.207   9.697  1.00  0.00     0.007 A 
ENDBRANCH  13  15
ENDBRANCH  10  13
ENDBRANCH   8   9
ENDBRANCH   1   8
BRANCH   5  18
HETATM   18  C   UNL     1     -42.801 -53.041  13.122  1.00  0.00     0.259 C 
HETATM   19  O   UNL     1     -43.070 -52.974  11.921  1.00  0.00    -0.267 OA
HETATM   20  N   UNL     1     -43.739 -53.548  14.039  1.00  0.00    -0.347 N 
HETATM   21  C   UNL     1     -43.492 -53.927  15.431  1.00  0.00     0.153 C 
BRANCH  20  22
HETATM   22  C   UNL     1     -45.106 -53.810  13.521  1.00  0.00     0.087 C 
HETATM   23  C   UNL     1     -45.643 -55.211  13.868  1.00  0.00     0.033 C 
BRANCH  22  24
HETATM   24  C   UNL     1     -46.108 -52.759  13.979  1.00  0.00     0.008 A 
HETATM   25  C   UNL     1     -46.633 -51.706  13.029  1.00  0.00     0.007 A 
HETATM   26  C   UNL     1     -45.781 -51.299  14.198  1.00  0.00     0.007 A 
ENDBRANCH  22  24
ENDBRANCH  20  22
ENDBRANCH   5  18
TORSDOF 7
ENDMDL
MODEL 8
REMARK VINA RESULT:      -5.6      2.156      2.695
REMARK  7 active torsions:
REMARK  status: ('A' for Active; 'I' for Inactive)
REMARK    1  A    between atoms: C_2  and  N_3 
REMARK    2  A    between atoms: C_2  and  C_23 
REMARK       I    between atoms: N_3  and  C_4 
REMARK    3  A    between atoms: C_4  and  C_6 
REMARK    4  A    between atoms: C_6  and  N_7 
REMARK    5  A    between atoms: C_11  and  C_12 
REMARK       I    between atoms: C_12  and  N_14 
REMARK    6  A    between atoms: N_14  and  C_16 
REMARK    7  A    between atoms: C_16  and  C_18 
ROOT
HETATM    1  N   UNL     1     -39.687 -48.613  12.772  1.00  0.00    -0.315 N 
HETATM    2  C   UNL     1     -38.498 -49.277  12.542  1.00  0.00     0.095 C 
HETATM    3  C   UNL     1     -38.411 -50.596  12.737  1.00  0.00     0.018 C 
HETATM    4  C   UNL     1     -39.592 -51.359  13.066  1.00  0.00     0.024 C 
HETATM    5  C   UNL     1     -40.813 -50.795  13.056  1.00  0.00     0.100 C 
HETATM    6  C   UNL     1     -40.834 -49.294  13.203  1.00  0.00     0.263 C 
HETATM    7  O   UNL     1     -41.805 -48.690  13.656  1.00  0.00    -0.267 OA
ENDROOT
BRANCH   1   8
HETATM    8  C   UNL     1     -39.708 -47.145  12.751  1.00  0.00     0.234 C 
BRANCH   8   9
HETATM    9  C   UNL     1     -40.256 -46.589  11.424  1.00  0.00     0.236 C 
HETATM   10  N   UNL     1     -41.623 -46.596  11.320  1.00  0.00    -0.355 N 
HETATM   11  H   UNL     1     -42.170 -46.906  12.129  1.00  0.00     0.162 HD
HETATM   12  O   UNL     1     -39.512 -46.141  10.558  1.00  0.00    -0.272 OA
BRANCH  10  13
HETATM   13  C   UNL     1     -42.343 -46.114  10.165  1.00  0.00     0.084 C 
HETATM   14  C   UNL     1     -42.922 -44.727  10.427  1.00  0.00     0.032 C 
BRANCH  13  15
HETATM   15  C   UNL     1     -43.439 -47.101   9.841  1.00  0.00     0.008 A 
HETATM   16  C   UNL     1     -43.618 -47.640   8.440  1.00  0.00     0.007 A 
HETATM   17  C   UNL     1     -44.616 -46.668   9.000  1.00  0.00     0.007 A 
ENDBRANCH  13  15
ENDBRANCH  10  13
ENDBRANCH   8   9
ENDBRANCH   1   8
BRANCH   5  18
HETATM   18  C   UNL     1     -42.088 -51.586  13.090  1.00  0.00     0.259 C 
HETATM   19  O   UNL     1     -42.491 -52.099  12.045  1.00  0.00    -0.267 OA
HETATM   20  N   UNL     1     -42.785 -51.775  14.297  1.00  0.00    -0.347 N 
HETATM   21  C   UNL     1     -42.312 -51.455  15.645  1.00  0.00     0.153 C 
BRANCH  20  22
HETATM   22  C   UNL     1     -44.104 -52.450  14.207  1.00  0.00     0.087 C 
HETATM   23  C   UNL     1     -44.330 -53.517  15.296  1.00  0.00     0.033 C 
BRANCH  22  24
HETATM   24  C   UNL     1     -45.261 -51.461  14.226  1.00  0.00     0.008 A 
HETATM   25  C   UNL     1     -46.652 -51.884  14.643  1.00  0.00     0.007 A 
HETATM   26  C   UNL     1     -46.398 -51.451  13.227  1.00  0.00     0.007 A 
ENDBRANCH  22  24
ENDBRANCH  20  22
ENDBRANCH   5  18
TORSDOF 7
ENDMDL
MODEL 9
REMARK VINA RESULT:      -5.6      2.682      3.474
REMARK  7 active torsions:
REMARK  status: ('A' for Active; 'I' for Inactive)
REMARK    1  A    between atoms: C_2  and  N_3 
REMARK    2  A    between atoms: C_2  and  C_23 
REMARK       I    between atoms: N_3  and  C_4 
REMARK    3  A    between atoms: C_4  and  C_6 
REMARK    4  A    between atoms: C_6  and  N_7 
REMARK    5  A    between atoms: C_11  and  C_12 
REMARK       I    between atoms: C_12  and  N_14 
REMARK    6  A    between atoms: N_14  and  C_16 
REMARK    7  A    between atoms: C_16  and  C_18 
ROOT
HETATM    1  N   UNL     1     -39.703 -50.004  11.670  1.00  0.00    -0.315 N 
HETATM    2  C   UNL     1     -38.385 -49.607  11.551  1.00  0.00     0.095 C 
HETATM    3  C   UNL     1     -37.458 -50.079  12.391  1.00  0.00     0.018 C 
HETATM    4  C   UNL     1     -37.803 -51.105  13.347  1.00  0.00     0.024 C 
HETATM    5  C   UNL     1     -39.010 -51.698  13.332  1.00  0.00     0.100 C 
HETATM    6  C   UNL     1     -40.107 -50.913  12.658  1.00  0.00     0.263 C 
HETATM    7  O   UNL     1     -41.295 -51.068  12.937  1.00  0.00    -0.267 OA
ENDROOT
BRANCH   1   8
HETATM    8  C   UNL     1     -40.734 -49.323  10.877  1.00  0.00     0.234 C 
BRANCH   8   9
HETATM    9  C   UNL     1     -40.958 -47.871  11.337  1.00  0.00     0.236 C 
HETATM   10  N   UNL     1     -40.139 -46.947  10.742  1.00  0.00    -0.355 N 
HETATM   11  H   UNL     1     -39.495 -47.268  10.012  1.00  0.00     0.162 HD
HETATM   12  O   UNL     1     -41.834 -47.580  12.144  1.00  0.00    -0.272 OA
BRANCH  10  13
HETATM   13  C   UNL     1     -40.185 -45.532  11.023  1.00  0.00     0.084 C 
HETATM   14  C   UNL     1     -39.481 -44.738   9.927  1.00  0.00     0.032 C 
BRANCH  13  15
HETATM   15  C   UNL     1     -39.533 -45.291  12.364  1.00  0.00     0.008 A 
HETATM   16  C   UNL     1     -40.301 -44.665  13.506  1.00  0.00     0.007 A 
HETATM   17  C   UNL     1     -39.228 -43.881  12.807  1.00  0.00     0.007 A 
ENDBRANCH  13  15
ENDBRANCH  10  13
ENDBRANCH   8   9
ENDBRANCH   1   8
BRANCH   5  18
HETATM   18  C   UNL     1     -39.320 -52.956  14.086  1.00  0.00     0.259 C 
HETATM   19  O   UNL     1     -39.098 -54.040  13.542  1.00  0.00    -0.267 OA
HETATM   20  N   UNL     1     -39.813 -52.904  15.402  1.00  0.00    -0.347 N 
HETATM   21  C   UNL     1     -39.887 -51.725  16.266  1.00  0.00     0.153 C 
BRANCH  20  22
HETATM   22  C   UNL     1     -40.222 -54.193  16.015  1.00  0.00     0.087 C 
HETATM   23  C   UNL     1     -39.620 -54.434  17.412  1.00  0.00     0.033 C 
BRANCH  22  24
HETATM   24  C   UNL     1     -41.735 -54.344  16.087  1.00  0.00     0.008 A 
HETATM   25  C   UNL     1     -42.385 -55.702  16.229  1.00  0.00     0.007 A 
HETATM   26  C   UNL     1     -42.596 -54.902  14.974  1.00  0.00     0.007 A 
ENDBRANCH  22  24
ENDBRANCH  20  22
ENDBRANCH   5  18
TORSDOF 7
ENDMDL
