MODEL 1
REMARK VINA RESULT:      -5.8      0.000      0.000
REMARK  2 active torsions:
REMARK  status: ('A' for Active; 'I' for Inactive)
REMARK       I    between atoms: C_2  and  N_3 
REMARK    1  A    between atoms: C_2  and  C_12 
REMARK    2  A    between atoms: N_3  and  C_4 
ROOT
HETATM    1  O   UNL     1     -42.855 -44.722  10.113  1.00  0.00    -0.270 OA
HETATM    2  C   UNL     1     -41.994 -45.597  10.017  1.00  0.00     0.252 C 
HETATM    3  N   UNL     1     -42.231 -46.868   9.538  1.00  0.00    -0.310 N 
HETATM    4  H   UNL     1     -41.439 -47.384   9.174  1.00  0.00     0.170 HD
ENDROOT
BRANCH   3   5
HETATM    5  C   UNL     1     -43.483 -47.292   9.086  1.00  0.00     0.123 A 
HETATM    6  C   UNL     1     -43.683 -47.872   7.829  1.00  0.00     0.136 A 
HETATM    7  N   UNL     1     -44.889 -48.328   7.405  1.00  0.00    -0.371 N 
HETATM    8  C   UNL     1     -45.891 -48.204   8.299  1.00  0.00     0.104 A 
ATOM      9  HN  UNL     1     -45.028 -48.734   6.479  1.00  0.00     0.164 HD
HETATM   10  C   UNL     1     -45.703 -47.610   9.538  1.00  0.00     0.106 A 
HETATM   11  N   UNL     1     -44.508 -47.112   9.944  1.00  0.00    -0.350 N 
ATOM     12  HN  UNL     1     -44.392 -46.633  10.837  1.00  0.00     0.166 HD
ENDBRANCH   3   5
BRANCH   2  13
HETATM   13  C   UNL     1     -40.539 -45.370  10.477  1.00  0.00     0.213 C 
HETATM   14  C   UNL     1     -40.301 -45.917  11.890  1.00  0.00     0.042 C 
HETATM   15  C   UNL     1     -40.860 -44.971  12.948  1.00  0.00     0.005 C 
HETATM   16  C   UNL     1     -40.305 -43.571  12.732  1.00  0.00     0.026 C 
HETATM   17  C   UNL     1     -40.538 -43.112  11.301  1.00  0.00     0.168 C 
HETATM   18  O   UNL     1     -40.044 -44.041  10.336  1.00  0.00    -0.376 OA
ENDBRANCH   2  13
TORSDOF 2
ENDMDL
MODEL 2
REMARK VINA RESULT:      -5.5      6.825      8.867
REMARK  2 active torsions:
REMARK  status: ('A' for Active; 'I' for Inactive)
REMARK       I    between atoms: C_2  and  N_3 
REMARK    1  A    between atoms: C_2  and  C_12 
REMARK    2  A    between atoms: N_3  and  C_4 
ROOT
HETATM    1  O   UNL     1     -44.017 -51.301  13.705  1.00  0.00    -0.270 OA
HETATM    2  C   UNL     1     -44.011 -52.190  12.853  1.00  0.00     0.252 C 
HETATM    3  N   UNL     1     -42.915 -52.518  12.083  1.00  0.00    -0.310 N 
HETATM    4  H   UNL     1     -42.889 -53.447  11.681  1.00  0.00     0.170 HD
ENDROOT
BRANCH   3   5
HETATM    5  C   UNL     1     -41.677 -51.882  12.207  1.00  0.00     0.123 A 
HETATM    6  C   UNL     1     -40.617 -52.416  12.944  1.00  0.00     0.136 A 
HETATM    7  N   UNL     1     -39.398 -51.825  13.029  1.00  0.00    -0.371 N 
HETATM    8  C   UNL     1     -39.270 -50.683  12.324  1.00  0.00     0.104 A 
ATOM      9  HN  UNL     1     -38.636 -52.215  13.584  1.00  0.00     0.164 HD
HETATM   10  C   UNL     1     -40.324 -50.137  11.607  1.00  0.00     0.106 A 
HETATM   11  N   UNL     1     -41.557 -50.704  11.561  1.00  0.00    -0.350 N 
ATOM     12  HN  UNL     1     -42.339 -50.268  11.072  1.00  0.00     0.166 HD
ENDBRANCH   3   5
BRANCH   2  13
HETATM   13  C   UNL     1     -45.271 -53.015  12.520  1.00  0.00     0.213 C 
HETATM   14  C   UNL     1     -46.505 -52.488  13.262  1.00  0.00     0.042 C 
HETATM   15  C   UNL     1     -46.506 -52.941  14.718  1.00  0.00     0.005 C 
HETATM   16  C   UNL     1     -46.350 -54.452  14.788  1.00  0.00     0.026 C 
HETATM   17  C   UNL     1     -45.133 -54.906  13.996  1.00  0.00     0.168 C 
HETATM   18  O   UNL     1     -45.141 -54.428  12.650  1.00  0.00    -0.376 OA
ENDBRANCH   2  13
TORSDOF 2
ENDMDL
MODEL 3
REMARK VINA RESULT:      -5.3      8.476     10.053
REMARK  2 active torsions:
REMARK  status: ('A' for Active; 'I' for Inactive)
REMARK       I    between atoms: C_2  and  N_3 
REMARK    1  A    between atoms: C_2  and  C_12 
REMARK    2  A    between atoms: N_3  and  C_4 
ROOT
HETATM    1  O   UNL     1     -44.265 -55.070  15.185  1.00  0.00    -0.270 OA
HETATM    2  C   UNL     1     -44.363 -54.351  14.190  1.00  0.00     0.252 C 
HETATM    3  N   UNL     1     -43.289 -53.796  13.527  1.00  0.00    -0.310 N 
HETATM    4  H   UNL     1     -43.427 -53.528  12.560  1.00  0.00     0.170 HD
ENDROOT
BRANCH   3   5
HETATM    5  C   UNL     1     -41.962 -54.011  13.907  1.00  0.00     0.123 A 
HETATM    6  C   UNL     1     -40.946 -54.307  12.995  1.00  0.00     0.136 A 
HETATM    7  N   UNL     1     -39.647 -54.470  13.355  1.00  0.00    -0.371 N 
HETATM    8  C   UNL     1     -39.397 -54.303  14.669  1.00  0.00     0.104 A 
ATOM      9  HN  UNL     1     -38.917 -54.703  12.682  1.00  0.00     0.164 HD
HETATM   10  C   UNL     1     -40.404 -54.030  15.582  1.00  0.00     0.106 A 
HETATM   11  N   UNL     1     -41.709 -53.914  15.229  1.00  0.00    -0.350 N 
ATOM     12  HN  UNL     1     -42.448 -53.762  15.915  1.00  0.00     0.166 HD
ENDBRANCH   3   5
BRANCH   2  13
HETATM   13  C   UNL     1     -45.730 -53.952  13.598  1.00  0.00     0.213 C 
HETATM   14  C   UNL     1     -45.624 -52.698  12.722  1.00  0.00     0.042 C 
HETATM   15  C   UNL     1     -45.544 -51.437  13.575  1.00  0.00     0.005 C 
HETATM   16  C   UNL     1     -46.708 -51.402  14.554  1.00  0.00     0.026 C 
HETATM   17  C   UNL     1     -46.777 -52.692  15.356  1.00  0.00     0.168 C 
HETATM   18  O   UNL     1     -46.805 -53.856  14.529  1.00  0.00    -0.376 OA
ENDBRANCH   2  13
TORSDOF 2
ENDMDL
MODEL 4
REMARK VINA RESULT:      -5.3      5.988      7.207
REMARK  2 active torsions:
REMARK  status: ('A' for Active; 'I' for Inactive)
REMARK       I    between atoms: C_2  and  N_3 
REMARK    1  A    between atoms: C_2  and  C_12 
REMARK    2  A    between atoms: N_3  and  C_4 
ROOT
HETATM    1  O   UNL     1     -42.588 -50.972  12.788  1.00  0.00    -0.270 OA
HETATM    2  C   UNL     1     -41.653 -51.499  12.184  1.00  0.00     0.252 C 
HETATM    3  N   UNL     1     -40.762 -50.813  11.386  1.00  0.00    -0.310 N 
HETATM    4  H   UNL     1     -39.858 -51.240  11.223  1.00  0.00     0.170 HD
ENDROOT
BRANCH   3   5
HETATM    5  C   UNL     1     -40.816 -49.430  11.194  1.00  0.00     0.123 A 
HETATM    6  C   UNL     1     -39.770 -48.571  11.543  1.00  0.00     0.136 A 
HETATM    7  N   UNL     1     -39.799 -47.233  11.316  1.00  0.00    -0.371 N 
HETATM    8  C   UNL     1     -40.912 -46.786  10.701  1.00  0.00     0.104 A 
ATOM      9  HN  UNL     1     -39.037 -46.613  11.590  1.00  0.00     0.164 HD
HETATM   10  C   UNL     1     -41.963 -47.629  10.372  1.00  0.00     0.106 A 
HETATM   11  N   UNL     1     -41.953 -48.959  10.642  1.00  0.00    -0.350 N 
ATOM     12  HN  UNL     1     -42.750 -49.562  10.441  1.00  0.00     0.166 HD
ENDBRANCH   3   5
BRANCH   2  13
HETATM   13  C   UNL     1     -41.405 -53.021  12.223  1.00  0.00     0.213 C 
HETATM   14  C   UNL     1     -42.456 -53.744  13.074  1.00  0.00     0.042 C 
HETATM   15  C   UNL     1     -42.163 -53.585  14.562  1.00  0.00     0.005 C 
HETATM   16  C   UNL     1     -40.734 -54.019  14.855  1.00  0.00     0.026 C 
HETATM   17  C   UNL     1     -39.752 -53.295  13.947  1.00  0.00     0.168 C 
HETATM   18  O   UNL     1     -40.081 -53.426  12.563  1.00  0.00    -0.376 OA
ENDBRANCH   2  13
TORSDOF 2
ENDMDL
MODEL 5
REMARK VINA RESULT:      -4.9      8.033      8.724
REMARK  2 active torsions:
REMARK  status: ('A' for Active; 'I' for Inactive)
REMARK       I    between atoms: C_2  and  N_3 
REMARK    1  A    between atoms: C_2  and  C_12 
REMARK    2  A    between atoms: N_3  and  C_4 
ROOT
HETATM    1  O   UNL     1     -42.084 -54.660  14.970  1.00  0.00    -0.270 OA
HETATM    2  C   UNL     1     -42.002 -54.154  13.850  1.00  0.00     0.252 C 
HETATM    3  N   UNL     1     -43.061 -53.580  13.180  1.00  0.00    -0.310 N 
HETATM    4  H   UNL     1     -42.843 -52.903  12.458  1.00  0.00     0.170 HD
ENDROOT
BRANCH   3   5
HETATM    5  C   UNL     1     -44.347 -53.492  13.717  1.00  0.00     0.123 A 
HETATM    6  C   UNL     1     -45.022 -52.279  13.885  1.00  0.00     0.136 A 
HETATM    7  N   UNL     1     -46.290 -52.193  14.363  1.00  0.00    -0.371 N 
HETATM    8  C   UNL     1     -46.871 -53.376  14.647  1.00  0.00     0.104 A 
ATOM      9  HN  UNL     1     -46.766 -51.302  14.497  1.00  0.00     0.164 HD
HETATM   10  C   UNL     1     -46.200 -54.581  14.503  1.00  0.00     0.106 A 
HETATM   11  N   UNL     1     -44.916 -54.663  14.070  1.00  0.00    -0.350 N 
ATOM     12  HN  UNL     1     -44.415 -55.550  14.015  1.00  0.00     0.166 HD
ENDBRANCH   3   5
BRANCH   2  13
HETATM   13  C   UNL     1     -40.686 -54.153  13.046  1.00  0.00     0.213 C 
HETATM   14  C   UNL     1     -39.473 -54.427  13.944  1.00  0.00     0.042 C 
HETATM   15  C   UNL     1     -39.077 -53.183  14.730  1.00  0.00     0.005 C 
HETATM   16  C   UNL     1     -38.881 -52.013  13.778  1.00  0.00     0.026 C 
HETATM   17  C   UNL     1     -40.103 -51.827  12.891  1.00  0.00     0.168 C 
HETATM   18  O   UNL     1     -40.473 -53.023  12.204  1.00  0.00    -0.376 OA
ENDBRANCH   2  13
TORSDOF 2
ENDMDL
MODEL 6
REMARK VINA RESULT:      -4.8      3.304      4.353
REMARK  2 active torsions:
REMARK  status: ('A' for Active; 'I' for Inactive)
REMARK       I    between atoms: C_2  and  N_3 
REMARK    1  A    between atoms: C_2  and  C_12 
REMARK    2  A    between atoms: N_3  and  C_4 
ROOT
HETATM    1  O   UNL     1     -41.503 -48.364  12.559  1.00  0.00    -0.270 OA
HETATM    2  C   UNL     1     -40.545 -47.954  11.902  1.00  0.00     0.252 C 
HETATM    3  N   UNL     1     -40.657 -47.286  10.702  1.00  0.00    -0.310 N 
HETATM    4  H   UNL     1     -39.881 -46.699  10.421  1.00  0.00     0.170 HD
ENDROOT
BRANCH   3   5
HETATM    5  C   UNL     1     -41.885 -46.980  10.110  1.00  0.00     0.123 A 
HETATM    6  C   UNL     1     -42.534 -45.755  10.288  1.00  0.00     0.136 A 
HETATM    7  N   UNL     1     -43.704 -45.437   9.678  1.00  0.00    -0.371 N 
HETATM    8  C   UNL     1     -44.193 -46.387   8.857  1.00  0.00     0.104 A 
ATOM      9  HN  UNL     1     -44.177 -44.546   9.829  1.00  0.00     0.164 HD
HETATM   10  C   UNL     1     -43.566 -47.613   8.692  1.00  0.00     0.106 A 
HETATM   11  N   UNL     1     -42.421 -47.949   9.339  1.00  0.00    -0.350 N 
ATOM     12  HN  UNL     1     -41.994 -48.871   9.249  1.00  0.00     0.166 HD
ENDBRANCH   3   5
BRANCH   2  13
HETATM   13  C   UNL     1     -39.086 -48.195  12.343  1.00  0.00     0.213 C 
HETATM   14  C   UNL     1     -38.495 -49.446  11.683  1.00  0.00     0.042 C 
HETATM   15  C   UNL     1     -38.987 -50.716  12.368  1.00  0.00     0.005 C 
HETATM   16  C   UNL     1     -38.722 -50.631  13.863  1.00  0.00     0.026 C 
HETATM   17  C   UNL     1     -39.299 -49.347  14.442  1.00  0.00     0.168 C 
HETATM   18  O   UNL     1     -38.853 -48.181  13.749  1.00  0.00    -0.376 OA
ENDBRANCH   2  13
TORSDOF 2
ENDMDL
MODEL 7
REMARK VINA RESULT:      -4.8      7.908      9.603
REMARK  2 active torsions:
REMARK  status: ('A' for Active; 'I' for Inactive)
REMARK       I    between atoms: C_2  and  N_3 
REMARK    1  A    between atoms: C_2  and  C_12 
REMARK    2  A    between atoms: N_3  and  C_4 
ROOT
HETATM    1  O   UNL     1     -42.605 -52.879  15.482  1.00  0.00    -0.270 OA
HETATM    2  C   UNL     1     -42.849 -53.669  14.569  1.00  0.00     0.252 C 
HETATM    3  N   UNL     1     -42.193 -53.677  13.356  1.00  0.00    -0.310 N 
HETATM    4  H   UNL     1     -42.205 -54.540  12.826  1.00  0.00     0.170 HD
ENDROOT
BRANCH   3   5
HETATM    5  C   UNL     1     -41.158 -52.794  13.041  1.00  0.00     0.123 A 
HETATM    6  C   UNL     1     -41.182 -51.959  11.921  1.00  0.00     0.136 A 
HETATM    7  N   UNL     1     -40.200 -51.066  11.637  1.00  0.00    -0.371 N 
HETATM    8  C   UNL     1     -39.196 -51.022  12.535  1.00  0.00     0.104 A 
ATOM      9  HN  UNL     1     -40.220 -50.474  10.806  1.00  0.00     0.164 HD
HETATM   10  C   UNL     1     -39.155 -51.862  13.638  1.00  0.00     0.106 A 
HETATM   11  N   UNL     1     -40.113 -52.787  13.896  1.00  0.00    -0.350 N 
ATOM     12  HN  UNL     1     -40.049 -53.434  14.682  1.00  0.00     0.166 HD
ENDBRANCH   3   5
BRANCH   2  13
HETATM   13  C   UNL     1     -43.969 -54.723  14.675  1.00  0.00     0.213 C 
HETATM   14  C   UNL     1     -44.876 -54.712  13.439  1.00  0.00     0.042 C 
HETATM   15  C   UNL     1     -45.864 -53.552  13.490  1.00  0.00     0.005 C 
HETATM   16  C   UNL     1     -46.626 -53.581  14.806  1.00  0.00     0.026 C 
HETATM   17  C   UNL     1     -45.666 -53.635  15.985  1.00  0.00     0.168 C 
HETATM   18  O   UNL     1     -44.726 -54.705  15.883  1.00  0.00    -0.376 OA
ENDBRANCH   2  13
TORSDOF 2
ENDMDL
MODEL 8
REMARK VINA RESULT:      -4.6      5.260      5.763
REMARK  2 active torsions:
REMARK  status: ('A' for Active; 'I' for Inactive)
REMARK       I    between atoms: C_2  and  N_3 
REMARK    1  A    between atoms: C_2  and  C_12 
REMARK    2  A    between atoms: N_3  and  C_4 
ROOT
HETATM    1  O   UNL     1     -42.289 -49.527  12.877  1.00  0.00    -0.270 OA
HETATM    2  C   UNL     1     -41.686 -49.769  11.830  1.00  0.00     0.252 C 
HETATM    3  N   UNL     1     -41.366 -51.038  11.397  1.00  0.00    -0.310 N 
HETATM    4  H   UNL     1     -41.198 -51.163  10.406  1.00  0.00     0.170 HD
ENDROOT
BRANCH   3   5
HETATM    5  C   UNL     1     -41.716 -52.195  12.097  1.00  0.00     0.123 A 
HETATM    6  C   UNL     1     -40.787 -52.977  12.789  1.00  0.00     0.136 A 
HETATM    7  N   UNL     1     -41.129 -54.076  13.509  1.00  0.00    -0.371 N 
HETATM    8  C   UNL     1     -42.449 -54.352  13.531  1.00  0.00     0.104 A 
ATOM      9  HN  UNL     1     -40.441 -54.649  13.996  1.00  0.00     0.164 HD
HETATM   10  C   UNL     1     -43.373 -53.593  12.829  1.00  0.00     0.106 A 
HETATM   11  N   UNL     1     -43.025 -52.523  12.071  1.00  0.00    -0.350 N 
ATOM     12  HN  UNL     1     -43.705 -52.001  11.519  1.00  0.00     0.166 HD
ENDBRANCH   3   5
BRANCH   2  13
HETATM   13  C   UNL     1     -41.175 -48.649  10.901  1.00  0.00     0.213 C 
HETATM   14  C   UNL     1     -40.591 -47.476  11.696  1.00  0.00     0.042 C 
HETATM   15  C   UNL     1     -41.695 -46.594  12.270  1.00  0.00     0.005 C 
HETATM   16  C   UNL     1     -42.643 -46.168  11.159  1.00  0.00     0.026 C 
HETATM   17  C   UNL     1     -43.149 -47.377  10.387  1.00  0.00     0.168 C 
HETATM   18  O   UNL     1     -42.091 -48.205   9.903  1.00  0.00    -0.376 OA
ENDBRANCH   2  13
TORSDOF 2
ENDMDL
MODEL 9
REMARK VINA RESULT:      -4.4      6.846      7.373
REMARK  2 active torsions:
REMARK  status: ('A' for Active; 'I' for Inactive)
REMARK       I    between atoms: C_2  and  N_3 
REMARK    1  A    between atoms: C_2  and  C_12 
REMARK    2  A    between atoms: N_3  and  C_4 
ROOT
HETATM    1  O   UNL     1     -40.802 -51.502  14.819  1.00  0.00    -0.270 OA
HETATM    2  C   UNL     1     -40.171 -52.042  13.910  1.00  0.00     0.252 C 
HETATM    3  N   UNL     1     -40.704 -52.975  13.045  1.00  0.00    -0.310 N 
HETATM    4  H   UNL     1     -40.245 -53.095  12.150  1.00  0.00     0.170 HD
ENDROOT
BRANCH   3   5
HETATM    5  C   UNL     1     -42.037 -53.392  13.097  1.00  0.00     0.123 A 
HETATM    6  C   UNL     1     -42.514 -54.299  14.047  1.00  0.00     0.136 A 
HETATM    7  N   UNL     1     -43.817 -54.671  14.131  1.00  0.00    -0.371 N 
HETATM    8  C   UNL     1     -44.635 -54.079  13.238  1.00  0.00     0.104 A 
ATOM      9  HN  UNL     1     -44.151 -55.348  14.817  1.00  0.00     0.164 HD
HETATM   10  C   UNL     1     -44.165 -53.194  12.280  1.00  0.00     0.106 A 
HETATM   11  N   UNL     1     -42.855 -52.859  12.166  1.00  0.00    -0.350 N 
ATOM     12  HN  UNL     1     -42.511 -52.246  11.427  1.00  0.00     0.166 HD
ENDBRANCH   3   5
BRANCH   2  13
HETATM   13  C   UNL     1     -38.674 -51.759  13.670  1.00  0.00     0.213 C 
HETATM   14  C   UNL     1     -38.125 -50.734  14.669  1.00  0.00     0.042 C 
HETATM   15  C   UNL     1     -38.529 -49.316  14.281  1.00  0.00     0.005 C 
HETATM   16  C   UNL     1     -38.127 -49.041  12.840  1.00  0.00     0.026 C 
HETATM   17  C   UNL     1     -38.669 -50.119  11.913  1.00  0.00     0.168 C 
HETATM   18  O   UNL     1     -38.311 -51.437  12.330  1.00  0.00    -0.376 OA
ENDBRANCH   2  13
TORSDOF 2
ENDMDL
