MODEL 1
REMARK VINA RESULT:      -6.4      0.000      0.000
REMARK  4 active torsions:
REMARK  status: ('A' for Active; 'I' for Inactive)
REMARK    1  A    between atoms: N_2  and  C_4 
REMARK    2  A    between atoms: C_4  and  C_5 
REMARK    3  A    between atoms: C_5  and  N_6 
REMARK       I    between atoms: N_6  and  C_7 
REMARK       I    between atoms: C_7  and  N_9 
REMARK    4  A    between atoms: N_9  and  C_10 
ROOT
HETATM    1  N   UNL     1     -42.174 -51.205  12.156  1.00  0.00    -0.340 N 
HETATM    2  C   UNL     1     -41.798 -49.888  12.170  1.00  0.00     0.321 C 
HETATM    3  O   UNL     1     -41.586 -49.218  13.169  1.00  0.00    -0.247 OA
HETATM    4  N   UNL     1     -41.723 -49.350  10.863  1.00  0.00    -0.293 N 
HETATM    5  H   UNL     1     -42.070 -51.792  11.338  1.00  0.00     0.164 HD
HETATM    6  H   UNL     1     -41.903 -49.962  10.080  1.00  0.00     0.172 HD
ENDROOT
BRANCH   1   7
HETATM    7  C   UNL     1     -42.263 -51.888  13.431  1.00  0.00     0.155 C 
BRANCH   7   8
HETATM    8  C   UNL     1     -43.678 -52.457  13.837  1.00  0.00     0.043 C 
HETATM    9  C   UNL     1     -44.340 -51.242  14.588  1.00  0.00     0.032 C 
HETATM   10  C   UNL     1     -45.860 -51.217  14.729  1.00  0.00     0.002 C 
HETATM   11  C   UNL     1     -46.593 -51.565  13.439  1.00  0.00     0.000 C 
HETATM   12  C   UNL     1     -46.036 -52.832  12.821  1.00  0.00     0.002 C 
HETATM   13  C   UNL     1     -44.526 -52.699  12.550  1.00  0.00     0.032 C 
BRANCH   8  14
HETATM   14  N   UNL     1     -43.395 -53.733  14.576  1.00  0.00    -0.410 N 
HETATM   15  C   UNL     1     -42.181 -54.448  14.181  1.00  0.00     0.143 C 
HETATM   16  C   UNL     1     -43.519 -53.776  16.031  1.00  0.00     0.143 C 
ENDBRANCH   8  14
ENDBRANCH   7   8
ENDBRANCH   1   7
BRANCH   4  17
HETATM   17  C   UNL     1     -41.519 -47.989  10.608  1.00  0.00     0.127 A 
HETATM   18  C   UNL     1     -40.481 -47.179  11.032  1.00  0.00     0.076 A 
HETATM   19  C   UNL     1     -40.792 -45.878  10.579  1.00  0.00     0.025 A 
HETATM   20  C   UNL     1     -40.045 -44.619  10.824  1.00  0.00     0.070 C 
HETATM   21  N   UNL     1     -41.922 -45.866   9.865  1.00  0.00    -0.302 N 
HETATM   22  N   UNL     1     -42.347 -47.143   9.902  1.00  0.00    -0.281 N 
ATOM     23  HN  UNL     1     -42.361 -45.072   9.400  1.00  0.00     0.186 HD
HETATM   24  C   UNL     1     -43.600 -47.464   9.265  1.00  0.00     0.179 C 
ENDBRANCH   4  17
TORSDOF 4
ENDMDL
MODEL 2
REMARK VINA RESULT:      -6.0      1.071      2.724
REMARK  4 active torsions:
REMARK  status: ('A' for Active; 'I' for Inactive)
REMARK    1  A    between atoms: N_2  and  C_4 
REMARK    2  A    between atoms: C_4  and  C_5 
REMARK    3  A    between atoms: C_5  and  N_6 
REMARK       I    between atoms: N_6  and  C_7 
REMARK       I    between atoms: C_7  and  N_9 
REMARK    4  A    between atoms: N_9  and  C_10 
ROOT
HETATM    1  N   UNL     1     -43.199 -50.918  12.498  1.00  0.00    -0.340 N 
HETATM    2  C   UNL     1     -42.810 -49.608  12.412  1.00  0.00     0.321 C 
HETATM    3  O   UNL     1     -43.153 -48.712  13.167  1.00  0.00    -0.247 OA
HETATM    4  N   UNL     1     -41.980 -49.380  11.288  1.00  0.00    -0.293 N 
HETATM    5  H   UNL     1     -42.692 -51.667  12.045  1.00  0.00     0.164 HD
HETATM    6  H   UNL     1     -41.728 -50.168  10.709  1.00  0.00     0.172 HD
ENDROOT
BRANCH   1   7
HETATM    7  C   UNL     1     -44.032 -51.294  13.622  1.00  0.00     0.155 C 
BRANCH   7   8
HETATM    8  C   UNL     1     -43.753 -52.704  14.276  1.00  0.00     0.043 C 
HETATM    9  C   UNL     1     -42.623 -53.298  13.355  1.00  0.00     0.032 C 
HETATM   10  C   UNL     1     -41.755 -54.426  13.906  1.00  0.00     0.002 C 
HETATM   11  C   UNL     1     -41.266 -54.175  15.327  1.00  0.00     0.000 C 
HETATM   12  C   UNL     1     -42.410 -53.756  16.231  1.00  0.00     0.002 C 
HETATM   13  C   UNL     1     -43.116 -52.502  15.686  1.00  0.00     0.032 C 
BRANCH   8  14
HETATM   14  N   UNL     1     -45.092 -53.378  14.352  1.00  0.00    -0.410 N 
HETATM   15  C   UNL     1     -46.258 -52.512  14.178  1.00  0.00     0.143 C 
HETATM   16  C   UNL     1     -45.320 -54.631  13.635  1.00  0.00     0.143 C 
ENDBRANCH   8  14
ENDBRANCH   7   8
ENDBRANCH   1   7
BRANCH   4  17
HETATM   17  C   UNL     1     -41.580 -48.102  10.881  1.00  0.00     0.127 A 
HETATM   18  C   UNL     1     -40.485 -47.368  11.300  1.00  0.00     0.076 A 
HETATM   19  C   UNL     1     -40.585 -46.117  10.651  1.00  0.00     0.025 A 
HETATM   20  C   UNL     1     -39.703 -44.932  10.805  1.00  0.00     0.070 C 
HETATM   21  N   UNL     1     -41.638 -46.074   9.831  1.00  0.00    -0.302 N 
HETATM   22  N   UNL     1     -42.227 -47.274   9.990  1.00  0.00    -0.281 N 
ATOM     23  HN  UNL     1     -41.929 -45.308   9.224  1.00  0.00     0.186 HD
HETATM   24  C   UNL     1     -43.453 -47.533   9.276  1.00  0.00     0.179 C 
ENDBRANCH   4  17
TORSDOF 4
ENDMDL
MODEL 3
REMARK VINA RESULT:      -5.9      1.940      2.434
REMARK  4 active torsions:
REMARK  status: ('A' for Active; 'I' for Inactive)
REMARK    1  A    between atoms: N_2  and  C_4 
REMARK    2  A    between atoms: C_4  and  C_5 
REMARK    3  A    between atoms: C_5  and  N_6 
REMARK       I    between atoms: N_6  and  C_7 
REMARK       I    between atoms: C_7  and  N_9 
REMARK    4  A    between atoms: N_9  and  C_10 
ROOT
HETATM    1  N   UNL     1     -42.015 -51.331  12.048  1.00  0.00    -0.340 N 
HETATM    2  C   UNL     1     -41.332 -50.268  11.522  1.00  0.00     0.321 C 
HETATM    3  O   UNL     1     -40.124 -50.209  11.353  1.00  0.00    -0.247 OA
HETATM    4  N   UNL     1     -42.194 -49.184  11.229  1.00  0.00    -0.293 N 
HETATM    5  H   UNL     1     -43.010 -51.457  11.918  1.00  0.00     0.164 HD
HETATM    6  H   UNL     1     -43.185 -49.301  11.386  1.00  0.00     0.172 HD
ENDROOT
BRANCH   1   7
HETATM    7  C   UNL     1     -41.252 -52.522  12.368  1.00  0.00     0.155 C 
BRANCH   7   8
HETATM    8  C   UNL     1     -41.416 -53.101  13.828  1.00  0.00     0.043 C 
HETATM    9  C   UNL     1     -42.389 -52.067  14.507  1.00  0.00     0.032 C 
HETATM   10  C   UNL     1     -43.159 -52.503  15.751  1.00  0.00     0.002 C 
HETATM   11  C   UNL     1     -43.788 -53.885  15.619  1.00  0.00     0.000 C 
HETATM   12  C   UNL     1     -42.779 -54.897  15.112  1.00  0.00     0.002 C 
HETATM   13  C   UNL     1     -42.184 -54.457  13.761  1.00  0.00     0.032 C 
BRANCH   8  14
HETATM   14  N   UNL     1     -40.017 -53.269  14.346  1.00  0.00    -0.410 N 
HETATM   15  C   UNL     1     -39.327 -54.497  13.949  1.00  0.00     0.143 C 
HETATM   16  C   UNL     1     -39.076 -52.153  14.280  1.00  0.00     0.143 C 
ENDBRANCH   8  14
ENDBRANCH   7   8
ENDBRANCH   1   7
BRANCH   4  17
HETATM   17  C   UNL     1     -41.730 -47.923  10.837  1.00  0.00     0.127 A 
HETATM   18  C   UNL     1     -40.700 -47.177  11.381  1.00  0.00     0.076 A 
HETATM   19  C   UNL     1     -40.696 -45.951  10.679  1.00  0.00     0.025 A 
HETATM   20  C   UNL     1     -39.836 -44.763  10.914  1.00  0.00     0.070 C 
HETATM   21  N   UNL     1     -41.621 -45.936   9.715  1.00  0.00    -0.302 N 
HETATM   22  N   UNL     1     -42.236 -47.127   9.832  1.00  0.00    -0.281 N 
ATOM     23  HN  UNL     1     -41.816 -45.193   9.044  1.00  0.00     0.186 HD
HETATM   24  C   UNL     1     -43.349 -47.410   8.960  1.00  0.00     0.179 C 
ENDBRANCH   4  17
TORSDOF 4
ENDMDL
MODEL 4
REMARK VINA RESULT:      -5.8      1.258      2.088
REMARK  4 active torsions:
REMARK  status: ('A' for Active; 'I' for Inactive)
REMARK    1  A    between atoms: N_2  and  C_4 
REMARK    2  A    between atoms: C_4  and  C_5 
REMARK    3  A    between atoms: C_5  and  N_6 
REMARK       I    between atoms: N_6  and  C_7 
REMARK       I    between atoms: C_7  and  N_9 
REMARK    4  A    between atoms: N_9  and  C_10 
ROOT
HETATM    1  N   UNL     1     -40.951 -51.114  12.049  1.00  0.00    -0.340 N 
HETATM    2  C   UNL     1     -41.390 -49.817  12.029  1.00  0.00     0.321 C 
HETATM    3  O   UNL     1     -41.828 -49.198  12.986  1.00  0.00    -0.247 OA
HETATM    4  N   UNL     1     -41.329 -49.264  10.727  1.00  0.00    -0.293 N 
HETATM    5  H   UNL     1     -40.351 -51.497  11.331  1.00  0.00     0.164 HD
HETATM    6  H   UNL     1     -40.949 -49.828   9.981  1.00  0.00     0.172 HD
ENDROOT
BRANCH   1   7
HETATM    7  C   UNL     1     -40.935 -51.793  13.329  1.00  0.00     0.155 C 
BRANCH   7   8
HETATM    8  C   UNL     1     -42.107 -52.814  13.609  1.00  0.00     0.043 C 
HETATM    9  C   UNL     1     -43.015 -52.031  14.630  1.00  0.00     0.032 C 
HETATM   10  C   UNL     1     -44.469 -52.467  14.791  1.00  0.00     0.002 C 
HETATM   11  C   UNL     1     -45.176 -52.716  13.464  1.00  0.00     0.000 C 
HETATM   12  C   UNL     1     -44.344 -53.606  12.561  1.00  0.00     0.002 C 
HETATM   13  C   UNL     1     -42.953 -52.996  12.311  1.00  0.00     0.032 C 
BRANCH   8  14
HETATM   14  N   UNL     1     -41.431 -54.088  14.027  1.00  0.00    -0.410 N 
HETATM   15  C   UNL     1     -40.036 -54.240  13.615  1.00  0.00     0.143 C 
HETATM   16  C   UNL     1     -41.578 -54.576  15.396  1.00  0.00     0.143 C 
ENDBRANCH   8  14
ENDBRANCH   7   8
ENDBRANCH   1   7
BRANCH   4  17
HETATM   17  C   UNL     1     -41.869 -48.014  10.403  1.00  0.00     0.127 A 
HETATM   18  C   UNL     1     -43.080 -47.728   9.800  1.00  0.00     0.076 A 
HETATM   19  C   UNL     1     -43.106 -46.327   9.621  1.00  0.00     0.025 A 
HETATM   20  C   UNL     1     -44.149 -45.507   8.955  1.00  0.00     0.070 C 
HETATM   21  N   UNL     1     -42.012 -45.750  10.126  1.00  0.00    -0.302 N 
HETATM   22  N   UNL     1     -41.278 -46.782  10.584  1.00  0.00    -0.281 N 
ATOM     23  HN  UNL     1     -41.785 -44.756  10.157  1.00  0.00     0.186 HD
HETATM   24  C   UNL     1     -39.981 -46.500  11.147  1.00  0.00     0.179 C 
ENDBRANCH   4  17
TORSDOF 4
ENDMDL
MODEL 5
REMARK VINA RESULT:      -5.8      1.112      1.902
REMARK  4 active torsions:
REMARK  status: ('A' for Active; 'I' for Inactive)
REMARK    1  A    between atoms: N_2  and  C_4 
REMARK    2  A    between atoms: C_4  and  C_5 
REMARK    3  A    between atoms: C_5  and  N_6 
REMARK       I    between atoms: N_6  and  C_7 
REMARK       I    between atoms: C_7  and  N_9 
REMARK    4  A    between atoms: N_9  and  C_10 
ROOT
HETATM    1  N   UNL     1     -42.331 -51.233  12.002  1.00  0.00    -0.340 N 
HETATM    2  C   UNL     1     -41.580 -50.089  11.951  1.00  0.00     0.321 C 
HETATM    3  O   UNL     1     -40.652 -49.812  12.694  1.00  0.00    -0.247 OA
HETATM    4  N   UNL     1     -42.036 -49.207  10.942  1.00  0.00    -0.293 N 
HETATM    5  H   UNL     1     -42.889 -51.553  11.222  1.00  0.00     0.164 HD
HETATM    6  H   UNL     1     -42.804 -49.502  10.357  1.00  0.00     0.172 HD
ENDROOT
BRANCH   1   7
HETATM    7  C   UNL     1     -41.952 -52.237  12.976  1.00  0.00     0.155 C 
BRANCH   7   8
HETATM    8  C   UNL     1     -43.097 -52.790  13.912  1.00  0.00     0.043 C 
HETATM    9  C   UNL     1     -44.364 -52.742  12.978  1.00  0.00     0.032 C 
HETATM   10  C   UNL     1     -45.565 -53.613  13.339  1.00  0.00     0.002 C 
HETATM   11  C   UNL     1     -45.185 -55.038  13.722  1.00  0.00     0.000 C 
HETATM   12  C   UNL     1     -44.066 -55.048  14.745  1.00  0.00     0.002 C 
HETATM   13  C   UNL     1     -42.829 -54.295  14.221  1.00  0.00     0.032 C 
BRANCH   8  14
HETATM   14  N   UNL     1     -43.043 -51.940  15.148  1.00  0.00    -0.410 N 
HETATM   15  C   UNL     1     -41.709 -51.533  15.590  1.00  0.00     0.143 C 
HETATM   16  C   UNL     1     -43.958 -50.811  15.298  1.00  0.00     0.143 C 
ENDBRANCH   8  14
ENDBRANCH   7   8
ENDBRANCH   1   7
BRANCH   4  17
HETATM   17  C   UNL     1     -41.547 -47.905  10.788  1.00  0.00     0.127 A 
HETATM   18  C   UNL     1     -40.469 -47.310  11.418  1.00  0.00     0.076 A 
HETATM   19  C   UNL     1     -40.454 -45.967  10.978  1.00  0.00     0.025 A 
HETATM   20  C   UNL     1     -39.544 -44.874  11.403  1.00  0.00     0.070 C 
HETATM   21  N   UNL     1     -41.421 -45.734  10.087  1.00  0.00    -0.302 N 
HETATM   22  N   UNL     1     -42.071 -46.909   9.993  1.00  0.00    -0.281 N 
ATOM     23  HN  UNL     1     -41.621 -44.865   9.591  1.00  0.00     0.186 HD
HETATM   24  C   UNL     1     -43.232 -46.981   9.140  1.00  0.00     0.179 C 
ENDBRANCH   4  17
TORSDOF 4
ENDMDL
MODEL 6
REMARK VINA RESULT:      -5.6      1.610      2.631
REMARK  4 active torsions:
REMARK  status: ('A' for Active; 'I' for Inactive)
REMARK    1  A    between atoms: N_2  and  C_4 
REMARK    2  A    between atoms: C_4  and  C_5 
REMARK    3  A    between atoms: C_5  and  N_6 
REMARK       I    between atoms: N_6  and  C_7 
REMARK       I    between atoms: C_7  and  N_9 
REMARK    4  A    between atoms: N_9  and  C_10 
ROOT
HETATM    1  N   UNL     1     -42.715 -51.784  13.323  1.00  0.00    -0.340 N 
HETATM    2  C   UNL     1     -42.462 -50.454  13.122  1.00  0.00     0.321 C 
HETATM    3  O   UNL     1     -42.656 -49.561  13.932  1.00  0.00    -0.247 OA
HETATM    4  N   UNL     1     -41.980 -50.204  11.815  1.00  0.00    -0.293 N 
HETATM    5  H   UNL     1     -42.294 -52.510  12.759  1.00  0.00     0.164 HD
HETATM    6  H   UNL     1     -41.835 -50.989  11.197  1.00  0.00     0.172 HD
ENDROOT
BRANCH   1   7
HETATM    7  C   UNL     1     -43.189 -52.183  14.634  1.00  0.00     0.155 C 
BRANCH   7   8
HETATM    8  C   UNL     1     -44.720 -52.548  14.757  1.00  0.00     0.043 C 
HETATM    9  C   UNL     1     -44.797 -53.254  16.162  1.00  0.00     0.032 C 
HETATM   10  C   UNL     1     -46.154 -53.340  16.857  1.00  0.00     0.002 C 
HETATM   11  C   UNL     1     -46.934 -52.032  16.827  1.00  0.00     0.000 C 
HETATM   12  C   UNL     1     -46.976 -51.455  15.425  1.00  0.00     0.002 C 
HETATM   13  C   UNL     1     -45.555 -51.236  14.872  1.00  0.00     0.032 C 
BRANCH   8  14
HETATM   14  N   UNL     1     -45.045 -53.318  13.510  1.00  0.00    -0.410 N 
HETATM   15  C   UNL     1     -45.402 -54.724  13.698  1.00  0.00     0.143 C 
HETATM   16  C   UNL     1     -45.927 -52.734  12.502  1.00  0.00     0.143 C 
ENDBRANCH   8  14
ENDBRANCH   7   8
ENDBRANCH   1   7
BRANCH   4  17
HETATM   17  C   UNL     1     -41.799 -48.914  11.302  1.00  0.00     0.127 A 
HETATM   18  C   UNL     1     -42.738 -48.076  10.729  1.00  0.00     0.076 A 
HETATM   19  C   UNL     1     -42.029 -46.932  10.300  1.00  0.00     0.025 A 
HETATM   20  C   UNL     1     -42.548 -45.755   9.558  1.00  0.00     0.070 C 
HETATM   21  N   UNL     1     -40.736 -47.008  10.627  1.00  0.00    -0.302 N 
HETATM   22  N   UNL     1     -40.617 -48.210  11.221  1.00  0.00    -0.281 N 
ATOM     23  HN  UNL     1     -40.006 -46.315  10.464  1.00  0.00     0.186 HD
HETATM   24  C   UNL     1     -39.307 -48.636  11.646  1.00  0.00     0.179 C 
ENDBRANCH   4  17
TORSDOF 4
ENDMDL
MODEL 7
REMARK VINA RESULT:      -5.3      1.883      2.786
REMARK  4 active torsions:
REMARK  status: ('A' for Active; 'I' for Inactive)
REMARK    1  A    between atoms: N_2  and  C_4 
REMARK    2  A    between atoms: C_4  and  C_5 
REMARK    3  A    between atoms: C_5  and  N_6 
REMARK       I    between atoms: N_6  and  C_7 
REMARK       I    between atoms: C_7  and  N_9 
REMARK    4  A    between atoms: N_9  and  C_10 
ROOT
HETATM    1  N   UNL     1     -44.390 -50.724  14.039  1.00  0.00    -0.340 N 
HETATM    2  C   UNL     1     -43.320 -49.927  13.731  1.00  0.00     0.321 C 
HETATM    3  O   UNL     1     -42.485 -49.518  14.523  1.00  0.00    -0.247 OA
HETATM    4  N   UNL     1     -43.308 -49.571  12.361  1.00  0.00    -0.293 N 
HETATM    5  H   UNL     1     -44.887 -51.262  13.340  1.00  0.00     0.164 HD
HETATM    6  H   UNL     1     -44.025 -49.950  11.759  1.00  0.00     0.172 HD
ENDROOT
BRANCH   1   7
HETATM    7  C   UNL     1     -44.507 -51.185  15.408  1.00  0.00     0.155 C 
BRANCH   7   8
HETATM    8  C   UNL     1     -44.676 -52.740  15.624  1.00  0.00     0.043 C 
HETATM    9  C   UNL     1     -46.113 -53.018  15.044  1.00  0.00     0.032 C 
HETATM   10  C   UNL     1     -46.468 -54.447  14.640  1.00  0.00     0.002 C 
HETATM   11  C   UNL     1     -45.377 -55.137  13.830  1.00  0.00     0.000 C 
HETATM   12  C   UNL     1     -44.024 -54.985  14.499  1.00  0.00     0.002 C 
HETATM   13  C   UNL     1     -43.671 -53.501  14.706  1.00  0.00     0.032 C 
BRANCH   8  14
HETATM   14  N   UNL     1     -44.397 -52.970  17.081  1.00  0.00    -0.410 N 
HETATM   15  C   UNL     1     -45.314 -53.873  17.777  1.00  0.00     0.143 C 
HETATM   16  C   UNL     1     -43.033 -53.241  17.528  1.00  0.00     0.143 C 
ENDBRANCH   8  14
ENDBRANCH   7   8
ENDBRANCH   1   7
BRANCH   4  17
HETATM   17  C   UNL     1     -42.418 -48.635  11.823  1.00  0.00     0.127 A 
HETATM   18  C   UNL     1     -42.615 -47.283  11.609  1.00  0.00     0.076 A 
HETATM   19  C   UNL     1     -41.445 -46.815  10.970  1.00  0.00     0.025 A 
HETATM   20  C   UNL     1     -41.165 -45.451  10.455  1.00  0.00     0.070 C 
HETATM   21  N   UNL     1     -40.540 -47.788  10.836  1.00  0.00    -0.302 N 
HETATM   22  N   UNL     1     -41.147 -48.875  11.348  1.00  0.00    -0.281 N 
ATOM     23  HN  UNL     1     -39.603 -47.722  10.437  1.00  0.00     0.186 HD
HETATM   24  C   UNL     1     -40.447 -50.134  11.299  1.00  0.00     0.179 C 
ENDBRANCH   4  17
TORSDOF 4
ENDMDL
MODEL 8
REMARK VINA RESULT:      -5.3      2.101      3.789
REMARK  4 active torsions:
REMARK  status: ('A' for Active; 'I' for Inactive)
REMARK    1  A    between atoms: N_2  and  C_4 
REMARK    2  A    between atoms: C_4  and  C_5 
REMARK    3  A    between atoms: C_5  and  N_6 
REMARK       I    between atoms: N_6  and  C_7 
REMARK       I    between atoms: C_7  and  N_9 
REMARK    4  A    between atoms: N_9  and  C_10 
ROOT
HETATM    1  N   UNL     1     -44.034 -51.585  13.415  1.00  0.00    -0.340 N 
HETATM    2  C   UNL     1     -42.767 -51.066  13.395  1.00  0.00     0.321 C 
HETATM    3  O   UNL     1     -42.161 -50.629  14.361  1.00  0.00    -0.247 OA
HETATM    4  N   UNL     1     -42.231 -51.040  12.085  1.00  0.00    -0.293 N 
HETATM    5  H   UNL     1     -44.389 -52.180  12.677  1.00  0.00     0.164 HD
HETATM    6  H   UNL     1     -42.782 -51.425  11.332  1.00  0.00     0.172 HD
ENDROOT
BRANCH   1   7
HETATM    7  C   UNL     1     -44.691 -51.695  14.702  1.00  0.00     0.155 C 
BRANCH   7   8
HETATM    8  C   UNL     1     -44.699 -53.121  15.378  1.00  0.00     0.043 C 
HETATM    9  C   UNL     1     -43.774 -53.965  14.424  1.00  0.00     0.032 C 
HETATM   10  C   UNL     1     -43.153 -55.250  14.965  1.00  0.00     0.002 C 
HETATM   11  C   UNL     1     -42.553 -55.093  16.357  1.00  0.00     0.000 C 
HETATM   12  C   UNL     1     -43.530 -54.417  17.299  1.00  0.00     0.002 C 
HETATM   13  C   UNL     1     -43.967 -53.044  16.753  1.00  0.00     0.032 C 
BRANCH   8  14
HETATM   14  N   UNL     1     -46.149 -53.479  15.529  1.00  0.00    -0.410 N 
HETATM   15  C   UNL     1     -47.093 -52.362  15.504  1.00  0.00     0.143 C 
HETATM   16  C   UNL     1     -46.709 -54.592  14.766  1.00  0.00     0.143 C 
ENDBRANCH   8  14
ENDBRANCH   7   8
ENDBRANCH   1   7
BRANCH   4  17
HETATM   17  C   UNL     1     -41.022 -50.411  11.768  1.00  0.00     0.127 A 
HETATM   18  C   UNL     1     -39.733 -50.853  12.004  1.00  0.00     0.076 A 
HETATM   19  C   UNL     1     -38.879 -49.814  11.571  1.00  0.00     0.025 A 
HETATM   20  C   UNL     1     -37.399 -49.744  11.664  1.00  0.00     0.070 C 
HETATM   21  N   UNL     1     -39.572 -48.801  11.043  1.00  0.00    -0.302 N 
HETATM   22  N   UNL     1     -40.858 -49.176  11.178  1.00  0.00    -0.281 N 
ATOM     23  HN  UNL     1     -39.210 -47.941  10.632  1.00  0.00     0.186 HD
HETATM   24  C   UNL     1     -41.885 -48.258  10.753  1.00  0.00     0.179 C 
ENDBRANCH   4  17
TORSDOF 4
ENDMDL
MODEL 9
REMARK VINA RESULT:      -5.3      1.878      2.378
REMARK  4 active torsions:
REMARK  status: ('A' for Active; 'I' for Inactive)
REMARK    1  A    between atoms: N_2  and  C_4 
REMARK    2  A    between atoms: C_4  and  C_5 
REMARK    3  A    between atoms: C_5  and  N_6 
REMARK       I    between atoms: N_6  and  C_7 
REMARK       I    between atoms: C_7  and  N_9 
REMARK    4  A    between atoms: N_9  and  C_10 
ROOT
HETATM    1  N   UNL     1     -41.943 -51.337  14.186  1.00  0.00    -0.340 N 
HETATM    2  C   UNL     1     -41.722 -49.990  14.076  1.00  0.00     0.321 C 
HETATM    3  O   UNL     1     -42.293 -49.119  14.713  1.00  0.00    -0.247 OA
HETATM    4  N   UNL     1     -40.764 -49.697  13.076  1.00  0.00    -0.293 N 
HETATM    5  H   UNL     1     -41.278 -52.026  13.862  1.00  0.00     0.164 HD
HETATM    6  H   UNL     1     -40.323 -50.466  12.591  1.00  0.00     0.172 HD
ENDROOT
BRANCH   1   7
HETATM    7  C   UNL     1     -42.885 -51.778  15.196  1.00  0.00     0.155 C 
BRANCH   7   8
HETATM    8  C   UNL     1     -44.221 -52.443  14.682  1.00  0.00     0.043 C 
HETATM    9  C   UNL     1     -45.311 -51.370  15.052  1.00  0.00     0.032 C 
HETATM   10  C   UNL     1     -46.651 -51.413  14.321  1.00  0.00     0.002 C 
HETATM   11  C   UNL     1     -46.512 -51.596  12.815  1.00  0.00     0.000 C 
HETATM   12  C   UNL     1     -45.576 -52.744  12.489  1.00  0.00     0.002 C 
HETATM   13  C   UNL     1     -44.190 -52.526  13.124  1.00  0.00     0.032 C 
BRANCH   8  14
HETATM   14  N   UNL     1     -44.257 -53.802  15.319  1.00  0.00    -0.410 N 
HETATM   15  C   UNL     1     -43.313 -54.786  14.789  1.00  0.00     0.143 C 
HETATM   16  C   UNL     1     -44.304 -53.924  16.775  1.00  0.00     0.143 C 
ENDBRANCH   8  14
ENDBRANCH   7   8
ENDBRANCH   1   7
BRANCH   4  17
HETATM   17  C   UNL     1     -40.477 -48.395  12.652  1.00  0.00     0.127 A 
HETATM   18  C   UNL     1     -40.905 -47.748  11.506  1.00  0.00     0.076 A 
HETATM   19  C   UNL     1     -40.266 -46.488  11.509  1.00  0.00     0.025 A 
HETATM   20  C   UNL     1     -40.323 -45.429  10.470  1.00  0.00     0.070 C 
HETATM   21  N   UNL     1     -39.526 -46.318  12.608  1.00  0.00    -0.302 N 
HETATM   22  N   UNL     1     -39.660 -47.478  13.277  1.00  0.00    -0.281 N 
ATOM     23  HN  UNL     1     -38.984 -45.497  12.879  1.00  0.00     0.186 HD
HETATM   24  C   UNL     1     -38.923 -47.647  14.505  1.00  0.00     0.179 C 
ENDBRANCH   4  17
TORSDOF 4
ENDMDL
