MODEL 1
REMARK VINA RESULT:      -6.2      0.000      0.000
REMARK  5 active torsions:
REMARK  status: ('A' for Active; 'I' for Inactive)
REMARK    1  A    between atoms: C_2  and  N_5 
REMARK    2  A    between atoms: N_9  and  C_10 
REMARK    3  A    between atoms: C_10  and  C_11 
REMARK       I    between atoms: C_11  and  N_13 
REMARK    4  A    between atoms: N_13  and  C_14 
REMARK    5  A    between atoms: C_14  and  C_18 
ROOT
HETATM    1  C   UNL     1     -44.404 -47.202   9.296  1.00  0.00     0.122 C 
HETATM    2  C   UNL     1     -44.617 -45.692   9.106  1.00  0.00     0.055 C 
HETATM    3  C   UNL     1     -43.768 -47.811   8.090  1.00  0.00     0.091 C 
HETATM    4  N   UNL     1     -43.294 -48.303   7.150  1.00  0.00    -0.195 NA
ENDROOT
BRANCH   1   5
HETATM    5  N   UNL     1     -43.616 -47.464  10.513  1.00  0.00    -0.338 N 
HETATM    6  C   UNL     1     -42.353 -46.937  10.692  1.00  0.00     0.237 C 
HETATM    7  O   UNL     1     -41.804 -46.222   9.855  1.00  0.00    -0.272 OA
HETATM    8  H   UNL     1     -43.968 -48.128  11.196  1.00  0.00     0.164 HD
BRANCH   6   9
HETATM    9  C   UNL     1     -41.617 -47.353  11.958  1.00  0.00     0.237 C 
BRANCH   9  10
HETATM   10  N   UNL     1     -41.391 -48.776  11.968  1.00  0.00    -0.284 N 
HETATM   11  C   UNL     1     -40.608 -49.498  11.150  1.00  0.00     0.205 A 
HETATM   12  N   UNL     1     -40.638 -50.774  11.353  1.00  0.00    -0.289 N 
HETATM   13  N   UNL     1     -41.521 -50.926  12.409  1.00  0.00    -0.233 N 
ATOM     14  HN  UNL     1     -40.128 -51.502  10.852  1.00  0.00     0.188 HD
HETATM   15  C   UNL     1     -41.984 -49.669  12.814  1.00  0.00     0.345 A 
HETATM   16  O   UNL     1     -42.725 -49.381  13.741  1.00  0.00    -0.245 OA
BRANCH  13  17
HETATM   17  C   UNL     1     -41.873 -52.235  12.977  1.00  0.00     0.048 C 
HETATM   18  C   UNL     1     -43.320 -52.630  12.623  1.00  0.00     0.040 C 
HETATM   19  C   UNL     1     -41.750 -52.184  14.510  1.00  0.00     0.040 C 
HETATM   20  C   UNL     1     -40.930 -53.313  12.420  1.00  0.00     0.040 C 
ENDBRANCH  13  17
ENDBRANCH   9  10
ENDBRANCH   6   9
ENDBRANCH   1   5
BRANCH   1  21
HETATM   21  C   UNL     1     -45.724 -47.976   9.410  1.00  0.00     0.028 A 
HETATM   22  C   UNL     1     -46.497 -48.468   8.196  1.00  0.00     0.009 A 
HETATM   23  C   UNL     1     -47.074 -47.378   9.051  1.00  0.00     0.009 A 
ENDBRANCH   1  21
TORSDOF 5
ENDMDL
MODEL 2
REMARK VINA RESULT:      -6.1      4.621      6.495
REMARK  5 active torsions:
REMARK  status: ('A' for Active; 'I' for Inactive)
REMARK    1  A    between atoms: C_2  and  N_5 
REMARK    2  A    between atoms: N_9  and  C_10 
REMARK    3  A    between atoms: C_10  and  C_11 
REMARK       I    between atoms: C_11  and  N_13 
REMARK    4  A    between atoms: N_13  and  C_14 
REMARK    5  A    between atoms: C_14  and  C_18 
ROOT
HETATM    1  C   UNL     1     -45.315 -52.723  14.519  1.00  0.00     0.122 C 
HETATM    2  C   UNL     1     -45.860 -51.828  13.395  1.00  0.00     0.055 C 
HETATM    3  C   UNL     1     -46.107 -53.984  14.633  1.00  0.00     0.091 C 
HETATM    4  N   UNL     1     -46.727 -54.959  14.749  1.00  0.00    -0.195 NA
ENDROOT
BRANCH   1   5
HETATM    5  N   UNL     1     -43.884 -53.001  14.310  1.00  0.00    -0.338 N 
HETATM    6  C   UNL     1     -43.433 -53.744  13.238  1.00  0.00     0.237 C 
HETATM    7  O   UNL     1     -44.189 -54.223  12.394  1.00  0.00    -0.272 OA
HETATM    8  H   UNL     1     -43.217 -52.722  15.024  1.00  0.00     0.164 HD
BRANCH   6   9
HETATM    9  C   UNL     1     -41.937 -54.024  13.187  1.00  0.00     0.237 C 
BRANCH   9  10
HETATM   10  N   UNL     1     -41.218 -52.853  12.751  1.00  0.00    -0.284 N 
HETATM   11  C   UNL     1     -41.430 -52.110  11.653  1.00  0.00     0.205 A 
HETATM   12  N   UNL     1     -40.591 -51.141  11.481  1.00  0.00    -0.289 N 
HETATM   13  N   UNL     1     -39.736 -51.240  12.565  1.00  0.00    -0.233 N 
ATOM     14  HN  UNL     1     -40.565 -50.461  10.721  1.00  0.00     0.188 HD
HETATM   15  C   UNL     1     -40.138 -52.304  13.380  1.00  0.00     0.345 A 
HETATM   16  O   UNL     1     -39.678 -52.674  14.450  1.00  0.00    -0.245 OA
BRANCH  13  17
HETATM   17  C   UNL     1     -38.601 -50.330  12.776  1.00  0.00     0.048 C 
HETATM   18  C   UNL     1     -38.675 -49.652  14.158  1.00  0.00     0.040 C 
HETATM   19  C   UNL     1     -38.612 -49.230  11.700  1.00  0.00     0.040 C 
HETATM   20  C   UNL     1     -37.284 -51.117  12.695  1.00  0.00     0.040 C 
ENDBRANCH  13  17
ENDBRANCH   9  10
ENDBRANCH   6   9
ENDBRANCH   1   5
BRANCH   1  21
HETATM   21  C   UNL     1     -45.478 -52.093  15.908  1.00  0.00     0.028 A 
HETATM   22  C   UNL     1     -46.640 -51.180  16.266  1.00  0.00     0.009 A 
HETATM   23  C   UNL     1     -45.252 -50.616  16.186  1.00  0.00     0.009 A 
ENDBRANCH   1  21
TORSDOF 5
ENDMDL
MODEL 3
REMARK VINA RESULT:      -6.1      2.086      3.204
REMARK  5 active torsions:
REMARK  status: ('A' for Active; 'I' for Inactive)
REMARK    1  A    between atoms: C_2  and  N_5 
REMARK    2  A    between atoms: N_9  and  C_10 
REMARK    3  A    between atoms: C_10  and  C_11 
REMARK       I    between atoms: C_11  and  N_13 
REMARK    4  A    between atoms: N_13  and  C_14 
REMARK    5  A    between atoms: C_14  and  C_18 
ROOT
HETATM    1  C   UNL     1     -42.435 -46.988  10.230  1.00  0.00     0.122 C 
HETATM    2  C   UNL     1     -43.337 -46.945  11.474  1.00  0.00     0.055 C 
HETATM    3  C   UNL     1     -41.499 -45.824  10.206  1.00  0.00     0.091 C 
HETATM    4  N   UNL     1     -40.779 -44.913  10.162  1.00  0.00    -0.195 NA
ENDROOT
BRANCH   1   5
HETATM    5  N   UNL     1     -41.709 -48.267  10.162  1.00  0.00    -0.338 N 
HETATM    6  C   UNL     1     -40.925 -48.719  11.205  1.00  0.00     0.237 C 
HETATM    7  O   UNL     1     -40.779 -48.088  12.250  1.00  0.00    -0.272 OA
HETATM    8  H   UNL     1     -41.705 -48.787   9.289  1.00  0.00     0.164 HD
BRANCH   6   9
HETATM    9  C   UNL     1     -40.166 -50.018  10.971  1.00  0.00     0.237 C 
BRANCH   9  10
HETATM   10  N   UNL     1     -40.594 -51.030  11.903  1.00  0.00    -0.284 N 
HETATM   11  C   UNL     1     -41.843 -51.459  12.145  1.00  0.00     0.205 A 
HETATM   12  N   UNL     1     -41.942 -52.345  13.082  1.00  0.00    -0.289 N 
HETATM   13  N   UNL     1     -40.638 -52.532  13.507  1.00  0.00    -0.233 N 
ATOM     14  HN  UNL     1     -42.787 -52.802  13.428  1.00  0.00     0.188 HD
HETATM   15  C   UNL     1     -39.781 -51.721  12.755  1.00  0.00     0.345 A 
HETATM   16  O   UNL     1     -38.563 -51.644  12.789  1.00  0.00    -0.245 OA
BRANCH  13  17
HETATM   17  C   UNL     1     -40.273 -53.461  14.586  1.00  0.00     0.048 C 
HETATM   18  C   UNL     1     -39.275 -54.528  14.094  1.00  0.00     0.040 C 
HETATM   19  C   UNL     1     -41.532 -54.181  15.098  1.00  0.00     0.040 C 
HETATM   20  C   UNL     1     -39.618 -52.685  15.739  1.00  0.00     0.040 C 
ENDBRANCH  13  17
ENDBRANCH   9  10
ENDBRANCH   6   9
ENDBRANCH   1   5
BRANCH   1  21
HETATM   21  C   UNL     1     -43.220 -46.817   8.923  1.00  0.00     0.028 A 
HETATM   22  C   UNL     1     -44.537 -47.529   8.656  1.00  0.00     0.009 A 
HETATM   23  C   UNL     1     -43.319 -47.902   7.863  1.00  0.00     0.009 A 
ENDBRANCH   1  21
TORSDOF 5
ENDMDL
MODEL 4
REMARK VINA RESULT:      -6.1      4.631      6.746
REMARK  5 active torsions:
REMARK  status: ('A' for Active; 'I' for Inactive)
REMARK    1  A    between atoms: C_2  and  N_5 
REMARK    2  A    between atoms: N_9  and  C_10 
REMARK    3  A    between atoms: C_10  and  C_11 
REMARK       I    between atoms: C_11  and  N_13 
REMARK    4  A    between atoms: N_13  and  C_14 
REMARK    5  A    between atoms: C_14  and  C_18 
ROOT
HETATM    1  C   UNL     1     -45.195 -53.518  15.025  1.00  0.00     0.122 C 
HETATM    2  C   UNL     1     -46.071 -54.530  14.271  1.00  0.00     0.055 C 
HETATM    3  C   UNL     1     -45.412 -53.614  16.500  1.00  0.00     0.091 C 
HETATM    4  N   UNL     1     -45.586 -53.662  17.648  1.00  0.00    -0.195 NA
ENDROOT
BRANCH   1   5
HETATM    5  N   UNL     1     -43.776 -53.700  14.674  1.00  0.00    -0.338 N 
HETATM    6  C   UNL     1     -43.370 -53.948  13.378  1.00  0.00     0.237 C 
HETATM    7  O   UNL     1     -44.158 -54.035  12.439  1.00  0.00    -0.272 OA
HETATM    8  H   UNL     1     -43.085 -53.741  15.418  1.00  0.00     0.164 HD
BRANCH   6   9
HETATM    9  C   UNL     1     -41.883 -54.197  13.169  1.00  0.00     0.237 C 
BRANCH   9  10
HETATM   10  N   UNL     1     -41.219 -52.984  12.759  1.00  0.00    -0.284 N 
HETATM   11  C   UNL     1     -41.454 -52.238  11.668  1.00  0.00     0.205 A 
HETATM   12  N   UNL     1     -40.665 -51.224  11.522  1.00  0.00    -0.289 N 
HETATM   13  N   UNL     1     -39.822 -51.293  12.618  1.00  0.00    -0.233 N 
ATOM     14  HN  UNL     1     -40.663 -50.533  10.772  1.00  0.00     0.188 HD
HETATM   15  C   UNL     1     -40.179 -52.388  13.413  1.00  0.00     0.345 A 
HETATM   16  O   UNL     1     -39.717 -52.748  14.484  1.00  0.00    -0.245 OA
BRANCH  13  17
HETATM   17  C   UNL     1     -38.740 -50.328  12.859  1.00  0.00     0.048 C 
HETATM   18  C   UNL     1     -38.904 -49.629  14.222  1.00  0.00     0.040 C 
HETATM   19  C   UNL     1     -38.754 -49.250  11.761  1.00  0.00     0.040 C 
HETATM   20  C   UNL     1     -37.386 -51.055  12.850  1.00  0.00     0.040 C 
ENDBRANCH  13  17
ENDBRANCH   9  10
ENDBRANCH   6   9
ENDBRANCH   1   5
BRANCH   1  21
HETATM   21  C   UNL     1     -45.576 -52.063  14.721  1.00  0.00     0.028 A 
HETATM   22  C   UNL     1     -46.971 -51.510  14.967  1.00  0.00     0.009 A 
HETATM   23  C   UNL     1     -46.471 -51.662  13.560  1.00  0.00     0.009 A 
ENDBRANCH   1  21
TORSDOF 5
ENDMDL
MODEL 5
REMARK VINA RESULT:      -6.0      3.599      6.781
REMARK  5 active torsions:
REMARK  status: ('A' for Active; 'I' for Inactive)
REMARK    1  A    between atoms: C_2  and  N_5 
REMARK    2  A    between atoms: N_9  and  C_10 
REMARK    3  A    between atoms: C_10  and  C_11 
REMARK       I    between atoms: C_11  and  N_13 
REMARK    4  A    between atoms: N_13  and  C_14 
REMARK    5  A    between atoms: C_14  and  C_18 
ROOT
HETATM    1  C   UNL     1     -45.285 -54.001  14.492  1.00  0.00     0.122 C 
HETATM    2  C   UNL     1     -45.647 -55.297  13.749  1.00  0.00     0.055 C 
HETATM    3  C   UNL     1     -45.602 -54.110  15.947  1.00  0.00     0.091 C 
HETATM    4  N   UNL     1     -45.863 -54.172  17.078  1.00  0.00    -0.195 NA
ENDROOT
BRANCH   1   5
HETATM    5  N   UNL     1     -43.871 -53.656  14.270  1.00  0.00    -0.338 N 
HETATM    6  C   UNL     1     -42.845 -54.499  14.650  1.00  0.00     0.237 C 
HETATM    7  O   UNL     1     -43.042 -55.583  15.195  1.00  0.00    -0.272 OA
HETATM    8  H   UNL     1     -43.637 -52.732  13.919  1.00  0.00     0.164 HD
BRANCH   6   9
HETATM    9  C   UNL     1     -41.429 -53.983  14.436  1.00  0.00     0.237 C 
BRANCH   9  10
HETATM   10  N   UNL     1     -41.424 -52.890  13.497  1.00  0.00    -0.284 N 
HETATM   11  C   UNL     1     -41.132 -52.923  12.186  1.00  0.00     0.205 A 
HETATM   12  N   UNL     1     -41.155 -51.774  11.594  1.00  0.00    -0.289 N 
HETATM   13  N   UNL     1     -41.497 -50.885  12.599  1.00  0.00    -0.233 N 
ATOM     14  HN  UNL     1     -40.965 -51.569  10.613  1.00  0.00     0.188 HD
HETATM   15  C   UNL     1     -41.688 -51.584  13.796  1.00  0.00     0.345 A 
HETATM   16  O   UNL     1     -42.050 -51.167  14.885  1.00  0.00    -0.245 OA
BRANCH  13  17
HETATM   17  C   UNL     1     -41.630 -49.438  12.377  1.00  0.00     0.048 C 
HETATM   18  C   UNL     1     -43.093 -48.979  12.528  1.00  0.00     0.040 C 
HETATM   19  C   UNL     1     -41.161 -49.087  10.954  1.00  0.00     0.040 C 
HETATM   20  C   UNL     1     -40.777 -48.675  13.403  1.00  0.00     0.040 C 
ENDBRANCH  13  17
ENDBRANCH   9  10
ENDBRANCH   6   9
ENDBRANCH   1   5
BRANCH   1  21
HETATM   21  C   UNL     1     -46.140 -52.807  14.048  1.00  0.00     0.028 A 
HETATM   22  C   UNL     1     -45.609 -51.706  13.143  1.00  0.00     0.009 A 
HETATM   23  C   UNL     1     -45.937 -51.396  14.574  1.00  0.00     0.009 A 
ENDBRANCH   1  21
TORSDOF 5
ENDMDL
MODEL 6
REMARK VINA RESULT:      -5.9      2.831      6.211
REMARK  5 active torsions:
REMARK  status: ('A' for Active; 'I' for Inactive)
REMARK    1  A    between atoms: C_2  and  N_5 
REMARK    2  A    between atoms: N_9  and  C_10 
REMARK    3  A    between atoms: C_10  and  C_11 
REMARK       I    between atoms: C_11  and  N_13 
REMARK    4  A    between atoms: N_13  and  C_14 
REMARK    5  A    between atoms: C_14  and  C_18 
ROOT
HETATM    1  C   UNL     1     -45.610 -52.833  13.983  1.00  0.00     0.122 C 
HETATM    2  C   UNL     1     -46.407 -52.283  12.789  1.00  0.00     0.055 C 
HETATM    3  C   UNL     1     -45.551 -54.324  13.947  1.00  0.00     0.091 C 
HETATM    4  N   UNL     1     -45.514 -55.486  13.945  1.00  0.00    -0.195 NA
ENDROOT
BRANCH   1   5
HETATM    5  N   UNL     1     -44.263 -52.238  14.023  1.00  0.00    -0.338 N 
HETATM    6  C   UNL     1     -43.335 -52.465  13.026  1.00  0.00     0.237 C 
HETATM    7  O   UNL     1     -43.567 -53.174  12.048  1.00  0.00    -0.272 OA
HETATM    8  H   UNL     1     -43.973 -51.727  14.851  1.00  0.00     0.164 HD
BRANCH   6   9
HETATM    9  C   UNL     1     -41.955 -51.857  13.233  1.00  0.00     0.237 C 
BRANCH   9  10
HETATM   10  N   UNL     1     -41.787 -50.689  12.404  1.00  0.00    -0.284 N 
HETATM   11  C   UNL     1     -40.871 -50.476  11.446  1.00  0.00     0.205 A 
HETATM   12  N   UNL     1     -40.919 -49.306  10.896  1.00  0.00    -0.289 N 
HETATM   13  N   UNL     1     -41.969 -48.675  11.542  1.00  0.00    -0.233 N 
ATOM     14  HN  UNL     1     -40.323 -48.934  10.157  1.00  0.00     0.188 HD
HETATM   15  C   UNL     1     -42.533 -49.548  12.479  1.00  0.00     0.345 A 
HETATM   16  O   UNL     1     -43.505 -49.384  13.200  1.00  0.00    -0.245 OA
BRANCH  13  17
HETATM   17  C   UNL     1     -42.383 -47.298  11.239  1.00  0.00     0.048 C 
HETATM   18  C   UNL     1     -41.281 -46.534  10.479  1.00  0.00     0.040 C 
HETATM   19  C   UNL     1     -42.673 -46.544  12.550  1.00  0.00     0.040 C 
HETATM   20  C   UNL     1     -43.648 -47.317  10.365  1.00  0.00     0.040 C 
ENDBRANCH  13  17
ENDBRANCH   9  10
ENDBRANCH   6   9
ENDBRANCH   1   5
BRANCH   1  21
HETATM   21  C   UNL     1     -46.292 -52.553  15.328  1.00  0.00     0.028 A 
HETATM   22  C   UNL     1     -47.209 -51.361  15.554  1.00  0.00     0.009 A 
HETATM   23  C   UNL     1     -45.881 -51.418  16.251  1.00  0.00     0.009 A 
ENDBRANCH   1  21
TORSDOF 5
ENDMDL
MODEL 7
REMARK VINA RESULT:      -5.8      4.542      6.531
REMARK  5 active torsions:
REMARK  status: ('A' for Active; 'I' for Inactive)
REMARK    1  A    between atoms: C_2  and  N_5 
REMARK    2  A    between atoms: N_9  and  C_10 
REMARK    3  A    between atoms: C_10  and  C_11 
REMARK       I    between atoms: C_11  and  N_13 
REMARK    4  A    between atoms: N_13  and  C_14 
REMARK    5  A    between atoms: C_14  and  C_18 
ROOT
HETATM    1  C   UNL     1     -44.581 -53.005  14.336  1.00  0.00     0.122 C 
HETATM    2  C   UNL     1     -45.500 -54.235  14.271  1.00  0.00     0.055 C 
HETATM    3  C   UNL     1     -44.200 -52.694  15.746  1.00  0.00     0.091 C 
HETATM    4  N   UNL     1     -43.912 -52.425  16.839  1.00  0.00    -0.195 NA
ENDROOT
BRANCH   1   5
HETATM    5  N   UNL     1     -43.394 -53.202  13.486  1.00  0.00    -0.338 N 
HETATM    6  C   UNL     1     -42.427 -54.140  13.786  1.00  0.00     0.237 C 
HETATM    7  O   UNL     1     -42.490 -54.867  14.776  1.00  0.00    -0.272 OA
HETATM    8  H   UNL     1     -43.231 -52.565  12.711  1.00  0.00     0.164 HD
BRANCH   6   9
HETATM    9  C   UNL     1     -41.214 -54.183  12.868  1.00  0.00     0.237 C 
BRANCH   9  10
HETATM   10  N   UNL     1     -40.294 -53.122  13.196  1.00  0.00    -0.284 N 
HETATM   11  C   UNL     1     -39.299 -53.136  14.097  1.00  0.00     0.205 A 
HETATM   12  N   UNL     1     -38.663 -52.017  14.224  1.00  0.00    -0.289 N 
HETATM   13  N   UNL     1     -39.287 -51.172  13.321  1.00  0.00    -0.233 N 
ATOM     14  HN  UNL     1     -37.882 -51.805  14.845  1.00  0.00     0.188 HD
HETATM   15  C   UNL     1     -40.302 -51.868  12.656  1.00  0.00     0.345 A 
HETATM   16  O   UNL     1     -41.035 -51.491  11.754  1.00  0.00    -0.245 OA
BRANCH  13  17
HETATM   17  C   UNL     1     -38.891 -49.769  13.132  1.00  0.00     0.048 C 
HETATM   18  C   UNL     1     -40.090 -48.818  13.315  1.00  0.00     0.040 C 
HETATM   19  C   UNL     1     -38.338 -49.575  11.709  1.00  0.00     0.040 C 
HETATM   20  C   UNL     1     -37.814 -49.391  14.160  1.00  0.00     0.040 C 
ENDBRANCH  13  17
ENDBRANCH   9  10
ENDBRANCH   6   9
ENDBRANCH   1   5
BRANCH   1  21
HETATM   21  C   UNL     1     -45.282 -51.719  13.883  1.00  0.00     0.028 A 
HETATM   22  C   UNL     1     -46.705 -51.370  14.289  1.00  0.00     0.009 A 
HETATM   23  C   UNL     1     -46.403 -51.697  12.857  1.00  0.00     0.009 A 
ENDBRANCH   1  21
TORSDOF 5
ENDMDL
MODEL 8
REMARK VINA RESULT:      -5.7      4.533      6.401
REMARK  5 active torsions:
REMARK  status: ('A' for Active; 'I' for Inactive)
REMARK    1  A    between atoms: C_2  and  N_5 
REMARK    2  A    between atoms: N_9  and  C_10 
REMARK    3  A    between atoms: C_10  and  C_11 
REMARK       I    between atoms: C_11  and  N_13 
REMARK    4  A    between atoms: N_13  and  C_14 
REMARK    5  A    between atoms: C_14  and  C_18 
ROOT
HETATM    1  C   UNL     1     -44.878 -53.146  13.323  1.00  0.00     0.122 C 
HETATM    2  C   UNL     1     -45.767 -52.456  12.277  1.00  0.00     0.055 C 
HETATM    3  C   UNL     1     -45.529 -54.382  13.850  1.00  0.00     0.091 C 
HETATM    4  N   UNL     1     -46.033 -55.335  14.286  1.00  0.00    -0.195 NA
ENDROOT
BRANCH   1   5
HETATM    5  N   UNL     1     -43.547 -53.434  12.760  1.00  0.00    -0.338 N 
HETATM    6  C   UNL     1     -42.547 -54.017  13.512  1.00  0.00     0.237 C 
HETATM    7  O   UNL     1     -42.696 -54.329  14.692  1.00  0.00    -0.272 OA
HETATM    8  H   UNL     1     -43.326 -53.108  11.824  1.00  0.00     0.164 HD
BRANCH   6   9
HETATM    9  C   UNL     1     -41.195 -54.184  12.831  1.00  0.00     0.237 C 
BRANCH   9  10
HETATM   10  N   UNL     1     -40.311 -53.103  13.189  1.00  0.00    -0.284 N 
HETATM   11  C   UNL     1     -39.341 -53.097  14.118  1.00  0.00     0.205 A 
HETATM   12  N   UNL     1     -38.737 -51.964  14.267  1.00  0.00    -0.289 N 
HETATM   13  N   UNL     1     -39.355 -51.130  13.350  1.00  0.00    -0.233 N 
ATOM     14  HN  UNL     1     -37.979 -51.736  14.910  1.00  0.00     0.188 HD
HETATM   15  C   UNL     1     -40.334 -51.847  12.654  1.00  0.00     0.345 A 
HETATM   16  O   UNL     1     -41.050 -51.483  11.734  1.00  0.00    -0.245 OA
BRANCH  13  17
HETATM   17  C   UNL     1     -38.989 -49.718  13.178  1.00  0.00     0.048 C 
HETATM   18  C   UNL     1     -38.439 -49.448  11.763  1.00  0.00     0.040 C 
HETATM   19  C   UNL     1     -37.899 -49.337  14.196  1.00  0.00     0.040 C 
HETATM   20  C   UNL     1     -40.226 -48.831  13.391  1.00  0.00     0.040 C 
ENDBRANCH  13  17
ENDBRANCH   9  10
ENDBRANCH   6   9
ENDBRANCH   1   5
BRANCH   1  21
HETATM   21  C   UNL     1     -44.685 -52.300  14.587  1.00  0.00     0.028 A 
HETATM   22  C   UNL     1     -45.685 -51.244  15.031  1.00  0.00     0.009 A 
HETATM   23  C   UNL     1     -44.326 -50.823  14.555  1.00  0.00     0.009 A 
ENDBRANCH   1  21
TORSDOF 5
ENDMDL
MODEL 9
REMARK VINA RESULT:      -5.6      2.854      3.926
REMARK  5 active torsions:
REMARK  status: ('A' for Active; 'I' for Inactive)
REMARK    1  A    between atoms: C_2  and  N_5 
REMARK    2  A    between atoms: N_9  and  C_10 
REMARK    3  A    between atoms: C_10  and  C_11 
REMARK       I    between atoms: C_11  and  N_13 
REMARK    4  A    between atoms: N_13  and  C_14 
REMARK    5  A    between atoms: C_14  and  C_18 
ROOT
HETATM    1  C   UNL     1     -40.097 -45.726  11.137  1.00  0.00     0.122 C 
HETATM    2  C   UNL     1     -39.602 -45.173  12.483  1.00  0.00     0.055 C 
HETATM    3  C   UNL     1     -39.558 -44.926   9.997  1.00  0.00     0.091 C 
HETATM    4  N   UNL     1     -39.163 -44.300   9.101  1.00  0.00    -0.195 NA
ENDROOT
BRANCH   1   5
HETATM    5  N   UNL     1     -39.753 -47.152  11.007  1.00  0.00    -0.338 N 
HETATM    6  C   UNL     1     -39.502 -47.946  12.108  1.00  0.00     0.237 C 
HETATM    7  O   UNL     1     -39.546 -47.520  13.261  1.00  0.00    -0.272 OA
HETATM    8  H   UNL     1     -39.601 -47.541  10.081  1.00  0.00     0.164 HD
BRANCH   6   9
HETATM    9  C   UNL     1     -39.079 -49.382  11.828  1.00  0.00     0.237 C 
BRANCH   9  10
HETATM   10  N   UNL     1     -40.177 -50.287  12.058  1.00  0.00    -0.284 N 
HETATM   11  C   UNL     1     -41.468 -50.127  11.726  1.00  0.00     0.205 A 
HETATM   12  N   UNL     1     -42.251 -51.083  12.107  1.00  0.00    -0.289 N 
HETATM   13  N   UNL     1     -41.407 -51.971  12.754  1.00  0.00    -0.233 N 
ATOM     14  HN  UNL     1     -43.258 -51.165  11.965  1.00  0.00     0.188 HD
HETATM   15  C   UNL     1     -40.096 -51.485  12.709  1.00  0.00     0.345 A 
HETATM   16  O   UNL     1     -39.066 -52.002  13.114  1.00  0.00    -0.245 OA
BRANCH  13  17
HETATM   17  C   UNL     1     -41.878 -53.220  13.368  1.00  0.00     0.048 C 
HETATM   18  C   UNL     1     -40.999 -54.416  12.953  1.00  0.00     0.040 C 
HETATM   19  C   UNL     1     -43.322 -53.507  12.919  1.00  0.00     0.040 C 
HETATM   20  C   UNL     1     -41.830 -53.095  14.899  1.00  0.00     0.040 C 
ENDBRANCH  13  17
ENDBRANCH   9  10
ENDBRANCH   6   9
ENDBRANCH   1   5
BRANCH   1  21
HETATM   21  C   UNL     1     -41.614 -45.585  10.961  1.00  0.00     0.028 A 
HETATM   22  C   UNL     1     -42.614 -46.433  11.732  1.00  0.00     0.009 A 
HETATM   23  C   UNL     1     -42.470 -46.621  10.250  1.00  0.00     0.009 A 
ENDBRANCH   1  21
TORSDOF 5
ENDMDL
