MODEL 1
REMARK VINA RESULT:      -6.0      0.000      0.000
REMARK  7 active torsions:
REMARK  status: ('A' for Active; 'I' for Inactive)
REMARK    1  A    between atoms: C_5  and  O_6 
REMARK    2  A    between atoms: O_6  and  C_7 
REMARK    3  A    between atoms: C_7  and  C_8 
REMARK    4  A    between atoms: C_8  and  N_9 
REMARK    5  A    between atoms: C_10  and  C_11 
REMARK    6  A    between atoms: C_11  and  C_12 
REMARK    7  A    between atoms: C_12  and  O_13 
ROOT
HETATM    1  N   UNL     1     -42.224 -51.887  12.675  1.00  0.00    -0.333 N 
HETATM    2  C   UNL     1     -42.341 -50.503  12.707  1.00  0.00     0.086 A 
HETATM    3  N   UNL     1     -43.580 -50.146  12.971  1.00  0.00    -0.344 N 
ATOM      4  HN  UNL     1     -43.933 -49.195  13.076  1.00  0.00     0.167 HD
HETATM    5  C   UNL     1     -44.299 -51.303  13.077  1.00  0.00     0.060 A 
HETATM    6  C   UNL     1     -45.674 -51.470  13.313  1.00  0.00     0.032 A 
HETATM    7  C   UNL     1     -46.199 -52.761  13.391  1.00  0.00     0.002 A 
HETATM    8  C   UNL     1     -45.373 -53.869  13.233  1.00  0.00     0.002 A 
HETATM    9  C   UNL     1     -44.007 -53.718  12.975  1.00  0.00     0.032 A 
HETATM   10  C   UNL     1     -43.482 -52.420  12.906  1.00  0.00     0.062 A 
ENDROOT
BRANCH   1  11
HETATM   11  C   UNL     1     -41.018 -52.630  12.345  1.00  0.00     0.157 C 
BRANCH  11  12
HETATM   12  C   UNL     1     -40.238 -53.208  13.523  1.00  0.00     0.196 C 
BRANCH  12  13
HETATM   13  O   UNL     1     -38.844 -52.899  13.431  1.00  0.00    -0.350 OA
BRANCH  13  14
HETATM   14  C   UNL     1     -38.504 -51.586  13.593  1.00  0.00     0.068 A 
HETATM   15  C   UNL     1     -38.738 -51.057  14.863  1.00  0.00     0.037 A 
HETATM   16  C   UNL     1     -38.350 -49.752  15.162  1.00  0.00     0.009 A 
HETATM   17  C   UNL     1     -37.705 -48.970  14.198  1.00  0.00    -0.062 A 
HETATM   18  C   UNL     1     -37.205 -47.593  14.513  1.00  0.00     0.048 C 
HETATM   19  C   UNL     1     -37.485 -49.504  12.924  1.00  0.00     0.009 A 
HETATM   20  C   UNL     1     -37.890 -50.802  12.619  1.00  0.00     0.037 A 
ENDBRANCH  13  14
ENDBRANCH  12  13
ENDBRANCH  11  12
ENDBRANCH   1  11
BRANCH   2  21
HETATM   21  C   UNL     1     -41.239 -49.513  12.438  1.00  0.00     0.102 C 
BRANCH  21  22
HETATM   22  C   UNL     1     -41.236 -49.041  10.983  1.00  0.00     0.171 C 
BRANCH  22  23
HETATM   23  O   UNL     1     -40.458 -49.916  10.167  1.00  0.00    -0.400 OA
HETATM   24  H   UNL     1     -39.601 -49.466  10.041  1.00  0.00     0.209 HD
ENDBRANCH  22  23
ENDBRANCH  21  22
ENDBRANCH   2  21
TORSDOF 7
ENDMDL
MODEL 2
REMARK VINA RESULT:      -6.0      2.169      5.799
REMARK  7 active torsions:
REMARK  status: ('A' for Active; 'I' for Inactive)
REMARK    1  A    between atoms: C_5  and  O_6 
REMARK    2  A    between atoms: O_6  and  C_7 
REMARK    3  A    between atoms: C_7  and  C_8 
REMARK    4  A    between atoms: C_8  and  N_9 
REMARK    5  A    between atoms: C_10  and  C_11 
REMARK    6  A    between atoms: C_11  and  C_12 
REMARK    7  A    between atoms: C_12  and  O_13 
ROOT
HETATM    1  N   UNL     1     -40.473 -49.389  12.432  1.00  0.00    -0.333 N 
HETATM    2  C   UNL     1     -39.241 -48.821  12.134  1.00  0.00     0.086 A 
HETATM    3  N   UNL     1     -39.394 -47.723  11.425  1.00  0.00    -0.344 N 
ATOM      4  HN  UNL     1     -38.655 -47.101  11.096  1.00  0.00     0.167 HD
HETATM    5  C   UNL     1     -40.736 -47.583  11.217  1.00  0.00     0.060 A 
HETATM    6  C   UNL     1     -41.419 -46.596  10.487  1.00  0.00     0.032 A 
HETATM    7  C   UNL     1     -42.812 -46.645  10.414  1.00  0.00     0.002 A 
HETATM    8  C   UNL     1     -43.517 -47.661  11.052  1.00  0.00     0.002 A 
HETATM    9  C   UNL     1     -42.850 -48.662  11.763  1.00  0.00     0.032 A 
HETATM   10  C   UNL     1     -41.450 -48.605  11.842  1.00  0.00     0.062 A 
ENDROOT
BRANCH   1  11
HETATM   11  C   UNL     1     -40.682 -50.643  13.139  1.00  0.00     0.157 C 
BRANCH  11  12
HETATM   12  C   UNL     1     -40.739 -51.902  12.278  1.00  0.00     0.196 C 
BRANCH  12  13
HETATM   13  O   UNL     1     -40.855 -53.082  13.080  1.00  0.00    -0.350 OA
BRANCH  13  14
HETATM   14  C   UNL     1     -42.114 -53.585  13.238  1.00  0.00     0.068 A 
HETATM   15  C   UNL     1     -42.292 -54.427  14.336  1.00  0.00     0.037 A 
HETATM   16  C   UNL     1     -43.558 -54.928  14.639  1.00  0.00     0.009 A 
HETATM   17  C   UNL     1     -44.662 -54.574  13.856  1.00  0.00    -0.062 A 
HETATM   18  C   UNL     1     -46.046 -55.031  14.202  1.00  0.00     0.048 C 
HETATM   19  C   UNL     1     -44.473 -53.738  12.750  1.00  0.00     0.009 A 
HETATM   20  C   UNL     1     -43.204 -53.254  12.436  1.00  0.00     0.037 A 
ENDBRANCH  13  14
ENDBRANCH  12  13
ENDBRANCH  11  12
ENDBRANCH   1  11
BRANCH   2  21
HETATM   21  C   UNL     1     -37.893 -49.376  12.512  1.00  0.00     0.102 C 
BRANCH  21  22
HETATM   22  C   UNL     1     -37.397 -50.412  11.503  1.00  0.00     0.171 C 
BRANCH  22  23
HETATM   23  O   UNL     1     -37.534 -49.928  10.168  1.00  0.00    -0.400 OA
HETATM   24  H   UNL     1     -38.449 -50.141   9.903  1.00  0.00     0.209 HD
ENDBRANCH  22  23
ENDBRANCH  21  22
ENDBRANCH   2  21
TORSDOF 7
ENDMDL
MODEL 3
REMARK VINA RESULT:      -5.9      2.055      6.622
REMARK  7 active torsions:
REMARK  status: ('A' for Active; 'I' for Inactive)
REMARK    1  A    between atoms: C_5  and  O_6 
REMARK    2  A    between atoms: O_6  and  C_7 
REMARK    3  A    between atoms: C_7  and  C_8 
REMARK    4  A    between atoms: C_8  and  N_9 
REMARK    5  A    between atoms: C_10  and  C_11 
REMARK    6  A    between atoms: C_11  and  C_12 
REMARK    7  A    between atoms: C_12  and  O_13 
ROOT
HETATM    1  N   UNL     1     -40.500 -52.024  12.998  1.00  0.00    -0.333 N 
HETATM    2  C   UNL     1     -40.028 -52.586  14.177  1.00  0.00     0.086 A 
HETATM    3  N   UNL     1     -39.119 -51.811  14.731  1.00  0.00    -0.344 N 
ATOM      4  HN  UNL     1     -38.632 -51.975  15.612  1.00  0.00     0.167 HD
HETATM    5  C   UNL     1     -38.959 -50.746  13.892  1.00  0.00     0.060 A 
HETATM    6  C   UNL     1     -38.081 -49.655  14.007  1.00  0.00     0.032 A 
HETATM    7  C   UNL     1     -38.093 -48.665  13.023  1.00  0.00     0.002 A 
HETATM    8  C   UNL     1     -38.961 -48.758  11.939  1.00  0.00     0.002 A 
HETATM    9  C   UNL     1     -39.824 -49.849  11.800  1.00  0.00     0.032 A 
HETATM   10  C   UNL     1     -39.815 -50.837  12.795  1.00  0.00     0.062 A 
ENDROOT
BRANCH   1  11
HETATM   11  C   UNL     1     -41.457 -52.636  12.089  1.00  0.00     0.157 C 
BRANCH  11  12
HETATM   12  C   UNL     1     -42.925 -52.548  12.498  1.00  0.00     0.196 C 
BRANCH  12  13
HETATM   13  O   UNL     1     -43.266 -51.234  12.950  1.00  0.00    -0.350 OA
BRANCH  13  14
HETATM   14  C   UNL     1     -44.295 -51.150  13.844  1.00  0.00     0.068 A 
HETATM   15  C   UNL     1     -45.560 -51.445  13.334  1.00  0.00     0.037 A 
HETATM   16  C   UNL     1     -46.669 -51.473  14.178  1.00  0.00     0.009 A 
HETATM   17  C   UNL     1     -46.519 -51.223  15.546  1.00  0.00    -0.062 A 
HETATM   18  C   UNL     1     -47.677 -51.322  16.492  1.00  0.00     0.048 C 
HETATM   19  C   UNL     1     -45.249 -50.916  16.048  1.00  0.00     0.009 A 
HETATM   20  C   UNL     1     -44.144 -50.869  15.200  1.00  0.00     0.037 A 
ENDBRANCH  13  14
ENDBRANCH  12  13
ENDBRANCH  11  12
ENDBRANCH   1  11
BRANCH   2  21
HETATM   21  C   UNL     1     -40.439 -53.915  14.754  1.00  0.00     0.102 C 
BRANCH  21  22
HETATM   22  C   UNL     1     -39.351 -54.975  14.581  1.00  0.00     0.171 C 
BRANCH  22  23
HETATM   23  O   UNL     1     -38.538 -54.689  13.444  1.00  0.00    -0.400 OA
HETATM   24  H   UNL     1     -39.060 -54.072  12.896  1.00  0.00     0.209 HD
ENDBRANCH  22  23
ENDBRANCH  21  22
ENDBRANCH   2  21
TORSDOF 7
ENDMDL
MODEL 4
REMARK VINA RESULT:      -5.9      2.476      6.529
REMARK  7 active torsions:
REMARK  status: ('A' for Active; 'I' for Inactive)
REMARK    1  A    between atoms: C_5  and  O_6 
REMARK    2  A    between atoms: O_6  and  C_7 
REMARK    3  A    between atoms: C_7  and  C_8 
REMARK    4  A    between atoms: C_8  and  N_9 
REMARK    5  A    between atoms: C_10  and  C_11 
REMARK    6  A    between atoms: C_11  and  C_12 
REMARK    7  A    between atoms: C_12  and  O_13 
ROOT
HETATM    1  N   UNL     1     -40.625 -48.606  12.837  1.00  0.00    -0.333 N 
HETATM    2  C   UNL     1     -40.342 -47.842  11.712  1.00  0.00     0.086 A 
HETATM    3  N   UNL     1     -39.225 -48.245  11.144  1.00  0.00    -0.344 N 
ATOM      4  HN  UNL     1     -38.804 -47.873  10.292  1.00  0.00     0.167 HD
HETATM    5  C   UNL     1     -38.743 -49.260  11.920  1.00  0.00     0.060 A 
HETATM    6  C   UNL     1     -37.560 -50.002  11.770  1.00  0.00     0.032 A 
HETATM    7  C   UNL     1     -37.268 -51.010  12.689  1.00  0.00     0.002 A 
HETATM    8  C   UNL     1     -38.134 -51.275  13.745  1.00  0.00     0.002 A 
HETATM    9  C   UNL     1     -39.303 -50.529  13.921  1.00  0.00     0.032 A 
HETATM   10  C   UNL     1     -39.598 -49.523  12.990  1.00  0.00     0.062 A 
ENDROOT
BRANCH   1  11
HETATM   11  C   UNL     1     -41.740 -48.397  13.747  1.00  0.00     0.157 C 
BRANCH  11  12
HETATM   12  C   UNL     1     -43.091 -48.945  13.294  1.00  0.00     0.196 C 
BRANCH  12  13
HETATM   13  O   UNL     1     -43.221 -50.337  13.600  1.00  0.00    -0.350 OA
BRANCH  13  14
HETATM   14  C   UNL     1     -44.338 -50.702  14.296  1.00  0.00     0.068 A 
HETATM   15  C   UNL     1     -44.313 -50.420  15.663  1.00  0.00     0.037 A 
HETATM   16  C   UNL     1     -45.434 -50.672  16.452  1.00  0.00     0.009 A 
HETATM   17  C   UNL     1     -46.598 -51.193  15.877  1.00  0.00    -0.062 A 
HETATM   18  C   UNL     1     -47.844 -51.401  16.683  1.00  0.00     0.048 C 
HETATM   19  C   UNL     1     -46.611 -51.484  14.509  1.00  0.00     0.009 A 
HETATM   20  C   UNL     1     -45.484 -51.249  13.724  1.00  0.00     0.037 A 
ENDBRANCH  13  14
ENDBRANCH  12  13
ENDBRANCH  11  12
ENDBRANCH   1  11
BRANCH   2  21
HETATM   21  C   UNL     1     -41.150 -46.676  11.204  1.00  0.00     0.102 C 
BRANCH  21  22
HETATM   22  C   UNL     1     -42.194 -47.108  10.175  1.00  0.00     0.171 C 
BRANCH  22  23
HETATM   23  O   UNL     1     -41.826 -48.344   9.565  1.00  0.00    -0.400 OA
HETATM   24  H   UNL     1     -42.653 -48.858   9.490  1.00  0.00     0.209 HD
ENDBRANCH  22  23
ENDBRANCH  21  22
ENDBRANCH   2  21
TORSDOF 7
ENDMDL
MODEL 5
REMARK VINA RESULT:      -5.8      2.585      6.384
REMARK  7 active torsions:
REMARK  status: ('A' for Active; 'I' for Inactive)
REMARK    1  A    between atoms: C_5  and  O_6 
REMARK    2  A    between atoms: O_6  and  C_7 
REMARK    3  A    between atoms: C_7  and  C_8 
REMARK    4  A    between atoms: C_8  and  N_9 
REMARK    5  A    between atoms: C_10  and  C_11 
REMARK    6  A    between atoms: C_11  and  C_12 
REMARK    7  A    between atoms: C_12  and  O_13 
ROOT
HETATM    1  N   UNL     1     -40.804 -49.265  11.812  1.00  0.00    -0.333 N 
HETATM    2  C   UNL     1     -39.504 -48.784  11.893  1.00  0.00     0.086 A 
HETATM    3  N   UNL     1     -39.441 -47.538  11.473  1.00  0.00    -0.344 N 
ATOM      4  HN  UNL     1     -38.614 -46.942  11.451  1.00  0.00     0.167 HD
HETATM    5  C   UNL     1     -40.704 -47.203  11.075  1.00  0.00     0.060 A 
HETATM    6  C   UNL     1     -41.163 -45.999  10.513  1.00  0.00     0.032 A 
HETATM    7  C   UNL     1     -42.513 -45.873  10.186  1.00  0.00     0.002 A 
HETATM    8  C   UNL     1     -43.395 -46.927  10.407  1.00  0.00     0.002 A 
HETATM    9  C   UNL     1     -42.948 -48.138  10.943  1.00  0.00     0.032 A 
HETATM   10  C   UNL     1     -41.592 -48.258  11.280  1.00  0.00     0.062 A 
ENDROOT
BRANCH   1  11
HETATM   11  C   UNL     1     -41.229 -50.621  12.126  1.00  0.00     0.157 C 
BRANCH  11  12
HETATM   12  C   UNL     1     -42.262 -50.762  13.241  1.00  0.00     0.196 C 
BRANCH  12  13
HETATM   13  O   UNL     1     -43.577 -50.966  12.714  1.00  0.00    -0.350 OA
BRANCH  13  14
HETATM   14  C   UNL     1     -44.576 -51.134  13.629  1.00  0.00     0.068 A 
HETATM   15  C   UNL     1     -44.237 -50.840  14.950  1.00  0.00     0.037 A 
HETATM   16  C   UNL     1     -45.204 -50.896  15.953  1.00  0.00     0.009 A 
HETATM   17  C   UNL     1     -46.526 -51.230  15.639  1.00  0.00    -0.062 A 
HETATM   18  C   UNL     1     -47.604 -51.221  16.680  1.00  0.00     0.048 C 
HETATM   19  C   UNL     1     -46.855 -51.535  14.314  1.00  0.00     0.009 A 
HETATM   20  C   UNL     1     -45.884 -51.497  13.315  1.00  0.00     0.037 A 
ENDBRANCH  13  14
ENDBRANCH  12  13
ENDBRANCH  11  12
ENDBRANCH   1  11
BRANCH   2  21
HETATM   21  C   UNL     1     -38.296 -49.561  12.348  1.00  0.00     0.102 C 
BRANCH  21  22
HETATM   22  C   UNL     1     -37.454 -50.053  11.170  1.00  0.00     0.171 C 
BRANCH  22  23
HETATM   23  O   UNL     1     -37.113 -51.429  11.329  1.00  0.00    -0.400 OA
HETATM   24  H   UNL     1     -36.193 -51.510  11.012  1.00  0.00     0.209 HD
ENDBRANCH  22  23
ENDBRANCH  21  22
ENDBRANCH   2  21
TORSDOF 7
ENDMDL
MODEL 6
REMARK VINA RESULT:      -5.7      2.054      6.913
REMARK  7 active torsions:
REMARK  status: ('A' for Active; 'I' for Inactive)
REMARK    1  A    between atoms: C_5  and  O_6 
REMARK    2  A    between atoms: O_6  and  C_7 
REMARK    3  A    between atoms: C_7  and  C_8 
REMARK    4  A    between atoms: C_8  and  N_9 
REMARK    5  A    between atoms: C_10  and  C_11 
REMARK    6  A    between atoms: C_11  and  C_12 
REMARK    7  A    between atoms: C_12  and  O_13 
ROOT
HETATM    1  N   UNL     1     -40.307 -50.435  13.022  1.00  0.00    -0.333 N 
HETATM    2  C   UNL     1     -39.899 -51.719  13.357  1.00  0.00     0.086 A 
HETATM    3  N   UNL     1     -38.795 -51.686  14.073  1.00  0.00    -0.344 N 
ATOM      4  HN  UNL     1     -38.299 -52.485  14.468  1.00  0.00     0.167 HD
HETATM    5  C   UNL     1     -38.446 -50.370  14.181  1.00  0.00     0.060 A 
HETATM    6  C   UNL     1     -37.328 -49.802  14.813  1.00  0.00     0.032 A 
HETATM    7  C   UNL     1     -37.175 -48.414  14.808  1.00  0.00     0.002 A 
HETATM    8  C   UNL     1     -38.115 -47.604  14.179  1.00  0.00     0.002 A 
HETATM    9  C   UNL     1     -39.220 -48.156  13.526  1.00  0.00     0.032 A 
HETATM   10  C   UNL     1     -39.376 -49.550  13.542  1.00  0.00     0.062 A 
ENDROOT
BRANCH   1  11
HETATM   11  C   UNL     1     -41.444 -50.096  12.181  1.00  0.00     0.157 C 
BRANCH  11  12
HETATM   12  C   UNL     1     -42.782 -49.918  12.896  1.00  0.00     0.196 C 
BRANCH  12  13
HETATM   13  O   UNL     1     -43.600 -51.087  12.776  1.00  0.00    -0.350 OA
BRANCH  13  14
HETATM   14  C   UNL     1     -44.607 -51.216  13.688  1.00  0.00     0.068 A 
HETATM   15  C   UNL     1     -44.279 -50.867  14.999  1.00  0.00     0.037 A 
HETATM   16  C   UNL     1     -45.255 -50.881  15.995  1.00  0.00     0.009 A 
HETATM   17  C   UNL     1     -46.575 -51.225  15.682  1.00  0.00    -0.062 A 
HETATM   18  C   UNL     1     -47.662 -51.173  16.712  1.00  0.00     0.048 C 
HETATM   19  C   UNL     1     -46.893 -51.584  14.368  1.00  0.00     0.009 A 
HETATM   20  C   UNL     1     -45.913 -51.590  13.378  1.00  0.00     0.037 A 
ENDBRANCH  13  14
ENDBRANCH  12  13
ENDBRANCH  11  12
ENDBRANCH   1  11
BRANCH   2  21
HETATM   21  C   UNL     1     -40.572 -53.001  12.940  1.00  0.00     0.102 C 
BRANCH  21  22
HETATM   22  C   UNL     1     -40.087 -54.196  13.762  1.00  0.00     0.171 C 
BRANCH  22  23
HETATM   23  O   UNL     1     -38.769 -54.578  13.375  1.00  0.00    -0.400 OA
HETATM   24  H   UNL     1     -38.246 -54.595  14.199  1.00  0.00     0.209 HD
ENDBRANCH  22  23
ENDBRANCH  21  22
ENDBRANCH   2  21
TORSDOF 7
ENDMDL
MODEL 7
REMARK VINA RESULT:      -5.7      3.543      5.590
REMARK  7 active torsions:
REMARK  status: ('A' for Active; 'I' for Inactive)
REMARK    1  A    between atoms: C_5  and  O_6 
REMARK    2  A    between atoms: O_6  and  C_7 
REMARK    3  A    between atoms: C_7  and  C_8 
REMARK    4  A    between atoms: C_8  and  N_9 
REMARK    5  A    between atoms: C_10  and  C_11 
REMARK    6  A    between atoms: C_11  and  C_12 
REMARK    7  A    between atoms: C_12  and  O_13 
ROOT
HETATM    1  N   UNL     1     -44.226 -53.273  14.060  1.00  0.00    -0.333 N 
HETATM    2  C   UNL     1     -44.781 -52.143  13.474  1.00  0.00     0.086 A 
HETATM    3  N   UNL     1     -43.919 -51.568  12.661  1.00  0.00    -0.344 N 
ATOM      4  HN  UNL     1     -44.079 -50.740  12.087  1.00  0.00     0.167 HD
HETATM    5  C   UNL     1     -42.770 -52.302  12.738  1.00  0.00     0.060 A 
HETATM    6  C   UNL     1     -41.539 -52.086  12.095  1.00  0.00     0.032 A 
HETATM    7  C   UNL     1     -40.490 -52.979  12.317  1.00  0.00     0.002 A 
HETATM    8  C   UNL     1     -40.658 -54.067  13.169  1.00  0.00     0.002 A 
HETATM    9  C   UNL     1     -41.869 -54.281  13.833  1.00  0.00     0.032 A 
HETATM   10  C   UNL     1     -42.924 -53.387  13.600  1.00  0.00     0.062 A 
ENDROOT
BRANCH   1  11
HETATM   11  C   UNL     1     -44.866 -54.112  15.061  1.00  0.00     0.157 C 
BRANCH  11  12
HETATM   12  C   UNL     1     -44.559 -53.776  16.518  1.00  0.00     0.196 C 
BRANCH  12  13
HETATM   13  O   UNL     1     -44.029 -54.908  17.216  1.00  0.00    -0.350 OA
BRANCH  13  14
HETATM   14  C   UNL     1     -42.671 -55.052  17.191  1.00  0.00     0.068 A 
HETATM   15  C   UNL     1     -42.208 -56.321  16.842  1.00  0.00     0.037 A 
HETATM   16  C   UNL     1     -40.840 -56.555  16.704  1.00  0.00     0.009 A 
HETATM   17  C   UNL     1     -39.924 -55.515  16.894  1.00  0.00    -0.062 A 
HETATM   18  C   UNL     1     -38.456 -55.715  16.675  1.00  0.00     0.048 C 
HETATM   19  C   UNL     1     -40.397 -54.249  17.254  1.00  0.00     0.009 A 
HETATM   20  C   UNL     1     -41.762 -54.020  17.412  1.00  0.00     0.037 A 
ENDBRANCH  13  14
ENDBRANCH  12  13
ENDBRANCH  11  12
ENDBRANCH   1  11
BRANCH   2  21
HETATM   21  C   UNL     1     -46.157 -51.591  13.738  1.00  0.00     0.102 C 
BRANCH  21  22
HETATM   22  C   UNL     1     -47.034 -51.614  12.486  1.00  0.00     0.171 C 
BRANCH  22  23
HETATM   23  O   UNL     1     -46.540 -52.558  11.537  1.00  0.00    -0.400 OA
HETATM   24  H   UNL     1     -47.294 -53.143  11.331  1.00  0.00     0.209 HD
ENDBRANCH  22  23
ENDBRANCH  21  22
ENDBRANCH   2  21
TORSDOF 7
ENDMDL
MODEL 8
REMARK VINA RESULT:      -5.7      2.344      6.079
REMARK  7 active torsions:
REMARK  status: ('A' for Active; 'I' for Inactive)
REMARK    1  A    between atoms: C_5  and  O_6 
REMARK    2  A    between atoms: O_6  and  C_7 
REMARK    3  A    between atoms: C_7  and  C_8 
REMARK    4  A    between atoms: C_8  and  N_9 
REMARK    5  A    between atoms: C_10  and  C_11 
REMARK    6  A    between atoms: C_11  and  C_12 
REMARK    7  A    between atoms: C_12  and  O_13 
ROOT
HETATM    1  N   UNL     1     -40.233 -52.219  13.250  1.00  0.00    -0.333 N 
HETATM    2  C   UNL     1     -39.114 -51.436  13.498  1.00  0.00     0.086 A 
HETATM    3  N   UNL     1     -38.478 -51.858  14.570  1.00  0.00    -0.344 N 
ATOM      4  HN  UNL     1     -37.615 -51.477  14.958  1.00  0.00     0.167 HD
HETATM    5  C   UNL     1     -39.203 -52.906  15.060  1.00  0.00     0.060 A 
HETATM    6  C   UNL     1     -38.973 -53.680  16.210  1.00  0.00     0.032 A 
HETATM    7  C   UNL     1     -39.851 -54.720  16.517  1.00  0.00     0.002 A 
HETATM    8  C   UNL     1     -40.945 -54.985  15.699  1.00  0.00     0.002 A 
HETATM    9  C   UNL     1     -41.200 -54.209  14.565  1.00  0.00     0.032 A 
HETATM   10  C   UNL     1     -40.310 -53.171  14.253  1.00  0.00     0.062 A 
ENDROOT
BRANCH   1  11
HETATM   11  C   UNL     1     -41.205 -52.000  12.191  1.00  0.00     0.157 C 
BRANCH  11  12
HETATM   12  C   UNL     1     -42.434 -51.174  12.563  1.00  0.00     0.196 C 
BRANCH  12  13
HETATM   13  O   UNL     1     -43.615 -51.982  12.606  1.00  0.00    -0.350 OA
BRANCH  13  14
HETATM   14  C   UNL     1     -44.503 -51.703  13.605  1.00  0.00     0.068 A 
HETATM   15  C   UNL     1     -45.843 -51.648  13.220  1.00  0.00     0.037 A 
HETATM   16  C   UNL     1     -46.841 -51.454  14.175  1.00  0.00     0.009 A 
HETATM   17  C   UNL     1     -46.506 -51.333  15.528  1.00  0.00    -0.062 A 
HETATM   18  C   UNL     1     -47.560 -51.204  16.586  1.00  0.00     0.048 C 
HETATM   19  C   UNL     1     -45.160 -51.377  15.904  1.00  0.00     0.009 A 
HETATM   20  C   UNL     1     -44.162 -51.552  14.947  1.00  0.00     0.037 A 
ENDBRANCH  13  14
ENDBRANCH  12  13
ENDBRANCH  11  12
ENDBRANCH   1  11
BRANCH   2  21
HETATM   21  C   UNL     1     -38.677 -50.233  12.703  1.00  0.00     0.102 C 
BRANCH  21  22
HETATM   22  C   UNL     1     -37.475 -50.542  11.810  1.00  0.00     0.171 C 
BRANCH  22  23
HETATM   23  O   UNL     1     -36.876 -51.784  12.176  1.00  0.00    -0.400 OA
HETATM   24  H   UNL     1     -37.616 -52.373  12.418  1.00  0.00     0.209 HD
ENDBRANCH  22  23
ENDBRANCH  21  22
ENDBRANCH   2  21
TORSDOF 7
ENDMDL
MODEL 9
REMARK VINA RESULT:      -5.6      3.212      6.499
REMARK  7 active torsions:
REMARK  status: ('A' for Active; 'I' for Inactive)
REMARK    1  A    between atoms: C_5  and  O_6 
REMARK    2  A    between atoms: O_6  and  C_7 
REMARK    3  A    between atoms: C_7  and  C_8 
REMARK    4  A    between atoms: C_8  and  N_9 
REMARK    5  A    between atoms: C_10  and  C_11 
REMARK    6  A    between atoms: C_11  and  C_12 
REMARK    7  A    between atoms: C_12  and  O_13 
ROOT
HETATM    1  N   UNL     1     -41.587 -47.198  10.939  1.00  0.00    -0.333 N 
HETATM    2  C   UNL     1     -42.774 -46.661  10.459  1.00  0.00     0.086 A 
HETATM    3  N   UNL     1     -42.898 -45.402  10.825  1.00  0.00    -0.344 N 
ATOM      4  HN  UNL     1     -43.661 -44.769  10.586  1.00  0.00     0.167 HD
HETATM    5  C   UNL     1     -41.801 -45.114  11.585  1.00  0.00     0.060 A 
HETATM    6  C   UNL     1     -41.473 -43.917  12.246  1.00  0.00     0.032 A 
HETATM    7  C   UNL     1     -40.282 -43.844  12.968  1.00  0.00     0.002 A 
HETATM    8  C   UNL     1     -39.430 -44.942  13.040  1.00  0.00     0.002 A 
HETATM    9  C   UNL     1     -39.754 -46.145  12.407  1.00  0.00     0.032 A 
HETATM   10  C   UNL     1     -40.948 -46.213  11.674  1.00  0.00     0.062 A 
ENDROOT
BRANCH   1  11
HETATM   11  C   UNL     1     -41.156 -48.579  10.786  1.00  0.00     0.157 C 
BRANCH  11  12
HETATM   12  C   UNL     1     -41.662 -49.563  11.838  1.00  0.00     0.196 C 
BRANCH  12  13
HETATM   13  O   UNL     1     -41.089 -50.862  11.658  1.00  0.00    -0.350 OA
BRANCH  13  14
HETATM   14  C   UNL     1     -41.620 -51.867  12.416  1.00  0.00     0.068 A 
HETATM   15  C   UNL     1     -42.859 -51.593  12.995  1.00  0.00     0.037 A 
HETATM   16  C   UNL     1     -43.530 -52.579  13.718  1.00  0.00     0.009 A 
HETATM   17  C   UNL     1     -42.973 -53.856  13.852  1.00  0.00    -0.062 A 
HETATM   18  C   UNL     1     -43.705 -54.959  14.555  1.00  0.00     0.048 C 
HETATM   19  C   UNL     1     -41.725 -54.118  13.279  1.00  0.00     0.009 A 
HETATM   20  C   UNL     1     -41.046 -53.127  12.572  1.00  0.00     0.037 A 
ENDBRANCH  13  14
ENDBRANCH  12  13
ENDBRANCH  11  12
ENDBRANCH   1  11
BRANCH   2  21
HETATM   21  C   UNL     1     -43.824 -47.394   9.667  1.00  0.00     0.102 C 
BRANCH  21  22
HETATM   22  C   UNL     1     -43.586 -47.285   8.161  1.00  0.00     0.171 C 
BRANCH  22  23
HETATM   23  O   UNL     1     -42.774 -46.152   7.855  1.00  0.00    -0.400 OA
HETATM   24  H   UNL     1     -41.969 -46.251   8.399  1.00  0.00     0.209 HD
ENDBRANCH  22  23
ENDBRANCH  21  22
ENDBRANCH   2  21
TORSDOF 7
ENDMDL
