MODEL 1
REMARK VINA RESULT:      -6.3      0.000      0.000
REMARK  2 active torsions:
REMARK  status: ('A' for Active; 'I' for Inactive)
REMARK       I    between atoms: C_2  and  N_4 
REMARK    1  A    between atoms: C_7  and  N_10 
REMARK       I    between atoms: N_10  and  C_11 
REMARK       I    between atoms: C_11  and  N_13 
REMARK    2  A    between atoms: N_13  and  C_14 
ROOT
HETATM    1  N   UNL     1     -42.430 -47.309  10.732  1.00  0.00    -0.338 N 
HETATM    2  C   UNL     1     -42.252 -46.281   9.863  1.00  0.00     0.322 C 
HETATM    3  O   UNL     1     -41.356 -45.448   9.967  1.00  0.00    -0.247 OA
HETATM    4  N   UNL     1     -43.129 -46.222   8.814  1.00  0.00    -0.295 N 
HETATM    5  H   UNL     1     -43.307 -47.808  10.600  1.00  0.00     0.164 HD
HETATM    6  H   UNL     1     -42.928 -45.474   8.171  1.00  0.00     0.172 HD
ENDROOT
BRANCH   1   7
HETATM    7  C   UNL     1     -41.652 -47.544  11.931  1.00  0.00     0.089 C 
HETATM    8  C   UNL     1     -40.368 -48.311  11.589  1.00  0.00     0.045 C 
HETATM    9  C   UNL     1     -40.635 -49.779  11.257  1.00  0.00     0.127 C 
HETATM   10  N   UNL     1     -41.412 -50.410  12.318  1.00  0.00    -0.352 N 
HETATM   11  C   UNL     1     -41.063 -51.685  12.741  1.00  0.00     0.215 C 
HETATM   12  C   UNL     1     -42.679 -49.752  12.636  1.00  0.00     0.127 C 
HETATM   13  C   UNL     1     -41.774 -52.217  13.959  1.00  0.00     0.117 C 
HETATM   14  O   UNL     1     -40.170 -52.346  12.209  1.00  0.00    -0.274 OA
HETATM   15  C   UNL     1     -42.470 -48.286  12.993  1.00  0.00     0.045 C 
ENDBRANCH   1   7
BRANCH   4  16
HETATM   16  C   UNL     1     -44.204 -47.075   8.536  1.00  0.00     0.108 A 
HETATM   17  C   UNL     1     -45.343 -46.978   9.322  1.00  0.00     0.049 A 
HETATM   18  C   UNL     1     -46.426 -47.810   9.038  1.00  0.00     0.005 A 
HETATM   19  C   UNL     1     -46.342 -48.709   7.983  1.00  0.00     0.017 A 
HETATM   20  C   UNL     1     -45.170 -48.750   7.257  1.00  0.00     0.089 A 
HETATM   21  N   UNL     1     -44.102 -47.965   7.520  1.00  0.00    -0.352 N 
ATOM     22  HN  UNL     1     -43.246 -48.041   6.970  1.00  0.00     0.166 HD
ENDBRANCH   4  16
TORSDOF 2
ENDMDL
MODEL 2
REMARK VINA RESULT:      -6.3      2.448      3.172
REMARK  2 active torsions:
REMARK  status: ('A' for Active; 'I' for Inactive)
REMARK       I    between atoms: C_2  and  N_4 
REMARK    1  A    between atoms: C_7  and  N_10 
REMARK       I    between atoms: N_10  and  C_11 
REMARK       I    between atoms: C_11  and  N_13 
REMARK    2  A    between atoms: N_13  and  C_14 
ROOT
HETATM    1  N   UNL     1     -42.116 -49.521  11.985  1.00  0.00    -0.338 N 
HETATM    2  C   UNL     1     -41.077 -48.821  11.462  1.00  0.00     0.322 C 
HETATM    3  O   UNL     1     -39.937 -48.852  11.915  1.00  0.00    -0.247 OA
HETATM    4  N   UNL     1     -41.356 -48.070  10.352  1.00  0.00    -0.295 N 
HETATM    5  H   UNL     1     -43.020 -49.261  11.596  1.00  0.00     0.164 HD
HETATM    6  H   UNL     1     -40.547 -47.609   9.971  1.00  0.00     0.172 HD
ENDROOT
BRANCH   1   7
HETATM    7  C   UNL     1     -42.065 -50.345  13.175  1.00  0.00     0.089 C 
HETATM    8  C   UNL     1     -41.782 -51.805  12.797  1.00  0.00     0.045 C 
HETATM    9  C   UNL     1     -42.991 -52.488  12.159  1.00  0.00     0.127 C 
HETATM   10  N   UNL     1     -44.170 -52.334  13.003  1.00  0.00    -0.352 N 
HETATM   11  C   UNL     1     -45.010 -53.422  13.192  1.00  0.00     0.215 C 
HETATM   12  C   UNL     1     -44.520 -50.953  13.336  1.00  0.00     0.127 C 
HETATM   13  C   UNL     1     -46.107 -53.267  14.215  1.00  0.00     0.117 C 
HETATM   14  O   UNL     1     -44.850 -54.500  12.618  1.00  0.00    -0.274 OA
HETATM   15  C   UNL     1     -43.353 -50.227  13.994  1.00  0.00     0.045 C 
ENDBRANCH   1   7
BRANCH   4  16
HETATM   16  C   UNL     1     -42.586 -47.912   9.701  1.00  0.00     0.108 A 
HETATM   17  C   UNL     1     -43.685 -47.523  10.453  1.00  0.00     0.049 A 
HETATM   18  C   UNL     1     -44.908 -47.343   9.807  1.00  0.00     0.005 A 
HETATM   19  C   UNL     1     -44.999 -47.555   8.438  1.00  0.00     0.017 A 
HETATM   20  C   UNL     1     -43.862 -47.951   7.766  1.00  0.00     0.089 A 
HETATM   21  N   UNL     1     -42.669 -48.145   8.369  1.00  0.00    -0.352 N 
ATOM     22  HN  UNL     1     -41.856 -48.457   7.838  1.00  0.00     0.166 HD
ENDBRANCH   4  16
TORSDOF 2
ENDMDL
MODEL 3
REMARK VINA RESULT:      -6.2      3.364      6.531
REMARK  2 active torsions:
REMARK  status: ('A' for Active; 'I' for Inactive)
REMARK       I    between atoms: C_2  and  N_4 
REMARK    1  A    between atoms: C_7  and  N_10 
REMARK       I    between atoms: N_10  and  C_11 
REMARK       I    between atoms: C_11  and  N_13 
REMARK    2  A    between atoms: N_13  and  C_14 
ROOT
HETATM    1  N   UNL     1     -40.864 -47.024  10.578  1.00  0.00    -0.338 N 
HETATM    2  C   UNL     1     -41.611 -48.109  10.253  1.00  0.00     0.322 C 
HETATM    3  O   UNL     1     -42.646 -48.052   9.594  1.00  0.00    -0.247 OA
HETATM    4  N   UNL     1     -41.135 -49.318  10.683  1.00  0.00    -0.295 N 
HETATM    5  H   UNL     1     -40.134 -47.220  11.260  1.00  0.00     0.164 HD
HETATM    6  H   UNL     1     -41.694 -50.097  10.376  1.00  0.00     0.172 HD
ENDROOT
BRANCH   1   7
HETATM    7  C   UNL     1     -41.194 -45.647  10.268  1.00  0.00     0.089 C 
HETATM    8  C   UNL     1     -39.954 -44.758  10.420  1.00  0.00     0.045 C 
HETATM    9  C   UNL     1     -39.576 -44.526  11.882  1.00  0.00     0.127 C 
HETATM   10  N   UNL     1     -40.725 -44.038  12.636  1.00  0.00    -0.352 N 
HETATM   11  C   UNL     1     -40.544 -43.006  13.545  1.00  0.00     0.215 C 
HETATM   12  C   UNL     1     -41.914 -44.888  12.577  1.00  0.00     0.127 C 
HETATM   13  C   UNL     1     -41.787 -42.415  14.161  1.00  0.00     0.117 C 
HETATM   14  O   UNL     1     -39.439 -42.528  13.805  1.00  0.00    -0.274 OA
HETATM   15  C   UNL     1     -42.348 -45.138  11.138  1.00  0.00     0.045 C 
ENDBRANCH   1   7
BRANCH   4  16
HETATM   16  C   UNL     1     -39.985 -49.575  11.439  1.00  0.00     0.108 A 
HETATM   17  C   UNL     1     -40.085 -49.550  12.822  1.00  0.00     0.049 A 
HETATM   18  C   UNL     1     -38.948 -49.826  13.581  1.00  0.00     0.005 A 
HETATM   19  C   UNL     1     -37.751 -50.119  12.942  1.00  0.00     0.017 A 
HETATM   20  C   UNL     1     -37.733 -50.113  11.563  1.00  0.00     0.089 A 
HETATM   21  N   UNL     1     -38.816 -49.836  10.804  1.00  0.00    -0.352 N 
ATOM     22  HN  UNL     1     -38.755 -49.824   9.786  1.00  0.00     0.166 HD
ENDBRANCH   4  16
TORSDOF 2
ENDMDL
MODEL 4
REMARK VINA RESULT:      -6.0      5.090      6.982
REMARK  2 active torsions:
REMARK  status: ('A' for Active; 'I' for Inactive)
REMARK       I    between atoms: C_2  and  N_4 
REMARK    1  A    between atoms: C_7  and  N_10 
REMARK       I    between atoms: N_10  and  C_11 
REMARK       I    between atoms: C_11  and  N_13 
REMARK    2  A    between atoms: N_13  and  C_14 
ROOT
HETATM    1  N   UNL     1     -42.695 -54.085  14.262  1.00  0.00    -0.338 N 
HETATM    2  C   UNL     1     -43.517 -54.967  14.888  1.00  0.00     0.322 C 
HETATM    3  O   UNL     1     -43.122 -55.977  15.462  1.00  0.00    -0.247 OA
HETATM    4  N   UNL     1     -44.850 -54.660  14.874  1.00  0.00    -0.295 N 
HETATM    5  H   UNL     1     -43.190 -53.395  13.701  1.00  0.00     0.164 HD
HETATM    6  H   UNL     1     -45.413 -55.314  15.392  1.00  0.00     0.172 HD
ENDROOT
BRANCH   1   7
HETATM    7  C   UNL     1     -41.261 -54.226  14.115  1.00  0.00     0.089 C 
HETATM    8  C   UNL     1     -40.535 -53.424  15.202  1.00  0.00     0.045 C 
HETATM    9  C   UNL     1     -40.593 -51.917  14.954  1.00  0.00     0.127 C 
HETATM   10  N   UNL     1     -40.131 -51.603  13.607  1.00  0.00    -0.352 N 
HETATM   11  C   UNL     1     -39.291 -50.514  13.421  1.00  0.00     0.215 C 
HETATM   12  C   UNL     1     -40.840 -52.293  12.530  1.00  0.00     0.127 C 
HETATM   13  C   UNL     1     -38.695 -50.341  12.046  1.00  0.00     0.117 C 
HETATM   14  O   UNL     1     -38.974 -49.749  14.332  1.00  0.00    -0.274 OA
HETATM   15  C   UNL     1     -40.798 -53.805  12.717  1.00  0.00     0.045 C 
ENDBRANCH   1   7
BRANCH   4  16
HETATM   16  C   UNL     1     -45.479 -53.562  14.274  1.00  0.00     0.108 A 
HETATM   17  C   UNL     1     -45.878 -52.507  15.082  1.00  0.00     0.049 A 
HETATM   18  C   UNL     1     -46.485 -51.400  14.489  1.00  0.00     0.005 A 
HETATM   19  C   UNL     1     -46.675 -51.378  13.114  1.00  0.00     0.017 A 
HETATM   20  C   UNL     1     -46.260 -52.471  12.383  1.00  0.00     0.089 A 
HETATM   21  N   UNL     1     -45.682 -53.561  12.934  1.00  0.00    -0.352 N 
ATOM     22  HN  UNL     1     -45.406 -54.357  12.360  1.00  0.00     0.166 HD
ENDBRANCH   4  16
TORSDOF 2
ENDMDL
MODEL 5
REMARK VINA RESULT:      -6.0      3.506      5.502
REMARK  2 active torsions:
REMARK  status: ('A' for Active; 'I' for Inactive)
REMARK       I    between atoms: C_2  and  N_4 
REMARK    1  A    between atoms: C_7  and  N_10 
REMARK       I    between atoms: N_10  and  C_11 
REMARK       I    between atoms: C_11  and  N_13 
REMARK    2  A    between atoms: N_13  and  C_14 
ROOT
HETATM    1  N   UNL     1     -41.108 -51.215  13.210  1.00  0.00    -0.338 N 
HETATM    2  C   UNL     1     -39.880 -51.454  12.681  1.00  0.00     0.322 C 
HETATM    3  O   UNL     1     -39.229 -52.471  12.902  1.00  0.00    -0.247 OA
HETATM    4  N   UNL     1     -39.390 -50.491  11.841  1.00  0.00    -0.295 N 
HETATM    5  H   UNL     1     -41.438 -50.264  13.062  1.00  0.00     0.164 HD
HETATM    6  H   UNL     1     -38.502 -50.734  11.435  1.00  0.00     0.172 HD
ENDROOT
BRANCH   1   7
HETATM    7  C   UNL     1     -41.801 -52.069  14.153  1.00  0.00     0.089 C 
HETATM    8  C   UNL     1     -42.511 -53.210  13.412  1.00  0.00     0.045 C 
HETATM    9  C   UNL     1     -43.751 -52.733  12.656  1.00  0.00     0.127 C 
HETATM   10  N   UNL     1     -44.637 -51.990  13.545  1.00  0.00    -0.352 N 
HETATM   11  C   UNL     1     -46.004 -52.219  13.476  1.00  0.00     0.215 C 
HETATM   12  C   UNL     1     -44.023 -50.850  14.224  1.00  0.00     0.127 C 
HETATM   13  C   UNL     1     -46.857 -51.567  14.535  1.00  0.00     0.117 C 
HETATM   14  O   UNL     1     -46.518 -52.967  12.644  1.00  0.00    -0.274 OA
HETATM   15  C   UNL     1     -42.788 -51.271  15.011  1.00  0.00     0.045 C 
ENDBRANCH   1   7
BRANCH   4  16
HETATM   16  C   UNL     1     -39.985 -49.277  11.476  1.00  0.00     0.108 A 
HETATM   17  C   UNL     1     -39.447 -48.102  11.979  1.00  0.00     0.049 A 
HETATM   18  C   UNL     1     -40.021 -46.887  11.602  1.00  0.00     0.005 A 
HETATM   19  C   UNL     1     -41.109 -46.881  10.739  1.00  0.00     0.017 A 
HETATM   20  C   UNL     1     -41.590 -48.094  10.293  1.00  0.00     0.089 A 
HETATM   21  N   UNL     1     -41.062 -49.284  10.652  1.00  0.00    -0.352 N 
ATOM     22  HN  UNL     1     -41.460 -50.160  10.314  1.00  0.00     0.166 HD
ENDBRANCH   4  16
TORSDOF 2
ENDMDL
MODEL 6
REMARK VINA RESULT:      -5.9      3.198      5.650
REMARK  2 active torsions:
REMARK  status: ('A' for Active; 'I' for Inactive)
REMARK       I    between atoms: C_2  and  N_4 
REMARK    1  A    between atoms: C_7  and  N_10 
REMARK       I    between atoms: N_10  and  C_11 
REMARK       I    between atoms: C_11  and  N_13 
REMARK    2  A    between atoms: N_13  and  C_14 
ROOT
HETATM    1  N   UNL     1     -42.616 -52.126  12.222  1.00  0.00    -0.338 N 
HETATM    2  C   UNL     1     -41.289 -52.107  11.934  1.00  0.00     0.322 C 
HETATM    3  O   UNL     1     -40.570 -53.101  11.970  1.00  0.00    -0.247 OA
HETATM    4  N   UNL     1     -40.771 -50.895  11.564  1.00  0.00    -0.295 N 
HETATM    5  H   UNL     1     -43.029 -51.199  12.305  1.00  0.00     0.164 HD
HETATM    6  H   UNL     1     -39.798 -50.940  11.313  1.00  0.00     0.172 HD
ENDROOT
BRANCH   1   7
HETATM    7  C   UNL     1     -43.365 -53.280  12.675  1.00  0.00     0.089 C 
HETATM    8  C   UNL     1     -44.864 -53.070  12.425  1.00  0.00     0.045 C 
HETATM    9  C   UNL     1     -45.483 -52.063  13.395  1.00  0.00     0.127 C 
HETATM   10  N   UNL     1     -45.178 -52.428  14.773  1.00  0.00    -0.352 N 
HETATM   11  C   UNL     1     -46.180 -52.338  15.730  1.00  0.00     0.215 C 
HETATM   12  C   UNL     1     -43.756 -52.575  15.078  1.00  0.00     0.127 C 
HETATM   13  C   UNL     1     -45.870 -52.899  17.095  1.00  0.00     0.117 C 
HETATM   14  O   UNL     1     -47.300 -51.889  15.487  1.00  0.00    -0.274 OA
HETATM   15  C   UNL     1     -43.090 -53.584  14.150  1.00  0.00     0.045 C 
ENDBRANCH   1   7
BRANCH   4  16
HETATM   16  C   UNL     1     -41.433 -49.665  11.469  1.00  0.00     0.108 A 
HETATM   17  C   UNL     1     -42.096 -49.184  12.588  1.00  0.00     0.049 A 
HETATM   18  C   UNL     1     -42.739 -47.949  12.507  1.00  0.00     0.005 A 
HETATM   19  C   UNL     1     -42.701 -47.233  11.318  1.00  0.00     0.017 A 
HETATM   20  C   UNL     1     -42.028 -47.786  10.249  1.00  0.00     0.089 A 
HETATM   21  N   UNL     1     -41.409 -48.985  10.297  1.00  0.00    -0.352 N 
ATOM     22  HN  UNL     1     -40.938 -49.367   9.476  1.00  0.00     0.166 HD
ENDBRANCH   4  16
TORSDOF 2
ENDMDL
MODEL 7
REMARK VINA RESULT:      -5.8      3.160      5.638
REMARK  2 active torsions:
REMARK  status: ('A' for Active; 'I' for Inactive)
REMARK       I    between atoms: C_2  and  N_4 
REMARK    1  A    between atoms: C_7  and  N_10 
REMARK       I    between atoms: N_10  and  C_11 
REMARK       I    between atoms: C_11  and  N_13 
REMARK    2  A    between atoms: N_13  and  C_14 
ROOT
HETATM    1  N   UNL     1     -41.925 -50.652  11.939  1.00  0.00    -0.338 N 
HETATM    2  C   UNL     1     -41.624 -51.957  12.161  1.00  0.00     0.322 C 
HETATM    3  O   UNL     1     -40.519 -52.448  11.943  1.00  0.00    -0.247 OA
HETATM    4  N   UNL     1     -42.629 -52.728  12.678  1.00  0.00    -0.295 N 
HETATM    5  H   UNL     1     -42.919 -50.445  12.015  1.00  0.00     0.164 HD
HETATM    6  H   UNL     1     -42.345 -53.674  12.872  1.00  0.00     0.172 HD
ENDROOT
BRANCH   1   7
HETATM    7  C   UNL     1     -41.036 -49.666  11.360  1.00  0.00     0.089 C 
HETATM    8  C   UNL     1     -40.102 -49.098  12.436  1.00  0.00     0.045 C 
HETATM    9  C   UNL     1     -40.823 -48.148  13.393  1.00  0.00     0.127 C 
HETATM   10  N   UNL     1     -41.534 -47.115  12.649  1.00  0.00    -0.352 N 
HETATM   11  C   UNL     1     -41.481 -45.804  13.100  1.00  0.00     0.215 C 
HETATM   12  C   UNL     1     -42.487 -47.609  11.655  1.00  0.00     0.127 C 
HETATM   13  C   UNL     1     -42.074 -44.750  12.200  1.00  0.00     0.117 C 
HETATM   14  O   UNL     1     -40.922 -45.478  14.148  1.00  0.00    -0.274 OA
HETATM   15  C   UNL     1     -41.817 -48.549  10.661  1.00  0.00     0.045 C 
ENDBRANCH   1   7
BRANCH   4  16
HETATM   16  C   UNL     1     -43.941 -52.345  12.986  1.00  0.00     0.108 A 
HETATM   17  C   UNL     1     -44.166 -51.654  14.168  1.00  0.00     0.049 A 
HETATM   18  C   UNL     1     -45.466 -51.251  14.471  1.00  0.00     0.005 A 
HETATM   19  C   UNL     1     -46.499 -51.547  13.591  1.00  0.00     0.017 A 
HETATM   20  C   UNL     1     -46.192 -52.247  12.443  1.00  0.00     0.089 A 
HETATM   21  N   UNL     1     -44.944 -52.660  12.132  1.00  0.00    -0.352 N 
ATOM     22  HN  UNL     1     -44.764 -53.192  11.281  1.00  0.00     0.166 HD
ENDBRANCH   4  16
TORSDOF 2
ENDMDL
MODEL 8
REMARK VINA RESULT:      -5.8      4.992      6.994
REMARK  2 active torsions:
REMARK  status: ('A' for Active; 'I' for Inactive)
REMARK       I    between atoms: C_2  and  N_4 
REMARK    1  A    between atoms: C_7  and  N_10 
REMARK       I    between atoms: N_10  and  C_11 
REMARK       I    between atoms: C_11  and  N_13 
REMARK    2  A    between atoms: N_13  and  C_14 
ROOT
HETATM    1  N   UNL     1     -40.845 -52.664  14.297  1.00  0.00    -0.338 N 
HETATM    2  C   UNL     1     -39.556 -53.086  14.335  1.00  0.00     0.322 C 
HETATM    3  O   UNL     1     -39.205 -54.165  14.806  1.00  0.00    -0.247 OA
HETATM    4  N   UNL     1     -38.630 -52.242  13.786  1.00  0.00    -0.295 N 
HETATM    5  H   UNL     1     -40.947 -51.688  14.027  1.00  0.00     0.164 HD
HETATM    6  H   UNL     1     -37.696 -52.618  13.792  1.00  0.00     0.172 HD
ENDROOT
BRANCH   1   7
HETATM    7  C   UNL     1     -41.982 -53.370  14.854  1.00  0.00     0.089 C 
HETATM    8  C   UNL     1     -42.676 -54.199  13.766  1.00  0.00     0.045 C 
HETATM    9  C   UNL     1     -43.466 -53.332  12.785  1.00  0.00     0.127 C 
HETATM   10  N   UNL     1     -44.380 -52.451  13.504  1.00  0.00    -0.352 N 
HETATM   11  C   UNL     1     -45.670 -52.283  13.021  1.00  0.00     0.215 C 
HETATM   12  C   UNL     1     -43.754 -51.591  14.507  1.00  0.00     0.127 C 
HETATM   13  C   UNL     1     -46.628 -51.514  13.895  1.00  0.00     0.117 C 
HETATM   14  O   UNL     1     -46.062 -52.784  11.967  1.00  0.00    -0.274 OA
HETATM   15  C   UNL     1     -42.965 -52.406  15.524  1.00  0.00     0.045 C 
ENDBRANCH   1   7
BRANCH   4  16
HETATM   16  C   UNL     1     -38.841 -50.983  13.209  1.00  0.00     0.108 A 
HETATM   17  C   UNL     1     -38.546 -49.856  13.961  1.00  0.00     0.049 A 
HETATM   18  C   UNL     1     -38.734 -48.599  13.386  1.00  0.00     0.005 A 
HETATM   19  C   UNL     1     -39.208 -48.504  12.084  1.00  0.00     0.017 A 
HETATM   20  C   UNL     1     -39.487 -49.673  11.409  1.00  0.00     0.089 A 
HETATM   21  N   UNL     1     -39.327 -50.902  11.946  1.00  0.00    -0.352 N 
ATOM     22  HN  UNL     1     -39.563 -51.742  11.419  1.00  0.00     0.166 HD
ENDBRANCH   4  16
TORSDOF 2
ENDMDL
MODEL 9
REMARK VINA RESULT:      -5.5      5.124      6.687
REMARK  2 active torsions:
REMARK  status: ('A' for Active; 'I' for Inactive)
REMARK       I    between atoms: C_2  and  N_4 
REMARK    1  A    between atoms: C_7  and  N_10 
REMARK       I    between atoms: N_10  and  C_11 
REMARK       I    between atoms: C_11  and  N_13 
REMARK    2  A    between atoms: N_13  and  C_14 
ROOT
HETATM    1  N   UNL     1     -41.866 -52.225  13.944  1.00  0.00    -0.338 N 
HETATM    2  C   UNL     1     -42.347 -51.788  12.752  1.00  0.00     0.322 C 
HETATM    3  O   UNL     1     -41.699 -51.104  11.965  1.00  0.00    -0.247 OA
HETATM    4  N   UNL     1     -43.622 -52.174  12.440  1.00  0.00    -0.295 N 
HETATM    5  H   UNL     1     -42.577 -52.637  14.545  1.00  0.00     0.164 HD
HETATM    6  H   UNL     1     -43.917 -51.869  11.528  1.00  0.00     0.172 HD
ENDROOT
BRANCH   1   7
HETATM    7  C   UNL     1     -40.566 -51.906  14.498  1.00  0.00     0.089 C 
HETATM    8  C   UNL     1     -39.478 -52.745  13.814  1.00  0.00     0.045 C 
HETATM    9  C   UNL     1     -39.506 -54.209  14.254  1.00  0.00     0.127 C 
HETATM   10  N   UNL     1     -39.473 -54.306  15.709  1.00  0.00    -0.352 N 
HETATM   11  C   UNL     1     -38.661 -55.263  16.300  1.00  0.00     0.215 C 
HETATM   12  C   UNL     1     -40.533 -53.576  16.405  1.00  0.00     0.127 C 
HETATM   13  C   UNL     1     -38.520 -55.202  17.801  1.00  0.00     0.117 C 
HETATM   14  O   UNL     1     -38.020 -56.091  15.653  1.00  0.00    -0.274 OA
HETATM   15  C   UNL     1     -40.540 -52.103  16.017  1.00  0.00     0.045 C 
ENDBRANCH   1   7
BRANCH   4  16
HETATM   16  C   UNL     1     -44.505 -52.945  13.208  1.00  0.00     0.108 A 
HETATM   17  C   UNL     1     -44.523 -54.318  13.011  1.00  0.00     0.049 A 
HETATM   18  C   UNL     1     -45.384 -55.095  13.787  1.00  0.00     0.005 A 
HETATM   19  C   UNL     1     -46.196 -54.482  14.732  1.00  0.00     0.017 A 
HETATM   20  C   UNL     1     -46.125 -53.111  14.857  1.00  0.00     0.089 A 
HETATM   21  N   UNL     1     -45.310 -52.335  14.110  1.00  0.00    -0.352 N 
ATOM     22  HN  UNL     1     -45.302 -51.321  14.222  1.00  0.00     0.166 HD
ENDBRANCH   4  16
TORSDOF 2
ENDMDL
