MODEL 1
REMARK VINA RESULT:      -6.6      0.000      0.000
REMARK  6 active torsions:
REMARK  status: ('A' for Active; 'I' for Inactive)
REMARK    1  A    between atoms: C_7  and  O_8 
REMARK    2  A    between atoms: O_8  and  C_9 
REMARK    3  A    between atoms: C_9  and  C_10 
REMARK    4  A    between atoms: C_10  and  O_11 
REMARK    5  A    between atoms: C_10  and  C_12 
REMARK    6  A    between atoms: C_12  and  N_13 
ROOT
HETATM    1  C   UNL     1     -41.889 -54.187  14.759  1.00  0.00     0.161 C 
ENDROOT
BRANCH   1   2
HETATM    2  C   UNL     1     -43.253 -54.862  14.997  1.00  0.00     0.209 C 
BRANCH   2   3
HETATM    3  O   UNL     1     -44.093 -54.587  13.869  1.00  0.00    -0.349 OA
BRANCH   3   4
HETATM    4  C   UNL     1     -44.969 -53.541  13.982  1.00  0.00     0.069 A 
HETATM    5  C   UNL     1     -45.301 -52.879  15.165  1.00  0.00     0.043 A 
HETATM    6  C   UNL     1     -46.218 -51.815  15.153  1.00  0.00    -0.059 A 
HETATM    7  C   UNL     1     -46.799 -51.417  13.943  1.00  0.00     0.013 A 
HETATM    8  C   UNL     1     -46.556 -51.119  16.439  1.00  0.00     0.048 C 
HETATM    9  C   UNL     1     -46.475 -52.071  12.749  1.00  0.00    -0.059 A 
HETATM   10  C   UNL     1     -47.090 -51.650  11.446  1.00  0.00     0.048 C 
HETATM   11  C   UNL     1     -45.559 -53.132  12.782  1.00  0.00     0.043 A 
ENDBRANCH   3   4
ENDBRANCH   2   3
ENDBRANCH   1   2
BRANCH   1  12
HETATM   12  O   UNL     1     -40.844 -54.898  15.446  1.00  0.00    -0.392 OA
HETATM   13  H   UNL     1     -40.968 -55.850  15.288  1.00  0.00     0.210 HD
ENDBRANCH   1  12
BRANCH   1  14
HETATM   14  C   UNL     1     -41.487 -54.111  13.277  1.00  0.00     0.166 C 
BRANCH  14  15
HETATM   15  N   UNL     1     -41.126 -52.779  12.819  1.00  0.00    -0.307 N 
HETATM   16  C   UNL     1     -42.058 -51.979  12.216  1.00  0.00     0.186 A 
HETATM   17  N   UNL     1     -41.838 -50.784  11.790  1.00  0.00    -0.355 N 
HETATM   18  C   UNL     1     -40.568 -50.280  11.932  1.00  0.00     0.017 A 
ATOM     19  HN  UNL     1     -42.581 -50.231  11.362  1.00  0.00     0.166 HD
HETATM   20  C   UNL     1     -40.384 -48.889  11.381  1.00  0.00     0.069 C 
HETATM   21  C   UNL     1     -39.553 -50.961  12.496  1.00  0.00     0.028 A 
HETATM   22  C   UNL     1     -38.134 -50.501  12.632  1.00  0.00     0.056 C 
HETATM   23  C   UNL     1     -39.849 -52.314  13.033  1.00  0.00     0.256 A 
HETATM   24  O   UNL     1     -38.979 -52.966  13.607  1.00  0.00    -0.267 OA
ENDBRANCH  14  15
ENDBRANCH   1  14
TORSDOF 6
ENDMDL
MODEL 2
REMARK VINA RESULT:      -6.5      1.960      4.043
REMARK  6 active torsions:
REMARK  status: ('A' for Active; 'I' for Inactive)
REMARK    1  A    between atoms: C_7  and  O_8 
REMARK    2  A    between atoms: O_8  and  C_9 
REMARK    3  A    between atoms: C_9  and  C_10 
REMARK    4  A    between atoms: C_10  and  O_11 
REMARK    5  A    between atoms: C_10  and  C_12 
REMARK    6  A    between atoms: C_12  and  N_13 
ROOT
HETATM    1  C   UNL     1     -40.866 -50.794  13.455  1.00  0.00     0.161 C 
ENDROOT
BRANCH   1   2
HETATM    2  C   UNL     1     -42.259 -50.272  13.058  1.00  0.00     0.209 C 
BRANCH   2   3
HETATM    3  O   UNL     1     -42.959 -49.900  14.253  1.00  0.00    -0.349 OA
BRANCH   3   4
HETATM    4  C   UNL     1     -44.200 -50.443  14.445  1.00  0.00     0.069 A 
HETATM    5  C   UNL     1     -44.828 -50.627  15.678  1.00  0.00     0.043 A 
HETATM    6  C   UNL     1     -46.110 -51.197  15.746  1.00  0.00    -0.059 A 
HETATM    7  C   UNL     1     -46.760 -51.581  14.566  1.00  0.00     0.013 A 
HETATM    8  C   UNL     1     -46.764 -51.381  17.084  1.00  0.00     0.048 C 
HETATM    9  C   UNL     1     -46.142 -51.403  13.323  1.00  0.00    -0.059 A 
HETATM   10  C   UNL     1     -46.831 -51.807  12.053  1.00  0.00     0.048 C 
HETATM   11  C   UNL     1     -44.862 -50.832  13.277  1.00  0.00     0.043 A 
ENDBRANCH   3   4
ENDBRANCH   2   3
ENDBRANCH   1   2
BRANCH   1  12
HETATM   12  O   UNL     1     -40.564 -50.448  14.819  1.00  0.00    -0.392 OA
HETATM   13  H   UNL     1     -41.301 -50.749  15.379  1.00  0.00     0.210 HD
ENDBRANCH   1  12
BRANCH   1  14
HETATM   14  C   UNL     1     -40.719 -52.319  13.331  1.00  0.00     0.166 C 
BRANCH  14  15
HETATM   15  N   UNL     1     -41.951 -53.062  13.543  1.00  0.00    -0.307 N 
HETATM   16  C   UNL     1     -42.692 -53.491  12.476  1.00  0.00     0.186 A 
HETATM   17  N   UNL     1     -43.785 -54.166  12.562  1.00  0.00    -0.355 N 
HETATM   18  C   UNL     1     -44.256 -54.459  13.819  1.00  0.00     0.017 A 
ATOM     19  HN  UNL     1     -44.285 -54.471  11.727  1.00  0.00     0.166 HD
HETATM   20  C   UNL     1     -45.556 -55.222  13.835  1.00  0.00     0.069 C 
HETATM   21  C   UNL     1     -43.635 -54.091  14.955  1.00  0.00     0.028 A 
HETATM   22  C   UNL     1     -44.117 -54.323  16.353  1.00  0.00     0.056 C 
HETATM   23  C   UNL     1     -42.344 -53.367  14.827  1.00  0.00     0.256 A 
HETATM   24  O   UNL     1     -41.701 -53.048  15.825  1.00  0.00    -0.267 OA
ENDBRANCH  14  15
ENDBRANCH   1  14
TORSDOF 6
ENDMDL
MODEL 3
REMARK VINA RESULT:      -6.4      0.199      1.849
REMARK  6 active torsions:
REMARK  status: ('A' for Active; 'I' for Inactive)
REMARK    1  A    between atoms: C_7  and  O_8 
REMARK    2  A    between atoms: O_8  and  C_9 
REMARK    3  A    between atoms: C_9  and  C_10 
REMARK    4  A    between atoms: C_10  and  O_11 
REMARK    5  A    between atoms: C_10  and  C_12 
REMARK    6  A    between atoms: C_12  and  N_13 
ROOT
HETATM    1  C   UNL     1     -41.803 -54.102  14.755  1.00  0.00     0.161 C 
ENDROOT
BRANCH   1   2
HETATM    2  C   UNL     1     -43.236 -54.637  14.936  1.00  0.00     0.209 C 
BRANCH   2   3
HETATM    3  O   UNL     1     -43.937 -54.472  13.697  1.00  0.00    -0.349 OA
BRANCH   3   4
HETATM    4  C   UNL     1     -44.875 -53.478  13.637  1.00  0.00     0.069 A 
HETATM    5  C   UNL     1     -45.550 -53.060  12.488  1.00  0.00     0.043 A 
HETATM    6  C   UNL     1     -46.495 -52.023  12.555  1.00  0.00    -0.059 A 
HETATM    7  C   UNL     1     -46.762 -51.409  13.785  1.00  0.00     0.013 A 
HETATM    8  C   UNL     1     -47.208 -51.595  11.306  1.00  0.00     0.048 C 
HETATM    9  C   UNL     1     -46.094 -51.818  14.944  1.00  0.00    -0.059 A 
HETATM   10  C   UNL     1     -46.375 -51.168  16.268  1.00  0.00     0.048 C 
HETATM   11  C   UNL     1     -45.153 -52.854  14.857  1.00  0.00     0.043 A 
ENDBRANCH   3   4
ENDBRANCH   2   3
ENDBRANCH   1   2
BRANCH   1  12
HETATM   12  O   UNL     1     -40.859 -54.928  15.459  1.00  0.00    -0.392 OA
HETATM   13  H   UNL     1     -40.038 -54.418  15.577  1.00  0.00     0.210 HD
ENDBRANCH   1  12
BRANCH   1  14
HETATM   14  C   UNL     1     -41.347 -54.041  13.288  1.00  0.00     0.166 C 
BRANCH  14  15
HETATM   15  N   UNL     1     -41.027 -52.705  12.812  1.00  0.00    -0.307 N 
HETATM   16  C   UNL     1     -41.987 -51.935  12.213  1.00  0.00     0.186 A 
HETATM   17  N   UNL     1     -41.804 -50.739  11.773  1.00  0.00    -0.355 N 
HETATM   18  C   UNL     1     -40.545 -50.201  11.893  1.00  0.00     0.017 A 
ATOM     19  HN  UNL     1     -42.566 -50.210  11.349  1.00  0.00     0.166 HD
HETATM   20  C   UNL     1     -40.405 -48.812  11.326  1.00  0.00     0.069 C 
HETATM   21  C   UNL     1     -39.506 -50.849  12.451  1.00  0.00     0.028 A 
HETATM   22  C   UNL     1     -38.098 -50.351  12.563  1.00  0.00     0.056 C 
HETATM   23  C   UNL     1     -39.759 -52.204  13.005  1.00  0.00     0.256 A 
HETATM   24  O   UNL     1     -38.865 -52.827  13.574  1.00  0.00    -0.267 OA
ENDBRANCH  14  15
ENDBRANCH   1  14
TORSDOF 6
ENDMDL
MODEL 4
REMARK VINA RESULT:      -6.2      3.159      5.258
REMARK  6 active torsions:
REMARK  status: ('A' for Active; 'I' for Inactive)
REMARK    1  A    between atoms: C_7  and  O_8 
REMARK    2  A    between atoms: O_8  and  C_9 
REMARK    3  A    between atoms: C_9  and  C_10 
REMARK    4  A    between atoms: C_10  and  O_11 
REMARK    5  A    between atoms: C_10  and  C_12 
REMARK    6  A    between atoms: C_12  and  N_13 
ROOT
HETATM    1  C   UNL     1     -45.944 -52.754  18.354  1.00  0.00     0.161 C 
ENDROOT
BRANCH   1   2
HETATM    2  C   UNL     1     -47.094 -52.041  17.619  1.00  0.00     0.209 C 
BRANCH   2   3
HETATM    3  O   UNL     1     -46.579 -50.832  17.044  1.00  0.00    -0.349 OA
BRANCH   3   4
HETATM    4  C   UNL     1     -46.050 -50.914  15.785  1.00  0.00     0.069 A 
HETATM    5  C   UNL     1     -46.732 -51.323  14.638  1.00  0.00     0.043 A 
HETATM    6  C   UNL     1     -46.077 -51.366  13.396  1.00  0.00    -0.059 A 
HETATM    7  C   UNL     1     -44.730 -50.993  13.312  1.00  0.00     0.013 A 
HETATM    8  C   UNL     1     -46.835 -51.807  12.178  1.00  0.00     0.048 C 
HETATM    9  C   UNL     1     -44.033 -50.580  14.454  1.00  0.00    -0.059 A 
HETATM   10  C   UNL     1     -42.590 -50.174  14.374  1.00  0.00     0.048 C 
HETATM   11  C   UNL     1     -44.705 -50.545  15.684  1.00  0.00     0.043 A 
ENDBRANCH   3   4
ENDBRANCH   2   3
ENDBRANCH   1   2
BRANCH   1  12
HETATM   12  O   UNL     1     -46.272 -52.950  19.741  1.00  0.00    -0.392 OA
HETATM   13  H   UNL     1     -46.217 -52.089  20.191  1.00  0.00     0.210 HD
ENDBRANCH   1  12
BRANCH   1  14
HETATM   14  C   UNL     1     -45.598 -54.133  17.770  1.00  0.00     0.166 C 
BRANCH  14  15
HETATM   15  N   UNL     1     -44.616 -54.104  16.698  1.00  0.00    -0.307 N 
HETATM   16  C   UNL     1     -43.309 -53.800  16.966  1.00  0.00     0.186 A 
HETATM   17  N   UNL     1     -42.366 -53.762  16.089  1.00  0.00    -0.355 N 
HETATM   18  C   UNL     1     -42.700 -54.027  14.782  1.00  0.00     0.017 A 
ATOM     19  HN  UNL     1     -41.406 -53.543  16.354  1.00  0.00     0.166 HD
HETATM   20  C   UNL     1     -41.549 -53.931  13.814  1.00  0.00     0.069 C 
HETATM   21  C   UNL     1     -43.947 -54.330  14.377  1.00  0.00     0.028 A 
HETATM   22  C   UNL     1     -44.395 -54.571  12.968  1.00  0.00     0.056 C 
HETATM   23  C   UNL     1     -45.003 -54.426  15.417  1.00  0.00     0.256 A 
HETATM   24  O   UNL     1     -46.151 -54.750  15.119  1.00  0.00    -0.267 OA
ENDBRANCH  14  15
ENDBRANCH   1  14
TORSDOF 6
ENDMDL
MODEL 5
REMARK VINA RESULT:      -6.1      2.370      4.808
REMARK  6 active torsions:
REMARK  status: ('A' for Active; 'I' for Inactive)
REMARK    1  A    between atoms: C_7  and  O_8 
REMARK    2  A    between atoms: O_8  and  C_9 
REMARK    3  A    between atoms: C_9  and  C_10 
REMARK    4  A    between atoms: C_10  and  O_11 
REMARK    5  A    between atoms: C_10  and  C_12 
REMARK    6  A    between atoms: C_12  and  N_13 
ROOT
HETATM    1  C   UNL     1     -45.701 -54.577  14.474  1.00  0.00     0.161 C 
ENDROOT
BRANCH   1   2
HETATM    2  C   UNL     1     -45.279 -54.176  15.900  1.00  0.00     0.209 C 
BRANCH   2   3
HETATM    3  O   UNL     1     -44.048 -54.843  16.209  1.00  0.00    -0.349 OA
BRANCH   3   4
HETATM    4  C   UNL     1     -42.887 -54.182  15.911  1.00  0.00     0.069 A 
HETATM    5  C   UNL     1     -41.916 -54.608  15.003  1.00  0.00     0.043 A 
HETATM    6  C   UNL     1     -40.762 -53.838  14.782  1.00  0.00    -0.059 A 
HETATM    7  C   UNL     1     -40.589 -52.635  15.477  1.00  0.00     0.013 A 
HETATM    8  C   UNL     1     -39.734 -54.318  13.799  1.00  0.00     0.048 C 
HETATM    9  C   UNL     1     -41.555 -52.196  16.390  1.00  0.00    -0.059 A 
HETATM   10  C   UNL     1     -41.381 -50.906  17.138  1.00  0.00     0.048 C 
HETATM   11  C   UNL     1     -42.700 -52.979  16.597  1.00  0.00     0.043 A 
ENDBRANCH   3   4
ENDBRANCH   2   3
ENDBRANCH   1   2
BRANCH   1  12
HETATM   12  O   UNL     1     -46.937 -55.313  14.498  1.00  0.00    -0.392 OA
HETATM   13  H   UNL     1     -47.476 -55.025  13.741  1.00  0.00     0.210 HD
ENDBRANCH   1  12
BRANCH   1  14
HETATM   14  C   UNL     1     -45.903 -53.380  13.530  1.00  0.00     0.166 C 
BRANCH  14  15
HETATM   15  N   UNL     1     -44.680 -52.679  13.176  1.00  0.00    -0.307 N 
HETATM   16  C   UNL     1     -43.806 -53.226  12.275  1.00  0.00     0.186 A 
HETATM   17  N   UNL     1     -42.707 -52.677  11.888  1.00  0.00    -0.355 N 
HETATM   18  C   UNL     1     -42.375 -51.461  12.436  1.00  0.00     0.017 A 
ATOM     19  HN  UNL     1     -42.105 -53.129  11.201  1.00  0.00     0.166 HD
HETATM   20  C   UNL     1     -41.060 -50.901  11.956  1.00  0.00     0.069 C 
HETATM   21  C   UNL     1     -43.135 -50.815  13.339  1.00  0.00     0.028 A 
HETATM   22  C   UNL     1     -42.810 -49.522  14.019  1.00  0.00     0.056 C 
HETATM   23  C   UNL     1     -44.426 -51.441  13.722  1.00  0.00     0.256 A 
HETATM   24  O   UNL     1     -45.191 -50.878  14.503  1.00  0.00    -0.267 OA
ENDBRANCH  14  15
ENDBRANCH   1  14
TORSDOF 6
ENDMDL
MODEL 6
REMARK VINA RESULT:      -6.0      2.295      5.201
REMARK  6 active torsions:
REMARK  status: ('A' for Active; 'I' for Inactive)
REMARK    1  A    between atoms: C_7  and  O_8 
REMARK    2  A    between atoms: O_8  and  C_9 
REMARK    3  A    between atoms: C_9  and  C_10 
REMARK    4  A    between atoms: C_10  and  O_11 
REMARK    5  A    between atoms: C_10  and  C_12 
REMARK    6  A    between atoms: C_12  and  N_13 
ROOT
HETATM    1  C   UNL     1     -40.561 -50.744  11.925  1.00  0.00     0.161 C 
ENDROOT
BRANCH   1   2
HETATM    2  C   UNL     1     -41.238 -52.115  11.738  1.00  0.00     0.209 C 
BRANCH   2   3
HETATM    3  O   UNL     1     -40.486 -53.090  12.474  1.00  0.00    -0.349 OA
BRANCH   3   4
HETATM    4  C   UNL     1     -41.144 -53.771  13.462  1.00  0.00     0.069 A 
HETATM    5  C   UNL     1     -40.567 -54.273  14.630  1.00  0.00     0.043 A 
HETATM    6  C   UNL     1     -41.351 -54.957  15.574  1.00  0.00    -0.059 A 
HETATM    7  C   UNL     1     -42.720 -55.133  15.339  1.00  0.00     0.013 A 
HETATM    8  C   UNL     1     -40.706 -55.484  16.823  1.00  0.00     0.048 C 
HETATM    9  C   UNL     1     -43.312 -54.635  14.172  1.00  0.00    -0.059 A 
HETATM   10  C   UNL     1     -44.779 -54.815  13.913  1.00  0.00     0.048 C 
HETATM   11  C   UNL     1     -42.512 -53.956  13.242  1.00  0.00     0.043 A 
ENDBRANCH   3   4
ENDBRANCH   2   3
ENDBRANCH   1   2
BRANCH   1  12
HETATM   12  O   UNL     1     -40.278 -50.140  10.650  1.00  0.00    -0.392 OA
HETATM   13  H   UNL     1     -40.396 -49.178  10.737  1.00  0.00     0.210 HD
ENDBRANCH   1  12
BRANCH   1  14
HETATM   14  C   UNL     1     -41.408 -49.741  12.724  1.00  0.00     0.166 C 
BRANCH  14  15
HETATM   15  N   UNL     1     -42.084 -50.309  13.880  1.00  0.00    -0.307 N 
HETATM   16  C   UNL     1     -41.370 -50.664  14.992  1.00  0.00     0.186 A 
HETATM   17  N   UNL     1     -41.879 -51.161  16.066  1.00  0.00    -0.355 N 
HETATM   18  C   UNL     1     -43.237 -51.370  16.091  1.00  0.00     0.017 A 
ATOM     19  HN  UNL     1     -41.294 -51.392  16.869  1.00  0.00     0.166 HD
HETATM   20  C   UNL     1     -43.749 -51.982  17.369  1.00  0.00     0.069 C 
HETATM   21  C   UNL     1     -44.057 -51.076  15.065  1.00  0.00     0.028 A 
HETATM   22  C   UNL     1     -45.531 -51.328  14.999  1.00  0.00     0.056 C 
HETATM   23  C   UNL     1     -43.453 -50.448  13.862  1.00  0.00     0.256 A 
HETATM   24  O   UNL     1     -44.155 -50.108  12.912  1.00  0.00    -0.267 OA
ENDBRANCH  14  15
ENDBRANCH   1  14
TORSDOF 6
ENDMDL
MODEL 7
REMARK VINA RESULT:      -6.0      2.435      6.193
REMARK  6 active torsions:
REMARK  status: ('A' for Active; 'I' for Inactive)
REMARK    1  A    between atoms: C_7  and  O_8 
REMARK    2  A    between atoms: O_8  and  C_9 
REMARK    3  A    between atoms: C_9  and  C_10 
REMARK    4  A    between atoms: C_10  and  O_11 
REMARK    5  A    between atoms: C_10  and  C_12 
REMARK    6  A    between atoms: C_12  and  N_13 
ROOT
HETATM    1  C   UNL     1     -39.058 -50.806  12.143  1.00  0.00     0.161 C 
ENDROOT
BRANCH   1   2
HETATM    2  C   UNL     1     -38.987 -49.350  12.639  1.00  0.00     0.209 C 
BRANCH   2   3
HETATM    3  O   UNL     1     -40.322 -48.903  12.913  1.00  0.00    -0.349 OA
BRANCH   3   4
HETATM    4  C   UNL     1     -40.901 -48.067  11.998  1.00  0.00     0.069 A 
HETATM    5  C   UNL     1     -42.180 -48.210  11.456  1.00  0.00     0.043 A 
HETATM    6  C   UNL     1     -42.665 -47.282  10.521  1.00  0.00    -0.059 A 
HETATM    7  C   UNL     1     -41.858 -46.204  10.134  1.00  0.00     0.013 A 
HETATM    8  C   UNL     1     -44.044 -47.458   9.955  1.00  0.00     0.048 C 
HETATM    9  C   UNL     1     -40.575 -46.048  10.669  1.00  0.00    -0.059 A 
HETATM   10  C   UNL     1     -39.704 -44.894  10.264  1.00  0.00     0.048 C 
HETATM   11  C   UNL     1     -40.108 -46.986  11.601  1.00  0.00     0.043 A 
ENDBRANCH   3   4
ENDBRANCH   2   3
ENDBRANCH   1   2
BRANCH   1  12
HETATM   12  O   UNL     1     -37.820 -51.193  11.521  1.00  0.00    -0.392 OA
HETATM   13  H   UNL     1     -37.978 -51.299  10.567  1.00  0.00     0.210 HD
ENDBRANCH   1  12
BRANCH   1  14
HETATM   14  C   UNL     1     -39.344 -51.826  13.257  1.00  0.00     0.166 C 
BRANCH  14  15
HETATM   15  N   UNL     1     -40.644 -52.471  13.164  1.00  0.00    -0.307 N 
HETATM   16  C   UNL     1     -41.497 -52.163  12.139  1.00  0.00     0.186 A 
HETATM   17  N   UNL     1     -42.659 -52.689  11.965  1.00  0.00    -0.355 N 
HETATM   18  C   UNL     1     -43.086 -53.615  12.888  1.00  0.00     0.017 A 
ATOM     19  HN  UNL     1     -43.243 -52.429  11.171  1.00  0.00     0.166 HD
HETATM   20  C   UNL     1     -44.467 -54.159  12.631  1.00  0.00     0.069 C 
HETATM   21  C   UNL     1     -42.354 -54.003  13.949  1.00  0.00     0.028 A 
HETATM   22  C   UNL     1     -42.775 -54.958  15.023  1.00  0.00     0.056 C 
HETATM   23  C   UNL     1     -40.994 -53.426  14.093  1.00  0.00     0.256 A 
HETATM   24  O   UNL     1     -40.255 -53.778  15.011  1.00  0.00    -0.267 OA
ENDBRANCH  14  15
ENDBRANCH   1  14
TORSDOF 6
ENDMDL
MODEL 8
REMARK VINA RESULT:      -5.9      1.869      6.794
REMARK  6 active torsions:
REMARK  status: ('A' for Active; 'I' for Inactive)
REMARK    1  A    between atoms: C_7  and  O_8 
REMARK    2  A    between atoms: O_8  and  C_9 
REMARK    3  A    between atoms: C_9  and  C_10 
REMARK    4  A    between atoms: C_10  and  O_11 
REMARK    5  A    between atoms: C_10  and  C_12 
REMARK    6  A    between atoms: C_12  and  N_13 
ROOT
HETATM    1  C   UNL     1     -40.881 -52.981  12.727  1.00  0.00     0.161 C 
ENDROOT
BRANCH   1   2
HETATM    2  C   UNL     1     -39.670 -52.789  13.659  1.00  0.00     0.209 C 
BRANCH   2   3
HETATM    3  O   UNL     1     -38.651 -52.089  12.934  1.00  0.00    -0.349 OA
BRANCH   3   4
HETATM    4  C   UNL     1     -38.576 -50.735  13.110  1.00  0.00     0.069 A 
HETATM    5  C   UNL     1     -39.240 -49.774  12.346  1.00  0.00     0.043 A 
HETATM    6  C   UNL     1     -39.083 -48.407  12.626  1.00  0.00    -0.059 A 
HETATM    7  C   UNL     1     -38.254 -48.009  13.682  1.00  0.00     0.013 A 
HETATM    8  C   UNL     1     -39.811 -47.395  11.791  1.00  0.00     0.048 C 
HETATM    9  C   UNL     1     -37.582 -48.961  14.457  1.00  0.00    -0.059 A 
HETATM   10  C   UNL     1     -36.694 -48.544  15.594  1.00  0.00     0.048 C 
HETATM   11  C   UNL     1     -37.751 -50.321  14.161  1.00  0.00     0.043 A 
ENDBRANCH   3   4
ENDBRANCH   2   3
ENDBRANCH   1   2
BRANCH   1  12
HETATM   12  O   UNL     1     -40.458 -53.454  11.436  1.00  0.00    -0.392 OA
HETATM   13  H   UNL     1     -40.006 -54.307  11.558  1.00  0.00     0.210 HD
ENDBRANCH   1  12
BRANCH   1  14
HETATM   14  C   UNL     1     -41.919 -53.982  13.260  1.00  0.00     0.166 C 
BRANCH  14  15
HETATM   15  N   UNL     1     -43.201 -53.392  13.610  1.00  0.00    -0.307 N 
HETATM   16  C   UNL     1     -43.512 -52.124  13.201  1.00  0.00     0.186 A 
HETATM   17  N   UNL     1     -44.624 -51.522  13.449  1.00  0.00    -0.355 N 
HETATM   18  C   UNL     1     -45.560 -52.194  14.197  1.00  0.00     0.017 A 
ATOM     19  HN  UNL     1     -44.803 -50.579  13.102  1.00  0.00     0.166 HD
HETATM   20  C   UNL     1     -46.818 -51.411  14.470  1.00  0.00     0.069 C 
HETATM   21  C   UNL     1     -45.382 -53.441  14.672  1.00  0.00     0.028 A 
HETATM   22  C   UNL     1     -46.329 -54.210  15.540  1.00  0.00     0.056 C 
HETATM   23  C   UNL     1     -44.116 -54.134  14.321  1.00  0.00     0.256 A 
HETATM   24  O   UNL     1     -43.914 -55.293  14.680  1.00  0.00    -0.267 OA
ENDBRANCH  14  15
ENDBRANCH   1  14
TORSDOF 6
ENDMDL
MODEL 9
REMARK VINA RESULT:      -5.9      1.933      4.466
REMARK  6 active torsions:
REMARK  status: ('A' for Active; 'I' for Inactive)
REMARK    1  A    between atoms: C_7  and  O_8 
REMARK    2  A    between atoms: O_8  and  C_9 
REMARK    3  A    between atoms: C_9  and  C_10 
REMARK    4  A    between atoms: C_10  and  O_11 
REMARK    5  A    between atoms: C_10  and  C_12 
REMARK    6  A    between atoms: C_12  and  N_13 
ROOT
HETATM    1  C   UNL     1     -40.944 -52.454  12.751  1.00  0.00     0.161 C 
ENDROOT
BRANCH   1   2
HETATM    2  C   UNL     1     -42.078 -51.509  12.311  1.00  0.00     0.209 C 
BRANCH   2   3
HETATM    3  O   UNL     1     -42.507 -50.759  13.455  1.00  0.00    -0.349 OA
BRANCH   3   4
HETATM    4  C   UNL     1     -43.811 -50.906  13.845  1.00  0.00     0.069 A 
HETATM    5  C   UNL     1     -44.294 -50.762  15.146  1.00  0.00     0.043 A 
HETATM    6  C   UNL     1     -45.660 -50.938  15.422  1.00  0.00    -0.059 A 
HETATM    7  C   UNL     1     -46.540 -51.258  14.381  1.00  0.00     0.013 A 
HETATM    8  C   UNL     1     -46.154 -50.775  16.830  1.00  0.00     0.048 C 
HETATM    9  C   UNL     1     -46.069 -51.405  13.071  1.00  0.00    -0.059 A 
HETATM   10  C   UNL     1     -47.005 -51.744  11.948  1.00  0.00     0.048 C 
HETATM   11  C   UNL     1     -44.702 -51.226  12.817  1.00  0.00     0.043 A 
ENDBRANCH   3   4
ENDBRANCH   2   3
ENDBRANCH   1   2
BRANCH   1  12
HETATM   12  O   UNL     1     -40.346 -51.994  13.977  1.00  0.00    -0.392 OA
HETATM   13  H   UNL     1     -39.570 -51.451  13.752  1.00  0.00     0.210 HD
ENDBRANCH   1  12
BRANCH   1  14
HETATM   14  C   UNL     1     -41.402 -53.902  12.986  1.00  0.00     0.166 C 
BRANCH  14  15
HETATM   15  N   UNL     1     -42.428 -54.052  14.005  1.00  0.00    -0.307 N 
HETATM   16  C   UNL     1     -42.121 -53.872  15.326  1.00  0.00     0.186 A 
HETATM   17  N   UNL     1     -42.961 -53.969  16.297  1.00  0.00    -0.355 N 
HETATM   18  C   UNL     1     -44.259 -54.299  15.987  1.00  0.00     0.017 A 
ATOM     19  HN  UNL     1     -42.674 -53.807  17.262  1.00  0.00     0.166 HD
HETATM   20  C   UNL     1     -45.172 -54.424  17.181  1.00  0.00     0.069 C 
HETATM   21  C   UNL     1     -44.696 -54.514  14.733  1.00  0.00     0.028 A 
HETATM   22  C   UNL     1     -46.075 -54.932  14.326  1.00  0.00     0.056 C 
HETATM   23  C   UNL     1     -43.721 -54.336  13.627  1.00  0.00     0.256 A 
HETATM   24  O   UNL     1     -44.069 -54.467  12.455  1.00  0.00    -0.267 OA
ENDBRANCH  14  15
ENDBRANCH   1  14
TORSDOF 6
ENDMDL
