MODEL 1
REMARK VINA RESULT:      -6.3      0.000      0.000
REMARK  4 active torsions:
REMARK  status: ('A' for Active; 'I' for Inactive)
REMARK    1  A    between atoms: C_7  and  C_9 
REMARK    2  A    between atoms: C_9  and  O_10 
REMARK    3  A    between atoms: C_9  and  C_11 
REMARK    4  A    between atoms: C_11  and  N_12 
ROOT
HETATM    1  C   UNL     1     -40.860 -52.750  12.478  1.00  0.00     0.169 C 
ENDROOT
BRANCH   1   2
HETATM    2  C   UNL     1     -41.714 -53.610  13.407  1.00  0.00    -0.027 A 
HETATM    3  C   UNL     1     -43.071 -53.879  13.155  1.00  0.00     0.016 A 
HETATM    4  C   UNL     1     -43.839 -54.669  14.025  1.00  0.00    -0.061 A 
HETATM    5  C   UNL     1     -43.236 -55.221  15.160  1.00  0.00     0.013 A 
HETATM    6  C   UNL     1     -45.289 -54.916  13.725  1.00  0.00     0.048 C 
HETATM    7  C   UNL     1     -41.880 -55.002  15.419  1.00  0.00    -0.061 A 
HETATM    8  C   UNL     1     -41.215 -55.617  16.616  1.00  0.00     0.048 C 
HETATM    9  C   UNL     1     -41.130 -54.204  14.540  1.00  0.00     0.016 A 
ENDBRANCH   1   2
BRANCH   1  10
HETATM   10  O   UNL     1     -40.599 -53.436  11.244  1.00  0.00    -0.389 OA
HETATM   11  H   UNL     1     -39.810 -53.034  10.846  1.00  0.00     0.210 HD
ENDBRANCH   1  10
BRANCH   1  12
HETATM   12  C   UNL     1     -41.523 -51.386  12.150  1.00  0.00     0.169 C 
BRANCH  12  13
HETATM   13  N   UNL     1     -40.716 -50.239  12.578  1.00  0.00    -0.307 N 
HETATM   14  C   UNL     1     -40.004 -50.298  13.743  1.00  0.00     0.186 A 
HETATM   15  N   UNL     1     -39.260 -49.354  14.209  1.00  0.00    -0.355 N 
HETATM   16  C   UNL     1     -39.210 -48.179  13.503  1.00  0.00     0.017 A 
ATOM     17  HN  UNL     1     -38.728 -49.476  15.070  1.00  0.00     0.166 HD
HETATM   18  C   UNL     1     -38.347 -47.116  14.134  1.00  0.00     0.069 C 
HETATM   19  C   UNL     1     -39.880 -47.969  12.353  1.00  0.00     0.028 A 
HETATM   20  C   UNL     1     -39.911 -46.696  11.566  1.00  0.00     0.056 C 
HETATM   21  C   UNL     1     -40.681 -49.102  11.804  1.00  0.00     0.256 A 
HETATM   22  O   UNL     1     -41.252 -48.996  10.721  1.00  0.00    -0.267 OA
ENDBRANCH  12  13
ENDBRANCH   1  12
TORSDOF 4
ENDMDL
MODEL 2
REMARK VINA RESULT:      -6.3      3.392      4.551
REMARK  4 active torsions:
REMARK  status: ('A' for Active; 'I' for Inactive)
REMARK    1  A    between atoms: C_7  and  C_9 
REMARK    2  A    between atoms: C_9  and  O_10 
REMARK    3  A    between atoms: C_9  and  C_11 
REMARK    4  A    between atoms: C_11  and  N_12 
ROOT
HETATM    1  C   UNL     1     -42.896 -50.650  14.675  1.00  0.00     0.169 C 
ENDROOT
BRANCH   1   2
HETATM    2  C   UNL     1     -44.383 -50.975  14.557  1.00  0.00    -0.027 A 
HETATM    3  C   UNL     1     -45.247 -50.982  15.666  1.00  0.00     0.016 A 
HETATM    4  C   UNL     1     -46.612 -51.288  15.534  1.00  0.00    -0.061 A 
HETATM    5  C   UNL     1     -47.130 -51.571  14.267  1.00  0.00     0.013 A 
HETATM    6  C   UNL     1     -47.494 -51.300  16.749  1.00  0.00     0.048 C 
HETATM    7  C   UNL     1     -46.304 -51.536  13.139  1.00  0.00    -0.061 A 
HETATM    8  C   UNL     1     -46.858 -51.806  11.771  1.00  0.00     0.048 C 
HETATM    9  C   UNL     1     -44.942 -51.234  13.292  1.00  0.00     0.016 A 
ENDBRANCH   1   2
BRANCH   1  10
HETATM   10  O   UNL     1     -42.533 -50.413  16.043  1.00  0.00    -0.389 OA
HETATM   11  H   UNL     1     -43.245 -50.767  16.601  1.00  0.00     0.210 HD
ENDBRANCH   1  10
BRANCH   1  12
HETATM   12  C   UNL     1     -41.991 -51.780  14.116  1.00  0.00     0.169 C 
BRANCH  12  13
HETATM   13  N   UNL     1     -40.783 -51.274  13.458  1.00  0.00    -0.307 N 
HETATM   14  C   UNL     1     -40.770 -51.077  12.106  1.00  0.00     0.186 A 
HETATM   15  N   UNL     1     -39.767 -50.631  11.428  1.00  0.00    -0.355 N 
HETATM   16  C   UNL     1     -38.605 -50.375  12.111  1.00  0.00     0.017 A 
ATOM     17  HN  UNL     1     -39.836 -50.475  10.423  1.00  0.00     0.166 HD
HETATM   18  C   UNL     1     -37.472 -49.892  11.241  1.00  0.00     0.069 C 
HETATM   19  C   UNL     1     -38.464 -50.550  13.439  1.00  0.00     0.028 A 
HETATM   20  C   UNL     1     -37.211 -50.341  14.232  1.00  0.00     0.056 C 
HETATM   21  C   UNL     1     -39.661 -51.003  14.206  1.00  0.00     0.256 A 
HETATM   22  O   UNL     1     -39.616 -51.107  15.430  1.00  0.00    -0.267 OA
ENDBRANCH  12  13
ENDBRANCH   1  12
TORSDOF 4
ENDMDL
MODEL 3
REMARK VINA RESULT:      -6.3      0.058      1.928
REMARK  4 active torsions:
REMARK  status: ('A' for Active; 'I' for Inactive)
REMARK    1  A    between atoms: C_7  and  C_9 
REMARK    2  A    between atoms: C_9  and  O_10 
REMARK    3  A    between atoms: C_9  and  C_11 
REMARK    4  A    between atoms: C_11  and  N_12 
ROOT
HETATM    1  C   UNL     1     -40.841 -52.721  12.464  1.00  0.00     0.169 C 
ENDROOT
BRANCH   1   2
HETATM    2  C   UNL     1     -41.649 -53.604  13.412  1.00  0.00    -0.027 A 
HETATM    3  C   UNL     1     -41.097 -54.168  14.575  1.00  0.00     0.016 A 
HETATM    4  C   UNL     1     -41.858 -54.981  15.432  1.00  0.00    -0.061 A 
HETATM    5  C   UNL     1     -43.203 -55.217  15.134  1.00  0.00     0.013 A 
HETATM    6  C   UNL     1     -41.222 -55.578  16.654  1.00  0.00     0.048 C 
HETATM    7  C   UNL     1     -43.792 -54.640  14.005  1.00  0.00    -0.061 A 
HETATM    8  C   UNL     1     -45.243 -54.860  13.695  1.00  0.00     0.048 C 
HETATM    9  C   UNL     1     -43.013 -53.835  13.158  1.00  0.00     0.016 A 
ENDBRANCH   1   2
BRANCH   1  10
HETATM   10  O   UNL     1     -40.608 -53.391  11.216  1.00  0.00    -0.389 OA
HETATM   11  H   UNL     1     -41.316 -53.127  10.605  1.00  0.00     0.210 HD
ENDBRANCH   1  10
BRANCH   1  12
HETATM   12  C   UNL     1     -41.538 -51.366  12.169  1.00  0.00     0.169 C 
BRANCH  12  13
HETATM   13  N   UNL     1     -40.743 -50.208  12.592  1.00  0.00    -0.307 N 
HETATM   14  C   UNL     1     -40.050 -50.245  13.769  1.00  0.00     0.186 A 
HETATM   15  N   UNL     1     -39.317 -49.291  14.231  1.00  0.00    -0.355 N 
HETATM   16  C   UNL     1     -39.261 -48.127  13.507  1.00  0.00     0.017 A 
ATOM     17  HN  UNL     1     -38.799 -49.397  15.103  1.00  0.00     0.166 HD
HETATM   18  C   UNL     1     -38.412 -47.050  14.134  1.00  0.00     0.069 C 
HETATM   19  C   UNL     1     -39.914 -47.939  12.344  1.00  0.00     0.028 A 
HETATM   20  C   UNL     1     -39.938 -46.679  11.535  1.00  0.00     0.056 C 
HETATM   21  C   UNL     1     -40.701 -49.084  11.800  1.00  0.00     0.256 A 
HETATM   22  O   UNL     1     -41.255 -48.999  10.706  1.00  0.00    -0.267 OA
ENDBRANCH  12  13
ENDBRANCH   1  12
TORSDOF 4
ENDMDL
MODEL 4
REMARK VINA RESULT:      -6.3      2.619      7.433
REMARK  4 active torsions:
REMARK  status: ('A' for Active; 'I' for Inactive)
REMARK    1  A    between atoms: C_7  and  C_9 
REMARK    2  A    between atoms: C_9  and  O_10 
REMARK    3  A    between atoms: C_9  and  C_11 
REMARK    4  A    between atoms: C_11  and  N_12 
ROOT
HETATM    1  C   UNL     1     -40.856 -49.606  11.024  1.00  0.00     0.169 C 
ENDROOT
BRANCH   1   2
HETATM    2  C   UNL     1     -41.271 -48.159  10.766  1.00  0.00    -0.027 A 
HETATM    3  C   UNL     1     -40.483 -47.064  11.161  1.00  0.00     0.016 A 
HETATM    4  C   UNL     1     -40.886 -45.741  10.917  1.00  0.00    -0.061 A 
HETATM    5  C   UNL     1     -42.090 -45.505  10.245  1.00  0.00     0.013 A 
HETATM    6  C   UNL     1     -40.021 -44.601  11.371  1.00  0.00     0.048 C 
HETATM    7  C   UNL     1     -42.878 -46.574   9.807  1.00  0.00    -0.061 A 
HETATM    8  C   UNL     1     -44.155 -46.333   9.056  1.00  0.00     0.048 C 
HETATM    9  C   UNL     1     -42.461 -47.889  10.066  1.00  0.00     0.016 A 
ENDBRANCH   1   2
BRANCH   1  10
HETATM   10  O   UNL     1     -39.475 -49.808  10.688  1.00  0.00    -0.389 OA
HETATM   11  H   UNL     1     -39.372 -50.735  10.417  1.00  0.00     0.210 HD
ENDBRANCH   1  10
BRANCH   1  12
HETATM   12  C   UNL     1     -41.068 -50.033  12.501  1.00  0.00     0.169 C 
BRANCH  12  13
HETATM   13  N   UNL     1     -42.126 -51.036  12.660  1.00  0.00    -0.307 N 
HETATM   14  C   UNL     1     -41.933 -52.314  12.214  1.00  0.00     0.186 A 
HETATM   15  N   UNL     1     -42.790 -53.272  12.309  1.00  0.00    -0.355 N 
HETATM   16  C   UNL     1     -44.010 -52.979  12.863  1.00  0.00     0.017 A 
ATOM     17  HN  UNL     1     -42.568 -54.213  11.985  1.00  0.00     0.166 HD
HETATM   18  C   UNL     1     -44.965 -54.145  12.904  1.00  0.00     0.069 C 
HETATM   19  C   UNL     1     -44.350 -51.758  13.319  1.00  0.00     0.028 A 
HETATM   20  C   UNL     1     -45.679 -51.361  13.882  1.00  0.00     0.056 C 
HETATM   21  C   UNL     1     -43.315 -50.685  13.257  1.00  0.00     0.256 A 
HETATM   22  O   UNL     1     -43.539 -49.572  13.728  1.00  0.00    -0.267 OA
ENDBRANCH  12  13
ENDBRANCH   1  12
TORSDOF 4
ENDMDL
MODEL 5
REMARK VINA RESULT:      -6.3      4.072      6.222
REMARK  4 active torsions:
REMARK  status: ('A' for Active; 'I' for Inactive)
REMARK    1  A    between atoms: C_7  and  C_9 
REMARK    2  A    between atoms: C_9  and  O_10 
REMARK    3  A    between atoms: C_9  and  C_11 
REMARK    4  A    between atoms: C_11  and  N_12 
ROOT
HETATM    1  C   UNL     1     -43.094 -53.709  13.493  1.00  0.00     0.169 C 
ENDROOT
BRANCH   1   2
HETATM    2  C   UNL     1     -44.391 -52.908  13.577  1.00  0.00    -0.027 A 
HETATM    3  C   UNL     1     -45.222 -52.694  12.464  1.00  0.00     0.016 A 
HETATM    4  C   UNL     1     -46.410 -51.950  12.563  1.00  0.00    -0.061 A 
HETATM    5  C   UNL     1     -46.787 -51.426  13.804  1.00  0.00     0.013 A 
HETATM    6  C   UNL     1     -47.258 -51.733  11.344  1.00  0.00     0.048 C 
HETATM    7  C   UNL     1     -46.000 -51.652  14.937  1.00  0.00    -0.061 A 
HETATM    8  C   UNL     1     -46.414 -51.123  16.279  1.00  0.00     0.048 C 
HETATM    9  C   UNL     1     -44.814 -52.394  14.816  1.00  0.00     0.016 A 
ENDBRANCH   1   2
BRANCH   1  10
HETATM   10  O   UNL     1     -42.525 -53.623  12.178  1.00  0.00    -0.389 OA
HETATM   11  H   UNL     1     -42.538 -54.515  11.793  1.00  0.00     0.210 HD
ENDBRANCH   1  10
BRANCH   1  12
HETATM   12  C   UNL     1     -42.031 -53.235  14.520  1.00  0.00     0.169 C 
BRANCH  12  13
HETATM   13  N   UNL     1     -41.410 -54.341  15.254  1.00  0.00    -0.307 N 
HETATM   14  C   UNL     1     -42.190 -55.252  15.910  1.00  0.00     0.186 A 
HETATM   15  N   UNL     1     -41.751 -56.264  16.578  1.00  0.00    -0.355 N 
HETATM   16  C   UNL     1     -40.391 -56.415  16.678  1.00  0.00     0.017 A 
ATOM     17  HN  UNL     1     -42.390 -56.925  17.017  1.00  0.00     0.166 HD
HETATM   18  C   UNL     1     -39.961 -57.600  17.505  1.00  0.00     0.069 C 
HETATM   19  C   UNL     1     -39.502 -55.579  16.107  1.00  0.00     0.028 A 
HETATM   20  C   UNL     1     -38.011 -55.658  16.223  1.00  0.00     0.056 C 
HETATM   21  C   UNL     1     -40.040 -54.457  15.285  1.00  0.00     0.256 A 
HETATM   22  O   UNL     1     -39.279 -53.706  14.677  1.00  0.00    -0.267 OA
ENDBRANCH  12  13
ENDBRANCH   1  12
TORSDOF 4
ENDMDL
MODEL 6
REMARK VINA RESULT:      -6.3      2.223      7.343
REMARK  4 active torsions:
REMARK  status: ('A' for Active; 'I' for Inactive)
REMARK    1  A    between atoms: C_7  and  C_9 
REMARK    2  A    between atoms: C_9  and  O_10 
REMARK    3  A    between atoms: C_9  and  C_11 
REMARK    4  A    between atoms: C_11  and  N_12 
ROOT
HETATM    1  C   UNL     1     -41.159 -49.562  11.152  1.00  0.00     0.169 C 
ENDROOT
BRANCH   1   2
HETATM    2  C   UNL     1     -41.452 -48.105  10.802  1.00  0.00    -0.027 A 
HETATM    3  C   UNL     1     -40.577 -47.056  11.135  1.00  0.00     0.016 A 
HETATM    4  C   UNL     1     -40.868 -45.722  10.807  1.00  0.00    -0.061 A 
HETATM    5  C   UNL     1     -42.047 -45.430  10.113  1.00  0.00     0.013 A 
HETATM    6  C   UNL     1     -39.912 -44.632  11.197  1.00  0.00     0.048 C 
HETATM    7  C   UNL     1     -42.920 -46.454   9.736  1.00  0.00    -0.061 A 
HETATM    8  C   UNL     1     -44.171 -46.155   8.963  1.00  0.00     0.048 C 
HETATM    9  C   UNL     1     -42.614 -47.781  10.079  1.00  0.00     0.016 A 
ENDBRANCH   1   2
BRANCH   1  10
HETATM   10  O   UNL     1     -40.096 -50.079  10.338  1.00  0.00    -0.389 OA
HETATM   11  H   UNL     1     -39.377 -49.426  10.345  1.00  0.00     0.210 HD
ENDBRANCH   1  10
BRANCH   1  12
HETATM   12  C   UNL     1     -40.771 -49.752  12.643  1.00  0.00     0.169 C 
BRANCH  12  13
HETATM   13  N   UNL     1     -41.124 -51.077  13.163  1.00  0.00    -0.307 N 
HETATM   14  C   UNL     1     -42.381 -51.311  13.647  1.00  0.00     0.186 A 
HETATM   15  N   UNL     1     -42.798 -52.436  14.119  1.00  0.00    -0.355 N 
HETATM   16  C   UNL     1     -41.899 -53.469  14.183  1.00  0.00     0.017 A 
ATOM     17  HN  UNL     1     -43.761 -52.552  14.434  1.00  0.00     0.166 HD
HETATM   18  C   UNL     1     -42.457 -54.736  14.780  1.00  0.00     0.069 C 
HETATM   19  C   UNL     1     -40.621 -53.375  13.768  1.00  0.00     0.028 A 
HETATM   20  C   UNL     1     -39.577 -54.445  13.861  1.00  0.00     0.056 C 
HETATM   21  C   UNL     1     -40.185 -52.082  13.165  1.00  0.00     0.256 A 
HETATM   22  O   UNL     1     -39.054 -51.959  12.699  1.00  0.00    -0.267 OA
ENDBRANCH  12  13
ENDBRANCH   1  12
TORSDOF 4
ENDMDL
MODEL 7
REMARK VINA RESULT:      -6.2      2.899      4.092
REMARK  4 active torsions:
REMARK  status: ('A' for Active; 'I' for Inactive)
REMARK    1  A    between atoms: C_7  and  C_9 
REMARK    2  A    between atoms: C_9  and  O_10 
REMARK    3  A    between atoms: C_9  and  C_11 
REMARK    4  A    between atoms: C_11  and  N_12 
ROOT
HETATM    1  C   UNL     1     -43.329 -54.072  14.729  1.00  0.00     0.169 C 
ENDROOT
BRANCH   1   2
HETATM    2  C   UNL     1     -44.533 -53.155  14.521  1.00  0.00    -0.027 A 
HETATM    3  C   UNL     1     -45.113 -52.943  13.259  1.00  0.00     0.016 A 
HETATM    4  C   UNL     1     -46.218 -52.092  13.089  1.00  0.00    -0.061 A 
HETATM    5  C   UNL     1     -46.769 -51.456  14.206  1.00  0.00     0.013 A 
HETATM    6  C   UNL     1     -46.795 -51.882  11.719  1.00  0.00     0.048 C 
HETATM    7  C   UNL     1     -46.237 -51.675  15.481  1.00  0.00    -0.061 A 
HETATM    8  C   UNL     1     -46.841 -51.023  16.690  1.00  0.00     0.048 C 
HETATM    9  C   UNL     1     -45.128 -52.524  15.628  1.00  0.00     0.016 A 
ENDBRANCH   1   2
BRANCH   1  10
HETATM   10  O   UNL     1     -43.750 -55.382  15.136  1.00  0.00    -0.389 OA
HETATM   11  H   UNL     1     -44.654 -55.305  15.484  1.00  0.00     0.210 HD
ENDBRANCH   1  10
BRANCH   1  12
HETATM   12  C   UNL     1     -42.458 -54.212  13.453  1.00  0.00     0.169 C 
BRANCH  12  13
HETATM   13  N   UNL     1     -41.281 -53.337  13.464  1.00  0.00    -0.307 N 
HETATM   14  C   UNL     1     -40.258 -53.575  14.339  1.00  0.00     0.186 A 
HETATM   15  N   UNL     1     -39.178 -52.876  14.429  1.00  0.00    -0.355 N 
HETATM   16  C   UNL     1     -39.063 -51.780  13.612  1.00  0.00     0.017 A 
ATOM     17  HN  UNL     1     -38.438 -53.129  15.083  1.00  0.00     0.166 HD
HETATM   18  C   UNL     1     -37.789 -50.998  13.806  1.00  0.00     0.069 C 
HETATM   19  C   UNL     1     -40.003 -51.409  12.722  1.00  0.00     0.028 A 
HETATM   20  C   UNL     1     -39.963 -50.197  11.843  1.00  0.00     0.056 C 
HETATM   21  C   UNL     1     -41.212 -52.275  12.593  1.00  0.00     0.256 A 
HETATM   22  O   UNL     1     -42.068 -52.031  11.745  1.00  0.00    -0.267 OA
ENDBRANCH  12  13
ENDBRANCH   1  12
TORSDOF 4
ENDMDL
MODEL 8
REMARK VINA RESULT:      -6.1      1.962      2.932
REMARK  4 active torsions:
REMARK  status: ('A' for Active; 'I' for Inactive)
REMARK    1  A    between atoms: C_7  and  C_9 
REMARK    2  A    between atoms: C_9  and  O_10 
REMARK    3  A    between atoms: C_9  and  C_11 
REMARK    4  A    between atoms: C_11  and  N_12 
ROOT
HETATM    1  C   UNL     1     -40.662 -52.701  12.468  1.00  0.00     0.169 C 
ENDROOT
BRANCH   1   2
HETATM    2  C   UNL     1     -40.678 -53.568  13.726  1.00  0.00    -0.027 A 
HETATM    3  C   UNL     1     -39.514 -54.150  14.257  1.00  0.00     0.016 A 
HETATM    4  C   UNL     1     -39.551 -54.947  15.413  1.00  0.00    -0.061 A 
HETATM    5  C   UNL     1     -40.772 -55.150  16.064  1.00  0.00     0.013 A 
HETATM    6  C   UNL     1     -38.286 -55.563  15.936  1.00  0.00     0.048 C 
HETATM    7  C   UNL     1     -41.942 -54.555  15.581  1.00  0.00    -0.061 A 
HETATM    8  C   UNL     1     -43.250 -54.740  16.291  1.00  0.00     0.048 C 
HETATM    9  C   UNL     1     -41.884 -53.767  14.421  1.00  0.00     0.016 A 
ENDBRANCH   1   2
BRANCH   1  10
HETATM   10  O   UNL     1     -40.564 -53.513  11.289  1.00  0.00    -0.389 OA
HETATM   11  H   UNL     1     -39.737 -53.275  10.837  1.00  0.00     0.210 HD
ENDBRANCH   1  10
BRANCH   1  12
HETATM   12  C   UNL     1     -41.925 -51.807  12.344  1.00  0.00     0.169 C 
BRANCH  12  13
HETATM   13  N   UNL     1     -41.610 -50.412  12.021  1.00  0.00    -0.307 N 
HETATM   14  C   UNL     1     -40.440 -50.102  11.386  1.00  0.00     0.186 A 
HETATM   15  N   UNL     1     -40.068 -48.914  11.050  1.00  0.00    -0.355 N 
HETATM   16  C   UNL     1     -40.889 -47.871  11.395  1.00  0.00     0.017 A 
ATOM     17  HN  UNL     1     -39.195 -48.756  10.547  1.00  0.00     0.166 HD
HETATM   18  C   UNL     1     -40.364 -46.515  10.999  1.00  0.00     0.069 C 
HETATM   19  C   UNL     1     -42.058 -48.024  12.047  1.00  0.00     0.028 A 
HETATM   20  C   UNL     1     -42.971 -46.927  12.500  1.00  0.00     0.056 C 
HETATM   21  C   UNL     1     -42.495 -49.415  12.364  1.00  0.00     0.256 A 
HETATM   22  O   UNL     1     -43.587 -49.624  12.888  1.00  0.00    -0.267 OA
ENDBRANCH  12  13
ENDBRANCH   1  12
TORSDOF 4
ENDMDL
MODEL 9
REMARK VINA RESULT:      -6.1      2.679      3.607
REMARK  4 active torsions:
REMARK  status: ('A' for Active; 'I' for Inactive)
REMARK    1  A    between atoms: C_7  and  C_9 
REMARK    2  A    between atoms: C_9  and  O_10 
REMARK    3  A    between atoms: C_9  and  C_11 
REMARK    4  A    between atoms: C_11  and  N_12 
ROOT
HETATM    1  C   UNL     1     -42.726 -52.620  13.632  1.00  0.00     0.169 C 
ENDROOT
BRANCH   1   2
HETATM    2  C   UNL     1     -44.188 -52.190  13.731  1.00  0.00    -0.027 A 
HETATM    3  C   UNL     1     -45.046 -52.161  12.618  1.00  0.00     0.016 A 
HETATM    4  C   UNL     1     -46.387 -51.759  12.731  1.00  0.00    -0.061 A 
HETATM    5  C   UNL     1     -46.889 -51.398  13.986  1.00  0.00     0.013 A 
HETATM    6  C   UNL     1     -47.262 -51.727  11.512  1.00  0.00     0.048 C 
HETATM    7  C   UNL     1     -46.071 -51.451  15.119  1.00  0.00    -0.061 A 
HETATM    8  C   UNL     1     -46.609 -51.098  16.474  1.00  0.00     0.048 C 
HETATM    9  C   UNL     1     -44.732 -51.850  14.983  1.00  0.00     0.016 A 
ENDBRANCH   1   2
BRANCH   1  10
HETATM   10  O   UNL     1     -42.592 -54.030  13.862  1.00  0.00    -0.389 OA
HETATM   11  H   UNL     1     -42.690 -54.182  14.816  1.00  0.00     0.210 HD
ENDBRANCH   1  10
BRANCH   1  12
HETATM   12  C   UNL     1     -42.098 -52.286  12.252  1.00  0.00     0.169 C 
BRANCH  12  13
HETATM   13  N   UNL     1     -41.380 -51.008  12.243  1.00  0.00    -0.307 N 
HETATM   14  C   UNL     1     -42.067 -49.837  12.087  1.00  0.00     0.186 A 
HETATM   15  N   UNL     1     -41.539 -48.660  12.072  1.00  0.00    -0.355 N 
HETATM   16  C   UNL     1     -40.174 -48.578  12.175  1.00  0.00     0.017 A 
ATOM     17  HN  UNL     1     -42.115 -47.824  11.985  1.00  0.00     0.166 HD
HETATM   18  C   UNL     1     -39.634 -47.171  12.112  1.00  0.00     0.069 C 
HETATM   19  C   UNL     1     -39.367 -49.649  12.305  1.00  0.00     0.028 A 
HETATM   20  C   UNL     1     -37.872 -49.630  12.367  1.00  0.00     0.056 C 
HETATM   21  C   UNL     1     -40.012 -50.992  12.387  1.00  0.00     0.256 A 
HETATM   22  O   UNL     1     -39.336 -52.000  12.583  1.00  0.00    -0.267 OA
ENDBRANCH  12  13
ENDBRANCH   1  12
TORSDOF 4
ENDMDL
