MODEL 1
REMARK VINA RESULT:      -7.6      0.000      0.000
REMARK  6 active torsions:
REMARK  status: ('A' for Active; 'I' for Inactive)
REMARK    1  A    between atoms: C_2  and  N_4 
REMARK    2  A    between atoms: N_3  and  C_15 
REMARK    3  A    between atoms: C_9  and  C_10 
REMARK    4  A    between atoms: C_15  and  C_18 
REMARK    5  A    between atoms: C_18  and  C_22 
REMARK    6  A    between atoms: C_18  and  O_26 
ROOT
HETATM    1  C   UNL     1     -40.177 -49.300  12.565  1.00  0.00     0.122 A 
HETATM    2  C   UNL     1     -39.365 -48.299  11.953  1.00  0.00     0.135 A 
HETATM    3  N   UNL     1     -40.582 -51.311  13.353  1.00  0.00    -0.325 N 
HETATM    4  C   UNL     1     -39.694 -50.603  12.580  1.00  0.00     0.140 A 
HETATM    5  N   UNL     1     -41.376 -49.235  13.256  1.00  0.00    -0.346 N 
ATOM      6  HN  UNL     1     -41.974 -48.418  13.377  1.00  0.00     0.167 HD
HETATM    7  C   UNL     1     -41.579 -50.447  13.723  1.00  0.00     0.185 A 
HETATM    8  N   UNL     1     -38.218 -48.758  11.357  1.00  0.00    -0.337 N 
ATOM      9  HN  UNL     1     -37.603 -48.106  10.870  1.00  0.00     0.168 HD
HETATM   10  N   UNL     1     -38.564 -51.063  12.022  1.00  0.00    -0.336 N 
ATOM     11  HN  UNL     1     -38.253 -52.034  12.055  1.00  0.00     0.168 HD
HETATM   12  C   UNL     1     -37.899 -50.069  11.413  1.00  0.00     0.183 A 
ENDROOT
BRANCH   2  13
HETATM   13  N   UNL     1     -39.624 -46.923  11.942  1.00  0.00    -0.360 N 
HETATM   14  C   UNL     1     -40.321 -46.310  10.788  1.00  0.00     0.092 C 
HETATM   15  C   UNL     1     -39.903 -44.820  10.727  1.00  0.00     0.026 C 
HETATM   16  C   UNL     1     -40.160 -44.084  12.039  1.00  0.00     0.004 C 
HETATM   17  C   UNL     1     -39.467 -44.800  13.190  1.00  0.00     0.020 C 
HETATM   18  C   UNL     1     -39.819 -46.288  13.251  1.00  0.00     0.125 C 
BRANCH  14  19
HETATM   19  C   UNL     1     -41.859 -46.478  10.858  1.00  0.00     0.035 C 
HETATM   20  C   UNL     1     -42.450 -47.639  10.039  1.00  0.00     0.111 C 
HETATM   21  C   UNL     1     -43.847 -47.171   9.731  1.00  0.00     0.218 C 
HETATM   22  N   UNL     1     -43.907 -45.816   9.975  1.00  0.00    -0.361 N 
HETATM   23  O   UNL     1     -44.755 -47.845   9.277  1.00  0.00    -0.274 OA
HETATM   24  C   UNL     1     -42.622 -45.277  10.300  1.00  0.00     0.129 C 
HETATM   25  H   UNL     1     -44.718 -45.287   9.679  1.00  0.00     0.162 HD
ENDBRANCH  14  19
ENDBRANCH   2  13
BRANCH   3  26
HETATM   26  C   UNL     1     -40.393 -52.651  13.883  1.00  0.00     0.165 C 
BRANCH  26  27
HETATM   27  C   UNL     1     -40.835 -53.775  12.933  1.00  0.00     0.165 C 
BRANCH  27  28
HETATM   28  C   UNL     1     -42.322 -54.147  13.068  1.00  0.00     0.151 C 
HETATM   29  O   UNL     1     -43.134 -53.217  12.318  1.00  0.00    -0.383 OA
HETATM   30  C   UNL     1     -44.431 -53.161  12.940  1.00  0.00     0.168 C 
HETATM   31  C   UNL     1     -44.395 -54.085  14.143  1.00  0.00     0.029 C 
HETATM   32  C   UNL     1     -42.919 -54.167  14.460  1.00  0.00     0.036 C 
ENDBRANCH  27  28
BRANCH  27  33
HETATM   33  O   UNL     1     -40.636 -53.361  11.567  1.00  0.00    -0.391 OA
HETATM   34  H   UNL     1     -40.813 -54.145  11.008  1.00  0.00     0.210 HD
ENDBRANCH  27  33
ENDBRANCH  26  27
ENDBRANCH   3  26
TORSDOF 6
ENDMDL
MODEL 2
REMARK VINA RESULT:      -7.2      1.761      2.111
REMARK  6 active torsions:
REMARK  status: ('A' for Active; 'I' for Inactive)
REMARK    1  A    between atoms: C_2  and  N_4 
REMARK    2  A    between atoms: N_3  and  C_15 
REMARK    3  A    between atoms: C_9  and  C_10 
REMARK    4  A    between atoms: C_15  and  C_18 
REMARK    5  A    between atoms: C_18  and  C_22 
REMARK    6  A    between atoms: C_18  and  O_26 
ROOT
HETATM    1  C   UNL     1     -41.086 -49.565  11.911  1.00  0.00     0.122 A 
HETATM    2  C   UNL     1     -40.429 -48.304  11.798  1.00  0.00     0.135 A 
HETATM    3  N   UNL     1     -41.150 -51.751  12.130  1.00  0.00    -0.325 N 
HETATM    4  C   UNL     1     -40.303 -50.711  11.836  1.00  0.00     0.140 A 
HETATM    5  N   UNL     1     -42.401 -49.912  12.174  1.00  0.00    -0.346 N 
ATOM      6  HN  UNL     1     -43.202 -49.284  12.246  1.00  0.00     0.167 HD
HETATM    7  C   UNL     1     -42.400 -51.220  12.312  1.00  0.00     0.185 A 
HETATM    8  N   UNL     1     -39.084 -48.366  11.532  1.00  0.00    -0.337 N 
ATOM      9  HN  UNL     1     -38.552 -47.505  11.404  1.00  0.00     0.168 HD
HETATM   10  N   UNL     1     -38.984 -50.786  11.599  1.00  0.00    -0.336 N 
ATOM     11  HN  UNL     1     -38.451 -51.655  11.548  1.00  0.00     0.168 HD
HETATM   12  C   UNL     1     -38.462 -49.560  11.439  1.00  0.00     0.183 A 
ENDROOT
BRANCH   2  13
HETATM   13  N   UNL     1     -41.025 -47.048  11.963  1.00  0.00    -0.360 N 
HETATM   14  C   UNL     1     -41.438 -46.263  10.779  1.00  0.00     0.092 C 
HETATM   15  C   UNL     1     -41.435 -44.768  11.184  1.00  0.00     0.026 C 
HETATM   16  C   UNL     1     -42.295 -44.491  12.413  1.00  0.00     0.004 C 
HETATM   17  C   UNL     1     -41.857 -45.374  13.574  1.00  0.00     0.020 C 
HETATM   18  C   UNL     1     -41.801 -46.855  13.194  1.00  0.00     0.125 C 
BRANCH  14  19
HETATM   19  C   UNL     1     -42.810 -46.706  10.213  1.00  0.00     0.035 C 
HETATM   20  C   UNL     1     -42.777 -47.828   9.161  1.00  0.00     0.111 C 
HETATM   21  C   UNL     1     -44.015 -47.575   8.344  1.00  0.00     0.218 C 
HETATM   22  N   UNL     1     -44.455 -46.299   8.620  1.00  0.00    -0.361 N 
HETATM   23  O   UNL     1     -44.511 -48.329   7.525  1.00  0.00    -0.274 OA
HETATM   24  C   UNL     1     -43.542 -45.592   9.465  1.00  0.00     0.129 C 
HETATM   25  H   UNL     1     -45.185 -45.885   8.053  1.00  0.00     0.162 HD
ENDBRANCH  14  19
ENDBRANCH   2  13
BRANCH   3  26
HETATM   26  C   UNL     1     -40.770 -53.122  12.429  1.00  0.00     0.165 C 
BRANCH  26  27
HETATM   27  C   UNL     1     -39.908 -53.278  13.691  1.00  0.00     0.165 C 
BRANCH  27  28
HETATM   28  C   UNL     1     -40.693 -53.786  14.914  1.00  0.00     0.151 C 
HETATM   29  O   UNL     1     -39.893 -54.737  15.652  1.00  0.00    -0.383 OA
HETATM   30  C   UNL     1     -40.790 -55.633  16.333  1.00  0.00     0.168 C 
HETATM   31  C   UNL     1     -42.204 -55.220  15.969  1.00  0.00     0.029 C 
HETATM   32  C   UNL     1     -42.013 -54.484  14.663  1.00  0.00     0.036 C 
ENDBRANCH  27  28
BRANCH  27  33
HETATM   33  O   UNL     1     -38.859 -54.236  13.446  1.00  0.00    -0.391 OA
HETATM   34  H   UNL     1     -38.976 -54.552  12.527  1.00  0.00     0.210 HD
ENDBRANCH  27  33
ENDBRANCH  26  27
ENDBRANCH   3  26
TORSDOF 6
ENDMDL
MODEL 3
REMARK VINA RESULT:      -7.0      1.107      2.011
REMARK  6 active torsions:
REMARK  status: ('A' for Active; 'I' for Inactive)
REMARK    1  A    between atoms: C_2  and  N_4 
REMARK    2  A    between atoms: N_3  and  C_15 
REMARK    3  A    between atoms: C_9  and  C_10 
REMARK    4  A    between atoms: C_15  and  C_18 
REMARK    5  A    between atoms: C_18  and  C_22 
REMARK    6  A    between atoms: C_18  and  O_26 
ROOT
HETATM    1  C   UNL     1     -40.423 -49.151  13.020  1.00  0.00     0.122 A 
HETATM    2  C   UNL     1     -41.268 -48.005  13.119  1.00  0.00     0.135 A 
HETATM    3  N   UNL     1     -39.940 -51.280  13.265  1.00  0.00    -0.325 N 
HETATM    4  C   UNL     1     -40.843 -50.319  13.647  1.00  0.00     0.140 A 
HETATM    5  N   UNL     1     -39.245 -49.385  12.330  1.00  0.00    -0.346 N 
ATOM      6  HN  UNL     1     -38.689 -48.706  11.810  1.00  0.00     0.167 HD
HETATM    7  C   UNL     1     -38.995 -50.667  12.486  1.00  0.00     0.185 A 
HETATM    8  N   UNL     1     -42.377 -48.161  13.910  1.00  0.00    -0.337 N 
ATOM      9  HN  UNL     1     -43.012 -47.376  14.055  1.00  0.00     0.168 HD
HETATM   10  N   UNL     1     -41.936 -50.493  14.405  1.00  0.00    -0.336 N 
ATOM     11  HN  UNL     1     -42.201 -51.372  14.850  1.00  0.00     0.168 HD
HETATM   12  C   UNL     1     -42.634 -49.350  14.497  1.00  0.00     0.183 A 
ENDROOT
BRANCH   2  13
HETATM   13  N   UNL     1     -41.075 -46.782  12.464  1.00  0.00    -0.360 N 
HETATM   14  C   UNL     1     -41.366 -46.662  11.018  1.00  0.00     0.092 C 
HETATM   15  C   UNL     1     -40.495 -45.509  10.460  1.00  0.00     0.026 C 
HETATM   16  C   UNL     1     -40.696 -44.201  11.219  1.00  0.00     0.004 C 
HETATM   17  C   UNL     1     -40.441 -44.410  12.706  1.00  0.00     0.020 C 
HETATM   18  C   UNL     1     -41.249 -45.575  13.281  1.00  0.00     0.125 C 
BRANCH  14  19
HETATM   19  C   UNL     1     -42.871 -46.446  10.724  1.00  0.00     0.035 C 
HETATM   20  C   UNL     1     -43.728 -47.718  10.616  1.00  0.00     0.111 C 
HETATM   21  C   UNL     1     -44.852 -47.304   9.704  1.00  0.00     0.218 C 
HETATM   22  N   UNL     1     -44.483 -46.135   9.076  1.00  0.00    -0.361 N 
HETATM   23  O   UNL     1     -45.882 -47.921   9.494  1.00  0.00    -0.274 OA
HETATM   24  C   UNL     1     -43.131 -45.773   9.377  1.00  0.00     0.129 C 
HETATM   25  H   UNL     1     -45.037 -45.779   8.307  1.00  0.00     0.162 HD
ENDBRANCH  14  19
ENDBRANCH   2  13
BRANCH   3  26
HETATM   26  C   UNL     1     -40.076 -52.717  13.443  1.00  0.00     0.165 C 
BRANCH  26  27
HETATM   27  C   UNL     1     -40.955 -53.404  12.387  1.00  0.00     0.165 C 
BRANCH  27  28
HETATM   28  C   UNL     1     -42.329 -53.846  12.923  1.00  0.00     0.151 C 
HETATM   29  O   UNL     1     -43.293 -52.785  12.745  1.00  0.00    -0.383 OA
HETATM   30  C   UNL     1     -44.300 -52.928  13.764  1.00  0.00     0.168 C 
HETATM   31  C   UNL     1     -43.913 -54.122  14.617  1.00  0.00     0.029 C 
HETATM   32  C   UNL     1     -42.423 -54.233  14.384  1.00  0.00     0.036 C 
ENDBRANCH  27  28
BRANCH  27  33
HETATM   33  O   UNL     1     -41.210 -52.493  11.300  1.00  0.00    -0.391 OA
HETATM   34  H   UNL     1     -41.536 -51.662  11.701  1.00  0.00     0.210 HD
ENDBRANCH  27  33
ENDBRANCH  26  27
ENDBRANCH   3  26
TORSDOF 6
ENDMDL
MODEL 4
REMARK VINA RESULT:      -6.8      1.293      1.635
REMARK  6 active torsions:
REMARK  status: ('A' for Active; 'I' for Inactive)
REMARK    1  A    between atoms: C_2  and  N_4 
REMARK    2  A    between atoms: N_3  and  C_15 
REMARK    3  A    between atoms: C_9  and  C_10 
REMARK    4  A    between atoms: C_15  and  C_18 
REMARK    5  A    between atoms: C_18  and  C_22 
REMARK    6  A    between atoms: C_18  and  O_26 
ROOT
HETATM    1  C   UNL     1     -40.376 -49.165  12.489  1.00  0.00     0.122 A 
HETATM    2  C   UNL     1     -39.360 -48.215  12.805  1.00  0.00     0.135 A 
HETATM    3  N   UNL     1     -41.120 -51.162  11.951  1.00  0.00    -0.325 N 
HETATM    4  C   UNL     1     -39.972 -50.411  12.022  1.00  0.00     0.140 A 
HETATM    5  N   UNL     1     -41.753 -49.140  12.628  1.00  0.00    -0.346 N 
ATOM      6  HN  UNL     1     -42.330 -48.349  12.916  1.00  0.00     0.167 HD
HETATM    7  C   UNL     1     -42.162 -50.350  12.313  1.00  0.00     0.185 A 
HETATM    8  N   UNL     1     -38.077 -48.612  12.524  1.00  0.00    -0.337 N 
ATOM      9  HN  UNL     1     -37.300 -47.974  12.692  1.00  0.00     0.168 HD
HETATM   10  N   UNL     1     -38.721 -50.821  11.763  1.00  0.00    -0.336 N 
ATOM     11  HN  UNL     1     -38.473 -51.748  11.415  1.00  0.00     0.168 HD
HETATM   12  C   UNL     1     -37.839 -49.844  12.026  1.00  0.00     0.183 A 
ENDROOT
BRANCH   2  13
HETATM   13  N   UNL     1     -39.562 -46.960  13.393  1.00  0.00    -0.360 N 
HETATM   14  C   UNL     1     -39.774 -45.769  12.541  1.00  0.00     0.092 C 
HETATM   15  C   UNL     1     -39.325 -44.528  13.351  1.00  0.00     0.026 C 
HETATM   16  C   UNL     1     -40.024 -44.425  14.703  1.00  0.00     0.004 C 
HETATM   17  C   UNL     1     -39.818 -45.705  15.502  1.00  0.00     0.020 C 
HETATM   18  C   UNL     1     -40.205 -46.957  14.713  1.00  0.00     0.125 C 
BRANCH  14  19
HETATM   19  C   UNL     1     -41.234 -45.638  12.043  1.00  0.00     0.035 C 
HETATM   20  C   UNL     1     -41.517 -46.169  10.627  1.00  0.00     0.111 C 
HETATM   21  C   UNL     1     -42.691 -45.344  10.174  1.00  0.00     0.218 C 
HETATM   22  N   UNL     1     -42.799 -44.258  11.015  1.00  0.00    -0.361 N 
HETATM   23  O   UNL     1     -43.388 -45.548   9.195  1.00  0.00    -0.274 OA
HETATM   24  C   UNL     1     -41.707 -44.189  11.938  1.00  0.00     0.129 C 
HETATM   25  H   UNL     1     -43.431 -43.502  10.782  1.00  0.00     0.162 HD
ENDBRANCH  14  19
ENDBRANCH   2  13
BRANCH   3  26
HETATM   26  C   UNL     1     -41.204 -52.601  11.763  1.00  0.00     0.165 C 
BRANCH  26  27
HETATM   27  C   UNL     1     -40.999 -53.419  13.047  1.00  0.00     0.165 C 
BRANCH  27  28
HETATM   28  C   UNL     1     -42.199 -54.315  13.404  1.00  0.00     0.151 C 
HETATM   29  O   UNL     1     -43.392 -53.824  12.754  1.00  0.00    -0.383 OA
HETATM   30  C   UNL     1     -44.524 -54.214  13.555  1.00  0.00     0.168 C 
HETATM   31  C   UNL     1     -43.986 -54.958  14.763  1.00  0.00     0.029 C 
HETATM   32  C   UNL     1     -42.566 -54.450  14.867  1.00  0.00     0.036 C 
ENDBRANCH  27  28
BRANCH  27  33
HETATM   33  O   UNL     1     -39.864 -54.294  12.889  1.00  0.00    -0.391 OA
HETATM   34  H   UNL     1     -39.491 -54.111  12.003  1.00  0.00     0.210 HD
ENDBRANCH  27  33
ENDBRANCH  26  27
ENDBRANCH   3  26
TORSDOF 6
ENDMDL
MODEL 5
REMARK VINA RESULT:      -6.7      2.560      7.843
REMARK  6 active torsions:
REMARK  status: ('A' for Active; 'I' for Inactive)
REMARK    1  A    between atoms: C_2  and  N_4 
REMARK    2  A    between atoms: N_3  and  C_15 
REMARK    3  A    between atoms: C_9  and  C_10 
REMARK    4  A    between atoms: C_15  and  C_18 
REMARK    5  A    between atoms: C_18  and  C_22 
REMARK    6  A    between atoms: C_18  and  O_26 
ROOT
HETATM    1  C   UNL     1     -42.499 -48.640  12.618  1.00  0.00     0.122 A 
HETATM    2  C   UNL     1     -43.005 -49.193  13.832  1.00  0.00     0.135 A 
HETATM    3  N   UNL     1     -41.150 -47.376  11.431  1.00  0.00    -0.325 N 
HETATM    4  C   UNL     1     -41.580 -47.602  12.715  1.00  0.00     0.140 A 
HETATM    5  N   UNL     1     -42.677 -48.987  11.289  1.00  0.00    -0.346 N 
ATOM      6  HN  UNL     1     -43.316 -49.688  10.915  1.00  0.00     0.167 HD
HETATM    7  C   UNL     1     -41.848 -48.223  10.612  1.00  0.00     0.185 A 
HETATM    8  N   UNL     1     -42.590 -48.568  14.980  1.00  0.00    -0.337 N 
ATOM      9  HN  UNL     1     -42.936 -48.885  15.885  1.00  0.00     0.168 HD
HETATM   10  N   UNL     1     -41.147 -46.995  13.831  1.00  0.00    -0.336 N 
ATOM     11  HN  UNL     1     -40.472 -46.230  13.852  1.00  0.00     0.168 HD
HETATM   12  C   UNL     1     -41.724 -47.533  14.917  1.00  0.00     0.183 A 
ENDROOT
BRANCH   2  13
HETATM   13  N   UNL     1     -43.843 -50.311  13.941  1.00  0.00    -0.360 N 
HETATM   14  C   UNL     1     -43.583 -51.513  13.118  1.00  0.00     0.092 C 
HETATM   15  C   UNL     1     -44.928 -52.261  12.945  1.00  0.00     0.026 C 
HETATM   16  C   UNL     1     -45.596 -52.584  14.278  1.00  0.00     0.004 C 
HETATM   17  C   UNL     1     -45.777 -51.314  15.099  1.00  0.00     0.020 C 
HETATM   18  C   UNL     1     -44.475 -50.522  15.248  1.00  0.00     0.125 C 
BRANCH  14  19
HETATM   19  C   UNL     1     -42.486 -52.426  13.717  1.00  0.00     0.035 C 
HETATM   20  C   UNL     1     -41.032 -51.981  13.483  1.00  0.00     0.111 C 
HETATM   21  C   UNL     1     -40.262 -53.273  13.520  1.00  0.00     0.218 C 
HETATM   22  N   UNL     1     -41.160 -54.309  13.389  1.00  0.00    -0.361 N 
HETATM   23  O   UNL     1     -39.051 -53.395  13.584  1.00  0.00    -0.274 OA
HETATM   24  C   UNL     1     -42.485 -53.835  13.125  1.00  0.00     0.129 C 
HETATM   25  H   UNL     1     -40.822 -55.251  13.234  1.00  0.00     0.162 HD
ENDBRANCH  14  19
ENDBRANCH   2  13
BRANCH   3  26
HETATM   26  C   UNL     1     -40.010 -46.569  11.028  1.00  0.00     0.165 C 
BRANCH  26  27
HETATM   27  C   UNL     1     -40.377 -45.172  10.506  1.00  0.00     0.165 C 
BRANCH  27  28
HETATM   28  C   UNL     1     -39.922 -44.029  11.432  1.00  0.00     0.151 C 
HETATM   29  O   UNL     1     -39.936 -44.474  12.807  1.00  0.00    -0.383 OA
HETATM   30  C   UNL     1     -40.151 -43.320  13.641  1.00  0.00     0.168 C 
HETATM   31  C   UNL     1     -40.299 -42.121  12.724  1.00  0.00     0.029 C 
HETATM   32  C   UNL     1     -40.728 -42.748  11.417  1.00  0.00     0.036 C 
ENDBRANCH  27  28
BRANCH  27  33
HETATM   33  O   UNL     1     -39.741 -44.947   9.231  1.00  0.00    -0.391 OA
HETATM   34  H   UNL     1     -39.790 -45.793   8.741  1.00  0.00     0.210 HD
ENDBRANCH  27  33
ENDBRANCH  26  27
ENDBRANCH   3  26
TORSDOF 6
ENDMDL
MODEL 6
REMARK VINA RESULT:      -6.6      2.360      3.820
REMARK  6 active torsions:
REMARK  status: ('A' for Active; 'I' for Inactive)
REMARK    1  A    between atoms: C_2  and  N_4 
REMARK    2  A    between atoms: N_3  and  C_15 
REMARK    3  A    between atoms: C_9  and  C_10 
REMARK    4  A    between atoms: C_15  and  C_18 
REMARK    5  A    between atoms: C_18  and  C_22 
REMARK    6  A    between atoms: C_18  and  O_26 
ROOT
HETATM    1  C   UNL     1     -42.481 -51.194  13.087  1.00  0.00     0.122 A 
HETATM    2  C   UNL     1     -41.062 -51.050  13.140  1.00  0.00     0.135 A 
HETATM    3  N   UNL     1     -44.349 -52.343  12.951  1.00  0.00    -0.325 N 
HETATM    4  C   UNL     1     -42.991 -52.451  12.780  1.00  0.00     0.140 A 
HETATM    5  N   UNL     1     -43.518 -50.322  13.369  1.00  0.00    -0.346 N 
ATOM      6  HN  UNL     1     -43.447 -49.329  13.590  1.00  0.00     0.167 HD
HETATM    7  C   UNL     1     -44.615 -51.043  13.292  1.00  0.00     0.185 A 
HETATM    8  N   UNL     1     -40.346 -52.165  12.788  1.00  0.00    -0.337 N 
ATOM      9  HN  UNL     1     -39.327 -52.129  12.769  1.00  0.00     0.168 HD
HETATM   10  N   UNL     1     -42.302 -53.556  12.455  1.00  0.00    -0.336 N 
ATOM     11  HN  UNL     1     -42.723 -54.458  12.232  1.00  0.00     0.168 HD
HETATM   12  C   UNL     1     -40.982 -53.311  12.465  1.00  0.00     0.183 A 
ENDROOT
BRANCH   2  13
HETATM   13  N   UNL     1     -40.367 -49.903  13.543  1.00  0.00    -0.360 N 
HETATM   14  C   UNL     1     -39.785 -48.995  12.528  1.00  0.00     0.092 C 
HETATM   15  C   UNL     1     -38.598 -48.254  13.190  1.00  0.00     0.026 C 
HETATM   16  C   UNL     1     -38.997 -47.534  14.475  1.00  0.00     0.004 C 
HETATM   17  C   UNL     1     -39.644 -48.511  15.448  1.00  0.00     0.020 C 
HETATM   18  C   UNL     1     -40.791 -49.298  14.811  1.00  0.00     0.125 C 
BRANCH  14  19
HETATM   19  C   UNL     1     -40.824 -48.012  11.935  1.00  0.00     0.035 C 
HETATM   20  C   UNL     1     -41.743 -48.578  10.839  1.00  0.00     0.111 C 
HETATM   21  C   UNL     1     -42.100 -47.365  10.024  1.00  0.00     0.218 C 
HETATM   22  N   UNL     1     -41.218 -46.358  10.348  1.00  0.00    -0.361 N 
HETATM   23  O   UNL     1     -42.969 -47.293   9.172  1.00  0.00    -0.274 OA
HETATM   24  C   UNL     1     -40.187 -46.817  11.228  1.00  0.00     0.129 C 
HETATM   25  H   UNL     1     -41.195 -45.511   9.794  1.00  0.00     0.162 HD
ENDBRANCH  14  19
ENDBRANCH   2  13
BRANCH   3  26
HETATM   26  C   UNL     1     -45.306 -53.436  13.001  1.00  0.00     0.165 C 
BRANCH  26  27
HETATM   27  C   UNL     1     -45.229 -54.287  14.278  1.00  0.00     0.165 C 
BRANCH  27  28
HETATM   28  C   UNL     1     -46.039 -53.709  15.453  1.00  0.00     0.151 C 
HETATM   29  O   UNL     1     -47.095 -52.859  14.953  1.00  0.00    -0.383 OA
HETATM   30  C   UNL     1     -47.387 -51.878  15.965  1.00  0.00     0.168 C 
HETATM   31  C   UNL     1     -46.444 -52.132  17.126  1.00  0.00     0.029 C 
HETATM   32  C   UNL     1     -45.298 -52.871  16.474  1.00  0.00     0.036 C 
ENDBRANCH  27  28
BRANCH  27  33
HETATM   33  O   UNL     1     -45.759 -55.602  14.018  1.00  0.00    -0.391 OA
HETATM   34  H   UNL     1     -45.140 -56.036  13.397  1.00  0.00     0.210 HD
ENDBRANCH  27  33
ENDBRANCH  26  27
ENDBRANCH   3  26
TORSDOF 6
ENDMDL
MODEL 7
REMARK VINA RESULT:      -6.4      2.567      7.359
REMARK  6 active torsions:
REMARK  status: ('A' for Active; 'I' for Inactive)
REMARK    1  A    between atoms: C_2  and  N_4 
REMARK    2  A    between atoms: N_3  and  C_15 
REMARK    3  A    between atoms: C_9  and  C_10 
REMARK    4  A    between atoms: C_15  and  C_18 
REMARK    5  A    between atoms: C_18  and  C_22 
REMARK    6  A    between atoms: C_18  and  O_26 
ROOT
HETATM    1  C   UNL     1     -43.288 -49.153  13.162  1.00  0.00     0.122 A 
HETATM    2  C   UNL     1     -43.631 -50.095  14.177  1.00  0.00     0.135 A 
HETATM    3  N   UNL     1     -42.370 -47.305  12.406  1.00  0.00    -0.325 N 
HETATM    4  C   UNL     1     -42.745 -47.938  13.565  1.00  0.00     0.140 A 
HETATM    5  N   UNL     1     -43.307 -49.223  11.779  1.00  0.00    -0.346 N 
ATOM      6  HN  UNL     1     -43.681 -49.978  11.205  1.00  0.00     0.167 HD
HETATM    7  C   UNL     1     -42.740 -48.112  11.363  1.00  0.00     0.185 A 
HETATM    8  N   UNL     1     -43.468 -49.654  15.466  1.00  0.00    -0.337 N 
ATOM      9  HN  UNL     1     -43.724 -50.260  16.245  1.00  0.00     0.168 HD
HETATM   10  N   UNL     1     -42.559 -47.502  14.821  1.00  0.00    -0.336 N 
ATOM     11  HN  UNL     1     -42.160 -46.596  15.068  1.00  0.00     0.168 HD
HETATM   12  C   UNL     1     -42.970 -48.423  15.707  1.00  0.00     0.183 A 
ENDROOT
BRANCH   2  13
HETATM   13  N   UNL     1     -44.077 -51.406  13.966  1.00  0.00    -0.360 N 
HETATM   14  C   UNL     1     -43.367 -52.285  13.009  1.00  0.00     0.092 C 
HETATM   15  C   UNL     1     -44.381 -53.340  12.504  1.00  0.00     0.026 C 
HETATM   16  C   UNL     1     -45.043 -54.111  13.642  1.00  0.00     0.004 C 
HETATM   17  C   UNL     1     -45.700 -53.145  14.621  1.00  0.00     0.020 C 
HETATM   18  C   UNL     1     -44.739 -52.057  15.103  1.00  0.00     0.125 C 
BRANCH  14  19
HETATM   19  C   UNL     1     -42.103 -52.940  13.619  1.00  0.00     0.035 C 
HETATM   20  C   UNL     1     -40.828 -52.080  13.618  1.00  0.00     0.111 C 
HETATM   21  C   UNL     1     -39.721 -53.099  13.588  1.00  0.00     0.218 C 
HETATM   22  N   UNL     1     -40.266 -54.311  13.222  1.00  0.00    -0.361 N 
HETATM   23  O   UNL     1     -38.536 -52.891  13.781  1.00  0.00    -0.274 OA
HETATM   24  C   UNL     1     -41.646 -54.186  12.862  1.00  0.00     0.129 C 
HETATM   25  H   UNL     1     -39.659 -55.087  12.994  1.00  0.00     0.162 HD
ENDBRANCH  14  19
ENDBRANCH   2  13
BRANCH   3  26
HETATM   26  C   UNL     1     -41.529 -46.124  12.296  1.00  0.00     0.165 C 
BRANCH  26  27
HETATM   27  C   UNL     1     -40.051 -46.425  12.006  1.00  0.00     0.165 C 
BRANCH  27  28
HETATM   28  C   UNL     1     -39.516 -47.660  12.752  1.00  0.00     0.151 C 
HETATM   29  O   UNL     1     -38.559 -47.254  13.756  1.00  0.00    -0.383 OA
HETATM   30  C   UNL     1     -37.644 -48.346  13.962  1.00  0.00     0.168 C 
HETATM   31  C   UNL     1     -38.052 -49.461  13.017  1.00  0.00     0.029 C 
HETATM   32  C   UNL     1     -38.813 -48.725  11.937  1.00  0.00     0.036 C 
ENDBRANCH  27  28
BRANCH  27  33
HETATM   33  O   UNL     1     -39.876 -46.685  10.599  1.00  0.00    -0.391 OA
HETATM   34  H   UNL     1     -40.552 -46.156  10.129  1.00  0.00     0.210 HD
ENDBRANCH  27  33
ENDBRANCH  26  27
ENDBRANCH   3  26
TORSDOF 6
ENDMDL
MODEL 8
REMARK VINA RESULT:      -6.3      2.911      4.794
REMARK  6 active torsions:
REMARK  status: ('A' for Active; 'I' for Inactive)
REMARK    1  A    between atoms: C_2  and  N_4 
REMARK    2  A    between atoms: N_3  and  C_15 
REMARK    3  A    between atoms: C_9  and  C_10 
REMARK    4  A    between atoms: C_15  and  C_18 
REMARK    5  A    between atoms: C_18  and  C_22 
REMARK    6  A    between atoms: C_18  and  O_26 
ROOT
HETATM    1  C   UNL     1     -40.741 -49.161  13.061  1.00  0.00     0.122 A 
HETATM    2  C   UNL     1     -39.678 -48.227  13.238  1.00  0.00     0.135 A 
HETATM    3  N   UNL     1     -41.627 -51.036  12.334  1.00  0.00    -0.325 N 
HETATM    4  C   UNL     1     -40.526 -50.227  12.195  1.00  0.00     0.140 A 
HETATM    5  N   UNL     1     -41.983 -49.286  13.660  1.00  0.00    -0.346 N 
ATOM      6  HN  UNL     1     -42.423 -48.634  14.310  1.00  0.00     0.167 HD
HETATM    7  C   UNL     1     -42.477 -50.421  13.215  1.00  0.00     0.185 A 
HETATM    8  N   UNL     1     -38.574 -48.438  12.451  1.00  0.00    -0.337 N 
ATOM      9  HN  UNL     1     -37.786 -47.792  12.498  1.00  0.00     0.168 HD
HETATM   10  N   UNL     1     -39.444 -50.459  11.436  1.00  0.00    -0.336 N 
ATOM     11  HN  UNL     1     -39.335 -51.257  10.808  1.00  0.00     0.168 HD
HETATM   12  C   UNL     1     -38.525 -49.497  11.616  1.00  0.00     0.183 A 
ENDROOT
BRANCH   2  13
HETATM   13  N   UNL     1     -39.661 -47.163  14.148  1.00  0.00    -0.360 N 
HETATM   14  C   UNL     1     -39.277 -47.400  15.558  1.00  0.00     0.092 C 
HETATM   15  C   UNL     1     -39.946 -46.298  16.416  1.00  0.00     0.026 C 
HETATM   16  C   UNL     1     -39.606 -44.891  15.934  1.00  0.00     0.004 C 
HETATM   17  C   UNL     1     -39.968 -44.734  14.463  1.00  0.00     0.020 C 
HETATM   18  C   UNL     1     -39.364 -45.837  13.591  1.00  0.00     0.125 C 
BRANCH  14  19
HETATM   19  C   UNL     1     -37.743 -47.443  15.764  1.00  0.00     0.035 C 
HETATM   20  C   UNL     1     -37.059 -48.790  15.473  1.00  0.00     0.111 C 
HETATM   21  C   UNL     1     -35.842 -48.761  16.357  1.00  0.00     0.218 C 
HETATM   22  N   UNL     1     -36.016 -47.762  17.289  1.00  0.00    -0.361 N 
HETATM   23  O   UNL     1     -34.894 -49.526  16.313  1.00  0.00    -0.274 OA
HETATM   24  C   UNL     1     -37.322 -47.180  17.209  1.00  0.00     0.129 C 
HETATM   25  H   UNL     1     -35.377 -47.687  18.071  1.00  0.00     0.162 HD
ENDBRANCH  14  19
ENDBRANCH   2  13
BRANCH   3  26
HETATM   26  C   UNL     1     -41.773 -52.395  11.839  1.00  0.00     0.165 C 
BRANCH  26  27
HETATM   27  C   UNL     1     -41.416 -53.483  12.863  1.00  0.00     0.165 C 
BRANCH  27  28
HETATM   28  C   UNL     1     -42.632 -54.288  13.356  1.00  0.00     0.151 C 
HETATM   29  O   UNL     1     -43.799 -53.948  12.574  1.00  0.00    -0.383 OA
HETATM   30  C   UNL     1     -44.960 -54.165  13.396  1.00  0.00     0.168 C 
HETATM   31  C   UNL     1     -44.471 -54.637  14.753  1.00  0.00     0.029 C 
HETATM   32  C   UNL     1     -43.054 -54.113  14.800  1.00  0.00     0.036 C 
ENDBRANCH  27  28
BRANCH  27  33
HETATM   33  O   UNL     1     -40.508 -54.431  12.268  1.00  0.00    -0.391 OA
HETATM   34  H   UNL     1     -40.324 -54.111  11.361  1.00  0.00     0.210 HD
ENDBRANCH  27  33
ENDBRANCH  26  27
ENDBRANCH   3  26
TORSDOF 6
ENDMDL
MODEL 9
REMARK VINA RESULT:      -6.3      2.235      3.499
REMARK  6 active torsions:
REMARK  status: ('A' for Active; 'I' for Inactive)
REMARK    1  A    between atoms: C_2  and  N_4 
REMARK    2  A    between atoms: N_3  and  C_15 
REMARK    3  A    between atoms: C_9  and  C_10 
REMARK    4  A    between atoms: C_15  and  C_18 
REMARK    5  A    between atoms: C_18  and  C_22 
REMARK    6  A    between atoms: C_18  and  O_26 
ROOT
HETATM    1  C   UNL     1     -40.737 -49.347  12.654  1.00  0.00     0.122 A 
HETATM    2  C   UNL     1     -40.119 -48.228  12.021  1.00  0.00     0.135 A 
HETATM    3  N   UNL     1     -40.784 -51.398  13.442  1.00  0.00    -0.325 N 
HETATM    4  C   UNL     1     -40.050 -50.556  12.643  1.00  0.00     0.140 A 
HETATM    5  N   UNL     1     -41.905 -49.477  13.387  1.00  0.00    -0.346 N 
ATOM      6  HN  UNL     1     -42.623 -48.768  13.535  1.00  0.00     0.167 HD
HETATM    7  C   UNL     1     -41.893 -50.707  13.853  1.00  0.00     0.185 A 
HETATM    8  N   UNL     1     -38.935 -48.496  11.382  1.00  0.00    -0.337 N 
ATOM      9  HN  UNL     1     -38.451 -47.753  10.878  1.00  0.00     0.168 HD
HETATM   10  N   UNL     1     -38.881 -50.827  12.042  1.00  0.00    -0.336 N 
ATOM     11  HN  UNL     1     -38.416 -51.735  12.058  1.00  0.00     0.168 HD
HETATM   12  C   UNL     1     -38.407 -49.737  11.417  1.00  0.00     0.183 A 
ENDROOT
BRANCH   2  13
HETATM   13  N   UNL     1     -40.597 -46.912  12.028  1.00  0.00    -0.360 N 
HETATM   14  C   UNL     1     -41.127 -46.323  13.279  1.00  0.00     0.092 C 
HETATM   15  C   UNL     1     -42.126 -45.208  12.884  1.00  0.00     0.026 C 
HETATM   16  C   UNL     1     -41.510 -44.170  11.951  1.00  0.00     0.004 C 
HETATM   17  C   UNL     1     -40.930 -44.848  10.716  1.00  0.00     0.020 C 
HETATM   18  C   UNL     1     -39.975 -45.990  11.070  1.00  0.00     0.125 C 
BRANCH  14  19
HETATM   19  C   UNL     1     -40.011 -45.796  14.214  1.00  0.00     0.035 C 
HETATM   20  C   UNL     1     -39.280 -46.855  15.058  1.00  0.00     0.111 C 
HETATM   21  C   UNL     1     -38.821 -46.082  16.265  1.00  0.00     0.218 C 
HETATM   22  N   UNL     1     -39.518 -44.894  16.301  1.00  0.00    -0.361 N 
HETATM   23  O   UNL     1     -38.027 -46.458  17.109  1.00  0.00    -0.274 OA
HETATM   24  C   UNL     1     -40.527 -44.838  15.287  1.00  0.00     0.129 C 
HETATM   25  H   UNL     1     -39.466 -44.305  17.122  1.00  0.00     0.162 HD
ENDBRANCH  14  19
ENDBRANCH   2  13
BRANCH   3  26
HETATM   26  C   UNL     1     -40.363 -52.691  13.956  1.00  0.00     0.165 C 
BRANCH  26  27
HETATM   27  C   UNL     1     -40.698 -53.876  13.038  1.00  0.00     0.165 C 
BRANCH  27  28
HETATM   28  C   UNL     1     -42.119 -54.432  13.243  1.00  0.00     0.151 C 
HETATM   29  O   UNL     1     -43.072 -53.632  12.509  1.00  0.00    -0.383 OA
HETATM   30  C   UNL     1     -44.340 -53.727  13.185  1.00  0.00     0.168 C 
HETATM   31  C   UNL     1     -44.138 -54.608  14.403  1.00  0.00     0.029 C 
HETATM   32  C   UNL     1     -42.653 -54.493  14.659  1.00  0.00     0.036 C 
ENDBRANCH  27  28
BRANCH  27  33
HETATM   33  O   UNL     1     -40.613 -53.462  11.660  1.00  0.00    -0.391 OA
HETATM   34  H   UNL     1     -41.528 -53.286  11.363  1.00  0.00     0.210 HD
ENDBRANCH  27  33
ENDBRANCH  26  27
ENDBRANCH   3  26
TORSDOF 6
ENDMDL
