MODEL 1
REMARK VINA RESULT:      -5.6      0.000      0.000
REMARK  3 active torsions:
REMARK  status: ('A' for Active; 'I' for Inactive)
REMARK    1  A    between atoms: C_2  and  C_3 
REMARK       I    between atoms: C_3  and  N_5 
REMARK    2  A    between atoms: N_5  and  C_6 
REMARK    3  A    between atoms: C_9  and  N_13 
ROOT
HETATM    1  C   UNL     1     -42.805 -47.689  11.255  1.00  0.00     0.107 A 
HETATM    2  C   UNL     1     -42.054 -46.778  11.976  1.00  0.00     0.051 A 
HETATM    3  C   UNL     1     -40.768 -47.136  12.388  1.00  0.00     0.034 A 
HETATM    4  C   UNL     1     -40.217 -48.373  12.053  1.00  0.00     0.046 A 
HETATM    5  C   UNL     1     -41.100 -49.225  11.380  1.00  0.00     0.119 A 
HETATM    6  N   UNL     1     -42.378 -48.937  11.002  1.00  0.00    -0.350 N 
ATOM      7  HN  UNL     1     -42.977 -49.630  10.553  1.00  0.00     0.166 HD
ENDROOT
BRANCH   1   8
HETATM    8  N   UNL     1     -44.062 -47.369  10.740  1.00  0.00    -0.313 N 
HETATM    9  C   UNL     1     -44.352 -47.417   9.390  1.00  0.00     0.222 C 
HETATM   10  O   UNL     1     -43.553 -47.724   8.509  1.00  0.00    -0.273 OA
HETATM   11  H   UNL     1     -44.813 -47.528  11.397  1.00  0.00     0.170 HD
BRANCH   9  12
HETATM   12  C   UNL     1     -45.786 -47.046   9.080  1.00  0.00     0.099 C 
HETATM   13  C   UNL     1     -46.643 -48.278   8.832  1.00  0.00     0.014 C 
ENDBRANCH   9  12
ENDBRANCH   1   8
BRANCH   4  14
HETATM   14  N   UNL     1     -38.918 -48.705  12.392  1.00  0.00    -0.376 N 
HETATM   15  C   UNL     1     -38.122 -49.680  11.618  1.00  0.00     0.149 C 
HETATM   16  C   UNL     1     -37.740 -50.878  12.512  1.00  0.00     0.187 C 
HETATM   17  O   UNL     1     -37.076 -50.459  13.715  1.00  0.00    -0.388 OA
HETATM   18  C   UNL     1     -37.929 -49.584  14.473  1.00  0.00     0.187 C 
HETATM   19  C   UNL     1     -38.286 -48.326  13.670  1.00  0.00     0.149 C 
ENDBRANCH   4  14
TORSDOF 3
ENDMDL
MODEL 2
REMARK VINA RESULT:      -5.4      2.534      3.226
REMARK  3 active torsions:
REMARK  status: ('A' for Active; 'I' for Inactive)
REMARK    1  A    between atoms: C_2  and  C_3 
REMARK       I    between atoms: C_3  and  N_5 
REMARK    2  A    between atoms: N_5  and  C_6 
REMARK    3  A    between atoms: C_9  and  N_13 
ROOT
HETATM    1  C   UNL     1     -43.436 -47.562  10.602  1.00  0.00     0.107 A 
HETATM    2  C   UNL     1     -42.202 -48.123  10.326  1.00  0.00     0.051 A 
HETATM    3  C   UNL     1     -41.064 -47.593  10.937  1.00  0.00     0.034 A 
HETATM    4  C   UNL     1     -41.154 -46.539  11.846  1.00  0.00     0.046 A 
HETATM    5  C   UNL     1     -42.445 -46.019  11.989  1.00  0.00     0.119 A 
HETATM    6  N   UNL     1     -43.575 -46.473  11.375  1.00  0.00    -0.350 N 
ATOM      7  HN  UNL     1     -44.477 -46.011  11.496  1.00  0.00     0.166 HD
ENDROOT
BRANCH   1   8
HETATM    8  N   UNL     1     -44.622 -48.094  10.094  1.00  0.00    -0.313 N 
HETATM    9  C   UNL     1     -45.471 -47.377   9.271  1.00  0.00     0.222 C 
HETATM   10  O   UNL     1     -45.291 -46.216   8.916  1.00  0.00    -0.273 OA
HETATM   11  H   UNL     1     -44.598 -49.099   9.999  1.00  0.00     0.170 HD
BRANCH   9  12
HETATM   12  C   UNL     1     -46.680 -48.175   8.834  1.00  0.00     0.099 C 
HETATM   13  C   UNL     1     -46.381 -49.015   7.602  1.00  0.00     0.014 C 
ENDBRANCH   9  12
ENDBRANCH   1   8
BRANCH   4  14
HETATM   14  N   UNL     1     -40.041 -46.057  12.512  1.00  0.00    -0.376 N 
HETATM   15  C   UNL     1     -39.217 -46.910  13.395  1.00  0.00     0.149 C 
HETATM   16  C   UNL     1     -39.242 -46.357  14.835  1.00  0.00     0.187 C 
HETATM   17  O   UNL     1     -38.853 -44.974  14.886  1.00  0.00    -0.388 OA
HETATM   18  C   UNL     1     -39.740 -44.179  14.082  1.00  0.00     0.187 C 
HETATM   19  C   UNL     1     -39.707 -44.625  12.613  1.00  0.00     0.149 C 
ENDBRANCH   4  14
TORSDOF 3
ENDMDL
MODEL 3
REMARK VINA RESULT:      -5.2      3.147      5.826
REMARK  3 active torsions:
REMARK  status: ('A' for Active; 'I' for Inactive)
REMARK    1  A    between atoms: C_2  and  C_3 
REMARK       I    between atoms: C_3  and  N_5 
REMARK    2  A    between atoms: N_5  and  C_6 
REMARK    3  A    between atoms: C_9  and  N_13 
ROOT
HETATM    1  C   UNL     1     -41.756 -50.719  12.134  1.00  0.00     0.107 A 
HETATM    2  C   UNL     1     -42.526 -49.685  12.636  1.00  0.00     0.051 A 
HETATM    3  C   UNL     1     -42.334 -48.395  12.139  1.00  0.00     0.034 A 
HETATM    4  C   UNL     1     -41.413 -48.138  11.123  1.00  0.00     0.046 A 
HETATM    5  C   UNL     1     -40.654 -49.252  10.749  1.00  0.00     0.119 A 
HETATM    6  N   UNL     1     -40.773 -50.519  11.242  1.00  0.00    -0.350 N 
ATOM      7  HN  UNL     1     -40.150 -51.271  10.950  1.00  0.00     0.166 HD
ENDROOT
BRANCH   1   8
HETATM    8  N   UNL     1     -41.952 -52.045  12.524  1.00  0.00    -0.313 N 
HETATM    9  C   UNL     1     -40.910 -52.886  12.865  1.00  0.00     0.222 C 
HETATM   10  O   UNL     1     -39.722 -52.577  12.850  1.00  0.00    -0.273 OA
HETATM   11  H   UNL     1     -42.856 -52.205  12.946  1.00  0.00     0.170 HD
BRANCH   9  12
HETATM   12  C   UNL     1     -41.376 -54.268  13.271  1.00  0.00     0.099 C 
HETATM   13  C   UNL     1     -42.713 -54.217  13.996  1.00  0.00     0.014 C 
ENDBRANCH   9  12
ENDBRANCH   1   8
BRANCH   4  14
HETATM   14  N   UNL     1     -41.271 -46.877  10.574  1.00  0.00    -0.376 N 
HETATM   15  C   UNL     1     -40.050 -46.065  10.760  1.00  0.00     0.149 C 
HETATM   16  C   UNL     1     -40.395 -44.755  11.498  1.00  0.00     0.187 C 
HETATM   17  O   UNL     1     -41.443 -44.027  10.838  1.00  0.00    -0.388 OA
HETATM   18  C   UNL     1     -42.634 -44.830  10.764  1.00  0.00     0.187 C 
HETATM   19  C   UNL     1     -42.383 -46.119   9.970  1.00  0.00     0.149 C 
ENDBRANCH   4  14
TORSDOF 3
ENDMDL
MODEL 4
REMARK VINA RESULT:      -5.1      4.570      7.357
REMARK  3 active torsions:
REMARK  status: ('A' for Active; 'I' for Inactive)
REMARK    1  A    between atoms: C_2  and  C_3 
REMARK       I    between atoms: C_3  and  N_5 
REMARK    2  A    between atoms: N_5  and  C_6 
REMARK    3  A    between atoms: C_9  and  N_13 
ROOT
HETATM    1  C   UNL     1     -41.183 -50.945  12.418  1.00  0.00     0.107 A 
HETATM    2  C   UNL     1     -42.101 -50.111  13.031  1.00  0.00     0.051 A 
HETATM    3  C   UNL     1     -43.402 -50.573  13.238  1.00  0.00     0.034 A 
HETATM    4  C   UNL     1     -43.779 -51.866  12.875  1.00  0.00     0.046 A 
HETATM    5  C   UNL     1     -42.781 -52.583  12.207  1.00  0.00     0.119 A 
HETATM    6  N   UNL     1     -41.514 -52.154  11.940  1.00  0.00    -0.350 N 
ATOM      7  HN  UNL     1     -40.855 -52.721  11.406  1.00  0.00     0.166 HD
ENDROOT
BRANCH   1   8
HETATM    8  N   UNL     1     -39.845 -50.580  12.256  1.00  0.00    -0.313 N 
HETATM    9  C   UNL     1     -38.802 -51.303  12.803  1.00  0.00     0.222 C 
HETATM   10  O   UNL     1     -38.929 -52.313  13.490  1.00  0.00    -0.273 OA
HETATM   11  H   UNL     1     -39.675 -50.061  11.406  1.00  0.00     0.170 HD
BRANCH   9  12
HETATM   12  C   UNL     1     -37.444 -50.721  12.472  1.00  0.00     0.099 C 
HETATM   13  C   UNL     1     -37.489 -49.881  11.204  1.00  0.00     0.014 C 
ENDBRANCH   9  12
ENDBRANCH   1   8
BRANCH   4  14
HETATM   14  N   UNL     1     -45.045 -52.356  13.145  1.00  0.00    -0.376 N 
HETATM   15  C   UNL     1     -46.221 -51.473  13.290  1.00  0.00     0.149 C 
HETATM   16  C   UNL     1     -46.813 -51.610  14.708  1.00  0.00     0.187 C 
HETATM   17  O   UNL     1     -47.108 -52.977  15.037  1.00  0.00    -0.388 OA
HETATM   18  C   UNL     1     -45.912 -53.773  14.967  1.00  0.00     0.187 C 
HETATM   19  C   UNL     1     -45.310 -53.747  13.556  1.00  0.00     0.149 C 
ENDBRANCH   4  14
TORSDOF 3
ENDMDL
MODEL 5
REMARK VINA RESULT:      -5.1      4.902      7.693
REMARK  3 active torsions:
REMARK  status: ('A' for Active; 'I' for Inactive)
REMARK    1  A    between atoms: C_2  and  C_3 
REMARK       I    between atoms: C_3  and  N_5 
REMARK    2  A    between atoms: N_5  and  C_6 
REMARK    3  A    between atoms: C_9  and  N_13 
ROOT
HETATM    1  C   UNL     1     -40.842 -52.023  12.577  1.00  0.00     0.107 A 
HETATM    2  C   UNL     1     -41.153 -53.367  12.682  1.00  0.00     0.051 A 
HETATM    3  C   UNL     1     -42.483 -53.741  12.887  1.00  0.00     0.034 A 
HETATM    4  C   UNL     1     -43.502 -52.791  12.947  1.00  0.00     0.046 A 
HETATM    5  C   UNL     1     -43.051 -51.468  12.893  1.00  0.00     0.119 A 
HETATM    6  N   UNL     1     -41.759 -51.056  12.743  1.00  0.00    -0.350 N 
ATOM      7  HN  UNL     1     -41.503 -50.069  12.758  1.00  0.00     0.166 HD
ENDROOT
BRANCH   1   8
HETATM    8  N   UNL     1     -39.550 -51.582  12.288  1.00  0.00    -0.313 N 
HETATM    9  C   UNL     1     -38.803 -50.825  13.171  1.00  0.00     0.222 C 
HETATM   10  O   UNL     1     -39.188 -50.448  14.274  1.00  0.00    -0.273 OA
HETATM   11  H   UNL     1     -39.061 -52.184  11.640  1.00  0.00     0.170 HD
BRANCH   9  12
HETATM   12  C   UNL     1     -37.427 -50.487  12.640  1.00  0.00     0.099 C 
HETATM   13  C   UNL     1     -37.492 -49.952  11.217  1.00  0.00     0.014 C 
ENDBRANCH   9  12
ENDBRANCH   1   8
BRANCH   4  14
HETATM   14  N   UNL     1     -44.830 -53.158  13.074  1.00  0.00    -0.376 N 
HETATM   15  C   UNL     1     -45.935 -52.185  12.945  1.00  0.00     0.149 C 
HETATM   16  C   UNL     1     -46.731 -52.111  14.264  1.00  0.00     0.187 C 
HETATM   17  O   UNL     1     -47.186 -53.406  14.690  1.00  0.00    -0.388 OA
HETATM   18  C   UNL     1     -46.065 -54.285  14.887  1.00  0.00     0.187 C 
HETATM   19  C   UNL     1     -45.269 -54.468  13.588  1.00  0.00     0.149 C 
ENDBRANCH   4  14
TORSDOF 3
ENDMDL
MODEL 6
REMARK VINA RESULT:      -5.1      4.451      5.515
REMARK  3 active torsions:
REMARK  status: ('A' for Active; 'I' for Inactive)
REMARK    1  A    between atoms: C_2  and  C_3 
REMARK       I    between atoms: C_3  and  N_5 
REMARK    2  A    between atoms: N_5  and  C_6 
REMARK    3  A    between atoms: C_9  and  N_13 
ROOT
HETATM    1  C   UNL     1     -43.625 -51.806  13.443  1.00  0.00     0.107 A 
HETATM    2  C   UNL     1     -43.979 -50.468  13.434  1.00  0.00     0.051 A 
HETATM    3  C   UNL     1     -43.154 -49.553  12.778  1.00  0.00     0.034 A 
HETATM    4  C   UNL     1     -42.006 -49.967  12.103  1.00  0.00     0.046 A 
HETATM    5  C   UNL     1     -41.723 -51.330  12.242  1.00  0.00     0.119 A 
HETATM    6  N   UNL     1     -42.474 -52.250  12.914  1.00  0.00    -0.350 N 
ATOM      7  HN  UNL     1     -42.177 -53.221  13.009  1.00  0.00     0.166 HD
ENDROOT
BRANCH   1   8
HETATM    8  N   UNL     1     -44.445 -52.785  14.006  1.00  0.00    -0.313 N 
HETATM    9  C   UNL     1     -44.810 -53.934  13.330  1.00  0.00     0.222 C 
HETATM   10  O   UNL     1     -44.477 -54.209  12.180  1.00  0.00    -0.273 OA
HETATM   11  H   UNL     1     -44.387 -52.820  15.014  1.00  0.00     0.170 HD
BRANCH   9  12
HETATM   12  C   UNL     1     -45.686 -54.851  14.156  1.00  0.00     0.099 C 
HETATM   13  C   UNL     1     -46.198 -54.157  15.408  1.00  0.00     0.014 C 
ENDBRANCH   9  12
ENDBRANCH   1   8
BRANCH   4  14
HETATM   14  N   UNL     1     -41.224 -49.077  11.388  1.00  0.00    -0.376 N 
HETATM   15  C   UNL     1     -39.827 -48.771  11.765  1.00  0.00     0.149 C 
HETATM   16  C   UNL     1     -39.689 -47.273  12.105  1.00  0.00     0.187 C 
HETATM   17  O   UNL     1     -40.168 -46.434  11.041  1.00  0.00    -0.388 OA
HETATM   18  C   UNL     1     -41.554 -46.711  10.777  1.00  0.00     0.187 C 
HETATM   19  C   UNL     1     -41.756 -48.172  10.353  1.00  0.00     0.149 C 
ENDBRANCH   4  14
TORSDOF 3
ENDMDL
MODEL 7
REMARK VINA RESULT:      -5.0      4.367      5.470
REMARK  3 active torsions:
REMARK  status: ('A' for Active; 'I' for Inactive)
REMARK    1  A    between atoms: C_2  and  C_3 
REMARK       I    between atoms: C_3  and  N_5 
REMARK    2  A    between atoms: N_5  and  C_6 
REMARK    3  A    between atoms: C_9  and  N_13 
ROOT
HETATM    1  C   UNL     1     -42.120 -49.484  12.191  1.00  0.00     0.107 A 
HETATM    2  C   UNL     1     -43.219 -49.792  12.973  1.00  0.00     0.051 A 
HETATM    3  C   UNL     1     -43.511 -51.132  13.234  1.00  0.00     0.034 A 
HETATM    4  C   UNL     1     -42.696 -52.158  12.756  1.00  0.00     0.046 A 
HETATM    5  C   UNL     1     -41.658 -51.720  11.926  1.00  0.00     0.119 A 
HETATM    6  N   UNL     1     -41.366 -50.427  11.604  1.00  0.00    -0.350 N 
ATOM      7  HN  UNL     1     -40.617 -50.190  10.954  1.00  0.00     0.166 HD
ENDROOT
BRANCH   1   8
HETATM    8  N   UNL     1     -41.721 -48.167  11.960  1.00  0.00    -0.313 N 
HETATM    9  C   UNL     1     -41.858 -47.548  10.732  1.00  0.00     0.222 C 
HETATM   10  O   UNL     1     -42.318 -48.079   9.725  1.00  0.00    -0.273 OA
HETATM   11  H   UNL     1     -41.747 -47.592  12.791  1.00  0.00     0.170 HD
BRANCH   9  12
HETATM   12  C   UNL     1     -41.372 -46.115  10.736  1.00  0.00     0.099 C 
HETATM   13  C   UNL     1     -39.863 -46.036  10.915  1.00  0.00     0.014 C 
ENDBRANCH   9  12
ENDBRANCH   1   8
BRANCH   4  14
HETATM   14  N   UNL     1     -42.936 -53.483  13.072  1.00  0.00    -0.376 N 
HETATM   15  C   UNL     1     -44.229 -54.143  12.791  1.00  0.00     0.149 C 
HETATM   16  C   UNL     1     -44.878 -54.614  14.109  1.00  0.00     0.187 C 
HETATM   17  O   UNL     1     -43.992 -55.446  14.877  1.00  0.00    -0.388 OA
HETATM   18  C   UNL     1     -42.790 -54.725  15.198  1.00  0.00     0.187 C 
HETATM   19  C   UNL     1     -42.047 -54.292  13.927  1.00  0.00     0.149 C 
ENDBRANCH   4  14
TORSDOF 3
ENDMDL
MODEL 8
REMARK VINA RESULT:      -5.0      2.840      3.500
REMARK  3 active torsions:
REMARK  status: ('A' for Active; 'I' for Inactive)
REMARK    1  A    between atoms: C_2  and  C_3 
REMARK       I    between atoms: C_3  and  N_5 
REMARK    2  A    between atoms: N_5  and  C_6 
REMARK    3  A    between atoms: C_9  and  N_13 
ROOT
HETATM    1  C   UNL     1     -41.070 -49.411  11.044  1.00  0.00     0.107 A 
HETATM    2  C   UNL     1     -39.731 -49.418  11.394  1.00  0.00     0.051 A 
HETATM    3  C   UNL     1     -39.272 -50.375  12.300  1.00  0.00     0.034 A 
HETATM    4  C   UNL     1     -40.127 -51.345  12.825  1.00  0.00     0.046 A 
HETATM    5  C   UNL     1     -41.465 -51.190  12.445  1.00  0.00     0.119 A 
HETATM    6  N   UNL     1     -41.965 -50.240  11.603  1.00  0.00    -0.350 N 
ATOM      7  HN  UNL     1     -42.963 -50.165  11.409  1.00  0.00     0.166 HD
ENDROOT
BRANCH   1   8
HETATM    8  N   UNL     1     -41.579 -48.537  10.082  1.00  0.00    -0.313 N 
HETATM    9  C   UNL     1     -42.723 -47.788  10.283  1.00  0.00     0.222 C 
HETATM   10  O   UNL     1     -43.413 -47.816  11.298  1.00  0.00    -0.273 OA
HETATM   11  H   UNL     1     -40.870 -48.173   9.461  1.00  0.00     0.170 HD
BRANCH   9  12
HETATM   12  C   UNL     1     -43.062 -46.902   9.104  1.00  0.00     0.099 C 
HETATM   13  C   UNL     1     -43.486 -47.721   7.893  1.00  0.00     0.014 C 
ENDBRANCH   9  12
ENDBRANCH   1   8
BRANCH   4  14
HETATM   14  N   UNL     1     -39.665 -52.342  13.665  1.00  0.00    -0.376 N 
HETATM   15  C   UNL     1     -40.128 -53.742  13.560  1.00  0.00     0.149 C 
HETATM   16  C   UNL     1     -40.827 -54.166  14.868  1.00  0.00     0.187 C 
HETATM   17  O   UNL     1     -39.993 -53.947  16.018  1.00  0.00    -0.388 OA
HETATM   18  C   UNL     1     -39.646 -52.556  16.122  1.00  0.00     0.187 C 
HETATM   19  C   UNL     1     -38.874 -52.084  14.882  1.00  0.00     0.149 C 
ENDBRANCH   4  14
TORSDOF 3
ENDMDL
MODEL 9
REMARK VINA RESULT:      -4.9      2.630      6.534
REMARK  3 active torsions:
REMARK  status: ('A' for Active; 'I' for Inactive)
REMARK    1  A    between atoms: C_2  and  C_3 
REMARK       I    between atoms: C_3  and  N_5 
REMARK    2  A    between atoms: N_5  and  C_6 
REMARK    3  A    between atoms: C_9  and  N_13 
ROOT
HETATM    1  C   UNL     1     -41.892 -51.211  12.616  1.00  0.00     0.107 A 
HETATM    2  C   UNL     1     -42.952 -50.581  13.243  1.00  0.00     0.051 A 
HETATM    3  C   UNL     1     -43.320 -49.300  12.828  1.00  0.00     0.034 A 
HETATM    4  C   UNL     1     -42.666 -48.664  11.773  1.00  0.00     0.046 A 
HETATM    5  C   UNL     1     -41.573 -49.377  11.268  1.00  0.00     0.119 A 
HETATM    6  N   UNL     1     -41.148 -50.607  11.676  1.00  0.00    -0.350 N 
ATOM      7  HN  UNL     1     -40.312 -51.044  11.288  1.00  0.00     0.166 HD
ENDROOT
BRANCH   1   8
HETATM    8  N   UNL     1     -41.524 -52.523  12.922  1.00  0.00    -0.313 N 
HETATM    9  C   UNL     1     -40.222 -52.888  13.205  1.00  0.00     0.222 C 
HETATM   10  O   UNL     1     -39.261 -52.124  13.205  1.00  0.00    -0.273 OA
HETATM   11  H   UNL     1     -42.273 -53.059  13.337  1.00  0.00     0.170 HD
BRANCH   9  12
HETATM   12  C   UNL     1     -40.078 -54.360  13.525  1.00  0.00     0.099 C 
HETATM   13  C   UNL     1     -39.130 -54.590  14.692  1.00  0.00     0.014 C 
ENDBRANCH   9  12
ENDBRANCH   1   8
BRANCH   4  14
HETATM   14  N   UNL     1     -43.073 -47.427  11.307  1.00  0.00    -0.376 N 
HETATM   15  C   UNL     1     -43.992 -47.276  10.158  1.00  0.00     0.149 C 
HETATM   16  C   UNL     1     -43.291 -46.507   9.020  1.00  0.00     0.187 C 
HETATM   17  O   UNL     1     -42.761 -45.249   9.468  1.00  0.00    -0.388 OA
HETATM   18  C   UNL     1     -41.807 -45.460  10.523  1.00  0.00     0.187 C 
HETATM   19  C   UNL     1     -42.459 -46.154  11.728  1.00  0.00     0.149 C 
ENDBRANCH   4  14
TORSDOF 3
ENDMDL
