MODEL 1
REMARK VINA RESULT:      -6.4      0.000      0.000
REMARK  6 active torsions:
REMARK  status: ('A' for Active; 'I' for Inactive)
REMARK    1  A    between atoms: C_2  and  C_4 
REMARK    2  A    between atoms: C_2  and  N_19 
REMARK    3  A    between atoms: C_4  and  N_5 
REMARK       I    between atoms: N_5  and  C_6 
REMARK    4  A    between atoms: C_6  and  C_8 
REMARK    5  A    between atoms: C_8  and  N_9 
REMARK    6  A    between atoms: C_11  and  N_16 
ROOT
HETATM    1  N   UNL     1     -43.237 -50.007  12.614  1.00  0.00    -0.357 N 
HETATM    2  C   UNL     1     -41.860 -50.011  12.592  1.00  0.00     0.235 C 
HETATM    3  O   UNL     1     -41.162 -50.171  13.592  1.00  0.00    -0.272 OA
HETATM    4  H   UNL     1     -43.709 -49.543  11.840  1.00  0.00     0.162 HD
ENDROOT
BRANCH   2   5
HETATM    5  C   UNL     1     -41.251 -49.718  11.223  1.00  0.00     0.234 C 
BRANCH   5   6
HETATM    6  N   UNL     1     -41.314 -48.284  10.959  1.00  0.00    -0.314 N 
HETATM    7  C   UNL     1     -42.369 -47.770  10.209  1.00  0.00     0.130 A 
HETATM    8  C   UNL     1     -42.424 -46.460   9.916  1.00  0.00     0.118 A 
HETATM    9  C   UNL     1     -41.380 -45.567  10.371  1.00  0.00     0.043 A 
HETATM   10  C   UNL     1     -40.348 -46.043  11.085  1.00  0.00     0.077 A 
HETATM   11  C   UNL     1     -40.257 -47.494  11.407  1.00  0.00     0.247 A 
HETATM   12  O   UNL     1     -39.283 -47.929  12.014  1.00  0.00    -0.268 OA
BRANCH   8  13
HETATM   13  N   UNL     1     -43.565 -45.972   9.140  1.00  0.00    -0.114 N 
HETATM   14  O   UNL     1     -44.267 -46.823   8.575  1.00  0.00    -0.532 OA
HETATM   15  O   UNL     1     -43.759 -44.750   9.080  1.00  0.00    -0.532 OA
ENDBRANCH   8  13
ENDBRANCH   5   6
ENDBRANCH   2   5
BRANCH   1  16
HETATM   16  C   UNL     1     -44.012 -50.249  13.823  1.00  0.00     0.163 C 
BRANCH  16  17
HETATM   17  C   UNL     1     -44.808 -51.616  13.901  1.00  0.00     0.168 C 
HETATM   18  C   UNL     1     -45.540 -51.712  15.252  1.00  0.00     0.050 C 
HETATM   19  C   UNL     1     -45.922 -51.466  12.821  1.00  0.00     0.050 C 
BRANCH  17  20
HETATM   20  N   UNL     1     -43.963 -52.797  13.539  1.00  0.00     0.103 N 
HETATM   21  C   UNL     1     -44.621 -53.924  12.837  1.00  0.00     0.299 C 
HETATM   22  C   UNL     1     -45.266 -54.975  13.757  1.00  0.00     0.198 C 
HETATM   23  O   UNL     1     -44.324 -55.497  14.699  1.00  0.00    -0.388 OA
HETATM   24  C   UNL     1     -43.735 -54.442  15.468  1.00  0.00     0.198 C 
HETATM   25  C   UNL     1     -43.080 -53.384  14.566  1.00  0.00     0.299 C 
ENDBRANCH  17  20
ENDBRANCH  16  17
ENDBRANCH   1  16
TORSDOF 6
ENDMDL
MODEL 2
REMARK VINA RESULT:      -6.3      3.466      7.488
REMARK  6 active torsions:
REMARK  status: ('A' for Active; 'I' for Inactive)
REMARK    1  A    between atoms: C_2  and  C_4 
REMARK    2  A    between atoms: C_2  and  N_19 
REMARK    3  A    between atoms: C_4  and  N_5 
REMARK       I    between atoms: N_5  and  C_6 
REMARK    4  A    between atoms: C_6  and  C_8 
REMARK    5  A    between atoms: C_8  and  N_9 
REMARK    6  A    between atoms: C_11  and  N_16 
ROOT
HETATM    1  N   UNL     1     -42.800 -54.258  13.815  1.00  0.00    -0.357 N 
HETATM    2  C   UNL     1     -43.645 -55.040  14.571  1.00  0.00     0.235 C 
HETATM    3  O   UNL     1     -43.271 -55.730  15.518  1.00  0.00    -0.272 OA
HETATM    4  H   UNL     1     -43.117 -54.006  12.881  1.00  0.00     0.162 HD
ENDROOT
BRANCH   2   5
HETATM    5  C   UNL     1     -45.093 -55.052  14.088  1.00  0.00     0.234 C 
BRANCH   5   6
HETATM    6  N   UNL     1     -45.691 -53.741  14.311  1.00  0.00    -0.314 N 
HETATM    7  C   UNL     1     -46.218 -53.431  15.563  1.00  0.00     0.130 A 
HETATM    8  C   UNL     1     -46.813 -52.247  15.780  1.00  0.00     0.118 A 
HETATM    9  C   UNL     1     -46.922 -51.279  14.708  1.00  0.00     0.043 A 
HETATM   10  C   UNL     1     -46.432 -51.561  13.491  1.00  0.00     0.077 A 
HETATM   11  C   UNL     1     -45.784 -52.875  13.224  1.00  0.00     0.247 A 
HETATM   12  O   UNL     1     -45.386 -53.145  12.094  1.00  0.00    -0.268 OA
BRANCH   8  13
HETATM   13  N   UNL     1     -47.333 -51.968  17.119  1.00  0.00    -0.114 N 
HETATM   14  O   UNL     1     -48.451 -51.438  17.190  1.00  0.00    -0.532 OA
HETATM   15  O   UNL     1     -46.632 -52.262  18.098  1.00  0.00    -0.532 OA
ENDBRANCH   8  13
ENDBRANCH   5   6
ENDBRANCH   2   5
BRANCH   1  16
HETATM   16  C   UNL     1     -41.378 -54.123  14.098  1.00  0.00     0.163 C 
BRANCH  16  17
HETATM   17  C   UNL     1     -40.816 -52.650  14.251  1.00  0.00     0.168 C 
HETATM   18  C   UNL     1     -41.891 -51.749  14.885  1.00  0.00     0.050 C 
HETATM   19  C   UNL     1     -39.688 -52.786  15.318  1.00  0.00     0.050 C 
BRANCH  17  20
HETATM   20  N   UNL     1     -40.202 -52.132  12.988  1.00  0.00     0.103 N 
HETATM   21  C   UNL     1     -39.070 -51.184  13.111  1.00  0.00     0.299 C 
HETATM   22  C   UNL     1     -39.473 -49.704  13.235  1.00  0.00     0.198 C 
HETATM   23  O   UNL     1     -40.309 -49.295  12.148  1.00  0.00    -0.388 OA
HETATM   24  C   UNL     1     -41.468 -50.131  12.055  1.00  0.00     0.198 C 
HETATM   25  C   UNL     1     -41.086 -51.614  11.926  1.00  0.00     0.299 C 
ENDBRANCH  17  20
ENDBRANCH  16  17
ENDBRANCH   1  16
TORSDOF 6
ENDMDL
MODEL 3
REMARK VINA RESULT:      -6.1      2.297      7.494
REMARK  6 active torsions:
REMARK  status: ('A' for Active; 'I' for Inactive)
REMARK    1  A    between atoms: C_2  and  C_4 
REMARK    2  A    between atoms: C_2  and  N_19 
REMARK    3  A    between atoms: C_4  and  N_5 
REMARK       I    between atoms: N_5  and  C_6 
REMARK    4  A    between atoms: C_6  and  C_8 
REMARK    5  A    between atoms: C_8  and  N_9 
REMARK    6  A    between atoms: C_11  and  N_16 
ROOT
HETATM    1  N   UNL     1     -40.842 -50.541  11.228  1.00  0.00    -0.357 N 
HETATM    2  C   UNL     1     -40.693 -51.460  12.242  1.00  0.00     0.235 C 
HETATM    3  O   UNL     1     -40.228 -51.187  13.347  1.00  0.00    -0.272 OA
HETATM    4  H   UNL     1     -40.906 -50.907  10.280  1.00  0.00     0.162 HD
ENDROOT
BRANCH   2   5
HETATM    5  C   UNL     1     -41.080 -52.887  11.862  1.00  0.00     0.234 C 
BRANCH   5   6
HETATM    6  N   UNL     1     -42.152 -53.350  12.735  1.00  0.00    -0.314 N 
HETATM    7  C   UNL     1     -43.455 -52.907  12.516  1.00  0.00     0.130 A 
HETATM    8  C   UNL     1     -44.451 -53.286  13.334  1.00  0.00     0.118 A 
HETATM    9  C   UNL     1     -44.180 -54.153  14.460  1.00  0.00     0.043 A 
HETATM   10  C   UNL     1     -42.931 -54.582  14.697  1.00  0.00     0.077 A 
HETATM   11  C   UNL     1     -41.808 -54.162  13.814  1.00  0.00     0.247 A 
HETATM   12  O   UNL     1     -40.660 -54.515  14.069  1.00  0.00    -0.268 OA
BRANCH   8  13
HETATM   13  N   UNL     1     -45.803 -52.805  13.046  1.00  0.00    -0.114 N 
HETATM   14  O   UNL     1     -46.153 -52.786  11.857  1.00  0.00    -0.532 OA
HETATM   15  O   UNL     1     -46.513 -52.435  13.992  1.00  0.00    -0.532 OA
ENDBRANCH   8  13
ENDBRANCH   5   6
ENDBRANCH   2   5
BRANCH   1  16
HETATM   16  C   UNL     1     -40.514 -49.130  11.380  1.00  0.00     0.163 C 
BRANCH  16  17
HETATM   17  C   UNL     1     -41.727 -48.112  11.397  1.00  0.00     0.168 C 
HETATM   18  C   UNL     1     -42.336 -48.009   9.986  1.00  0.00     0.050 C 
HETATM   19  C   UNL     1     -42.801 -48.819  12.276  1.00  0.00     0.050 C 
BRANCH  17  20
HETATM   20  N   UNL     1     -41.377 -46.809  12.044  1.00  0.00     0.103 N 
HETATM   21  C   UNL     1     -42.404 -45.740  12.039  1.00  0.00     0.299 C 
HETATM   22  C   UNL     1     -42.400 -44.841  10.790  1.00  0.00     0.198 C 
HETATM   23  O   UNL     1     -41.113 -44.255  10.569  1.00  0.00    -0.388 OA
HETATM   24  C   UNL     1     -40.103 -45.265  10.472  1.00  0.00     0.198 C 
HETATM   25  C   UNL     1     -40.088 -46.171  11.714  1.00  0.00     0.299 C 
ENDBRANCH  17  20
ENDBRANCH  16  17
ENDBRANCH   1  16
TORSDOF 6
ENDMDL
MODEL 4
REMARK VINA RESULT:      -6.1      3.564      7.661
REMARK  6 active torsions:
REMARK  status: ('A' for Active; 'I' for Inactive)
REMARK    1  A    between atoms: C_2  and  C_4 
REMARK    2  A    between atoms: C_2  and  N_19 
REMARK    3  A    between atoms: C_4  and  N_5 
REMARK       I    between atoms: N_5  and  C_6 
REMARK    4  A    between atoms: C_6  and  C_8 
REMARK    5  A    between atoms: C_8  and  N_9 
REMARK    6  A    between atoms: C_11  and  N_16 
ROOT
HETATM    1  N   UNL     1     -42.940 -52.772  12.059  1.00  0.00    -0.357 N 
HETATM    2  C   UNL     1     -43.210 -53.755  12.984  1.00  0.00     0.235 C 
HETATM    3  O   UNL     1     -42.348 -54.299  13.672  1.00  0.00    -0.272 OA
HETATM    4  H   UNL     1     -43.629 -52.630  11.322  1.00  0.00     0.162 HD
ENDROOT
BRANCH   2   5
HETATM    5  C   UNL     1     -44.673 -54.185  13.038  1.00  0.00     0.234 C 
BRANCH   5   6
HETATM    6  N   UNL     1     -45.382 -53.380  14.027  1.00  0.00    -0.314 N 
HETATM    7  C   UNL     1     -45.430 -53.809  15.352  1.00  0.00     0.130 A 
HETATM    8  C   UNL     1     -46.113 -53.107  16.272  1.00  0.00     0.118 A 
HETATM    9  C   UNL     1     -46.816 -51.899  15.893  1.00  0.00     0.043 A 
HETATM   10  C   UNL     1     -46.793 -51.475  14.620  1.00  0.00     0.077 A 
HETATM   11  C   UNL     1     -46.056 -52.246  13.580  1.00  0.00     0.247 A 
HETATM   12  O   UNL     1     -46.084 -51.881  12.409  1.00  0.00    -0.268 OA
BRANCH   8  13
HETATM   13  N   UNL     1     -46.116 -53.593  17.652  1.00  0.00    -0.114 N 
HETATM   14  O   UNL     1     -46.065 -54.820  17.817  1.00  0.00    -0.532 OA
HETATM   15  O   UNL     1     -46.179 -52.764  18.570  1.00  0.00    -0.532 OA
ENDBRANCH   8  13
ENDBRANCH   5   6
ENDBRANCH   2   5
BRANCH   1  16
HETATM   16  C   UNL     1     -41.605 -52.232  11.839  1.00  0.00     0.163 C 
BRANCH  16  17
HETATM   17  C   UNL     1     -41.300 -50.806  12.455  1.00  0.00     0.168 C 
HETATM   18  C   UNL     1     -40.680 -49.898  11.376  1.00  0.00     0.050 C 
HETATM   19  C   UNL     1     -42.710 -50.213  12.753  1.00  0.00     0.050 C 
BRANCH  17  20
HETATM   20  N   UNL     1     -40.545 -50.883  13.744  1.00  0.00     0.103 N 
HETATM   21  C   UNL     1     -40.088 -49.611  14.352  1.00  0.00     0.299 C 
HETATM   22  C   UNL     1     -38.717 -49.112  13.862  1.00  0.00     0.198 C 
HETATM   23  O   UNL     1     -37.703 -50.106  14.038  1.00  0.00    -0.388 OA
HETATM   24  C   UNL     1     -38.064 -51.326  13.381  1.00  0.00     0.198 C 
HETATM   25  C   UNL     1     -39.430 -51.843  13.862  1.00  0.00     0.299 C 
ENDBRANCH  17  20
ENDBRANCH  16  17
ENDBRANCH   1  16
TORSDOF 6
ENDMDL
MODEL 5
REMARK VINA RESULT:      -6.0      2.572      7.912
REMARK  6 active torsions:
REMARK  status: ('A' for Active; 'I' for Inactive)
REMARK    1  A    between atoms: C_2  and  C_4 
REMARK    2  A    between atoms: C_2  and  N_19 
REMARK    3  A    between atoms: C_4  and  N_5 
REMARK       I    between atoms: N_5  and  C_6 
REMARK    4  A    between atoms: C_6  and  C_8 
REMARK    5  A    between atoms: C_8  and  N_9 
REMARK    6  A    between atoms: C_11  and  N_16 
ROOT
HETATM    1  N   UNL     1     -43.054 -52.755  12.061  1.00  0.00    -0.357 N 
HETATM    2  C   UNL     1     -43.325 -53.744  12.980  1.00  0.00     0.235 C 
HETATM    3  O   UNL     1     -42.461 -54.307  13.650  1.00  0.00    -0.272 OA
HETATM    4  H   UNL     1     -43.751 -52.596  11.335  1.00  0.00     0.162 HD
ENDROOT
BRANCH   2   5
HETATM    5  C   UNL     1     -44.793 -54.154  13.049  1.00  0.00     0.234 C 
BRANCH   5   6
HETATM    6  N   UNL     1     -45.476 -53.350  14.057  1.00  0.00    -0.314 N 
HETATM    7  C   UNL     1     -45.527 -53.799  15.375  1.00  0.00     0.130 A 
HETATM    8  C   UNL     1     -46.187 -53.097  16.311  1.00  0.00     0.118 A 
HETATM    9  C   UNL     1     -46.864 -51.867  15.956  1.00  0.00     0.043 A 
HETATM   10  C   UNL     1     -46.839 -51.422  14.691  1.00  0.00     0.077 A 
HETATM   11  C   UNL     1     -46.127 -52.192  13.634  1.00  0.00     0.247 A 
HETATM   12  O   UNL     1     -46.154 -51.807  12.469  1.00  0.00    -0.268 OA
BRANCH   8  13
HETATM   13  N   UNL     1     -46.192 -53.606  17.682  1.00  0.00    -0.114 N 
HETATM   14  O   UNL     1     -45.905 -54.801  17.840  1.00  0.00    -0.532 OA
HETATM   15  O   UNL     1     -46.490 -52.829  18.600  1.00  0.00    -0.532 OA
ENDBRANCH   8  13
ENDBRANCH   5   6
ENDBRANCH   2   5
BRANCH   1  16
HETATM   16  C   UNL     1     -41.715 -52.232  11.828  1.00  0.00     0.163 C 
BRANCH  16  17
HETATM   17  C   UNL     1     -41.406 -50.782  12.384  1.00  0.00     0.168 C 
HETATM   18  C   UNL     1     -42.697 -50.155  12.939  1.00  0.00     0.050 C 
HETATM   19  C   UNL     1     -40.490 -51.039  13.618  1.00  0.00     0.050 C 
BRANCH  17  20
HETATM   20  N   UNL     1     -40.647 -49.939  11.408  1.00  0.00     0.103 N 
HETATM   21  C   UNL     1     -39.278 -49.512  11.785  1.00  0.00     0.299 C 
HETATM   22  C   UNL     1     -39.206 -48.207  12.597  1.00  0.00     0.198 C 
HETATM   23  O   UNL     1     -39.861 -47.130  11.920  1.00  0.00    -0.388 OA
HETATM   24  C   UNL     1     -41.221 -47.468  11.623  1.00  0.00     0.198 C 
HETATM   25  C   UNL     1     -41.314 -48.768  10.807  1.00  0.00     0.299 C 
ENDBRANCH  17  20
ENDBRANCH  16  17
ENDBRANCH   1  16
TORSDOF 6
ENDMDL
MODEL 6
REMARK VINA RESULT:      -6.0      1.646      2.152
REMARK  6 active torsions:
REMARK  status: ('A' for Active; 'I' for Inactive)
REMARK    1  A    between atoms: C_2  and  C_4 
REMARK    2  A    between atoms: C_2  and  N_19 
REMARK    3  A    between atoms: C_4  and  N_5 
REMARK       I    between atoms: N_5  and  C_6 
REMARK    4  A    between atoms: C_6  and  C_8 
REMARK    5  A    between atoms: C_8  and  N_9 
REMARK    6  A    between atoms: C_11  and  N_16 
ROOT
HETATM    1  N   UNL     1     -41.864 -51.206  11.782  1.00  0.00    -0.357 N 
HETATM    2  C   UNL     1     -40.506 -51.036  11.928  1.00  0.00     0.235 C 
HETATM    3  O   UNL     1     -39.792 -51.788  12.590  1.00  0.00    -0.272 OA
HETATM    4  H   UNL     1     -42.407 -50.385  11.520  1.00  0.00     0.162 HD
ENDROOT
BRANCH   2   5
HETATM    5  C   UNL     1     -39.953 -49.779  11.263  1.00  0.00     0.234 C 
BRANCH   5   6
HETATM    6  N   UNL     1     -40.904 -48.684  11.424  1.00  0.00    -0.314 N 
HETATM    7  C   UNL     1     -41.676 -48.281  10.337  1.00  0.00     0.130 A 
HETATM    8  C   UNL     1     -42.527 -47.247  10.450  1.00  0.00     0.118 A 
HETATM    9  C   UNL     1     -42.643 -46.533  11.704  1.00  0.00     0.043 A 
HETATM   10  C   UNL     1     -41.900 -46.896  12.760  1.00  0.00     0.077 A 
HETATM   11  C   UNL     1     -40.938 -48.028  12.653  1.00  0.00     0.247 A 
HETATM   12  O   UNL     1     -40.223 -48.320  13.607  1.00  0.00    -0.268 OA
BRANCH   8  13
HETATM   13  N   UNL     1     -43.326 -46.878   9.281  1.00  0.00    -0.114 N 
HETATM   14  O   UNL     1     -44.128 -47.723   8.858  1.00  0.00    -0.532 OA
HETATM   15  O   UNL     1     -43.154 -45.760   8.777  1.00  0.00    -0.532 OA
ENDBRANCH   8  13
ENDBRANCH   5   6
ENDBRANCH   2   5
BRANCH   1  16
HETATM   16  C   UNL     1     -42.590 -52.332  12.354  1.00  0.00     0.163 C 
BRANCH  16  17
HETATM   17  C   UNL     1     -43.700 -51.996  13.432  1.00  0.00     0.168 C 
HETATM   18  C   UNL     1     -43.213 -52.428  14.828  1.00  0.00     0.050 C 
HETATM   19  C   UNL     1     -43.741 -50.438  13.457  1.00  0.00     0.050 C 
BRANCH  17  20
HETATM   20  N   UNL     1     -45.056 -52.492  13.039  1.00  0.00     0.103 N 
HETATM   21  C   UNL     1     -46.207 -51.581  13.241  1.00  0.00     0.299 C 
HETATM   22  C   UNL     1     -46.854 -51.650  14.635  1.00  0.00     0.198 C 
HETATM   23  O   UNL     1     -47.251 -52.985  14.965  1.00  0.00    -0.388 OA
HETATM   24  C   UNL     1     -46.139 -53.883  14.875  1.00  0.00     0.198 C 
HETATM   25  C   UNL     1     -45.482 -53.832  13.486  1.00  0.00     0.299 C 
ENDBRANCH  17  20
ENDBRANCH  16  17
ENDBRANCH   1  16
TORSDOF 6
ENDMDL
MODEL 7
REMARK VINA RESULT:      -6.0      2.574      7.694
REMARK  6 active torsions:
REMARK  status: ('A' for Active; 'I' for Inactive)
REMARK    1  A    between atoms: C_2  and  C_4 
REMARK    2  A    between atoms: C_2  and  N_19 
REMARK    3  A    between atoms: C_4  and  N_5 
REMARK       I    between atoms: N_5  and  C_6 
REMARK    4  A    between atoms: C_6  and  C_8 
REMARK    5  A    between atoms: C_8  and  N_9 
REMARK    6  A    between atoms: C_11  and  N_16 
ROOT
HETATM    1  N   UNL     1     -42.269 -49.075  11.261  1.00  0.00    -0.357 N 
HETATM    2  C   UNL     1     -41.724 -49.858  12.254  1.00  0.00     0.235 C 
HETATM    3  O   UNL     1     -41.746 -49.560  13.447  1.00  0.00    -0.272 OA
HETATM    4  H   UNL     1     -41.918 -49.217  10.316  1.00  0.00     0.162 HD
ENDROOT
BRANCH   2   5
HETATM    5  C   UNL     1     -41.007 -51.107  11.749  1.00  0.00     0.234 C 
BRANCH   5   6
HETATM    6  N   UNL     1     -41.541 -52.284  12.426  1.00  0.00    -0.314 N 
HETATM    7  C   UNL     1     -42.897 -52.583  12.314  1.00  0.00     0.130 A 
HETATM    8  C   UNL     1     -43.420 -53.636  12.964  1.00  0.00     0.118 A 
HETATM    9  C   UNL     1     -42.579 -54.467  13.799  1.00  0.00     0.043 A 
HETATM   10  C   UNL     1     -41.273 -54.190  13.931  1.00  0.00     0.077 A 
HETATM   11  C   UNL     1     -40.675 -53.019  13.233  1.00  0.00     0.247 A 
HETATM   12  O   UNL     1     -39.491 -52.741  13.402  1.00  0.00    -0.268 OA
BRANCH   8  13
HETATM   13  N   UNL     1     -44.847 -53.914  12.796  1.00  0.00    -0.114 N 
HETATM   14  O   UNL     1     -45.276 -54.970  13.282  1.00  0.00    -0.532 OA
HETATM   15  O   UNL     1     -45.539 -53.095  12.174  1.00  0.00    -0.532 OA
ENDBRANCH   8  13
ENDBRANCH   5   6
ENDBRANCH   2   5
BRANCH   1  16
HETATM   16  C   UNL     1     -42.982 -47.834  11.530  1.00  0.00     0.163 C 
BRANCH  16  17
HETATM   17  C   UNL     1     -42.252 -46.488  11.127  1.00  0.00     0.168 C 
HETATM   18  C   UNL     1     -40.798 -46.790  10.717  1.00  0.00     0.050 C 
HETATM   19  C   UNL     1     -42.979 -46.039   9.824  1.00  0.00     0.050 C 
BRANCH  17  20
HETATM   20  N   UNL     1     -42.422 -45.410  12.151  1.00  0.00     0.103 N 
HETATM   21  C   UNL     1     -42.407 -44.004  11.680  1.00  0.00     0.299 C 
HETATM   22  C   UNL     1     -41.011 -43.364  11.592  1.00  0.00     0.198 C 
HETATM   23  O   UNL     1     -40.316 -43.446  12.841  1.00  0.00    -0.388 OA
HETATM   24  C   UNL     1     -40.224 -44.804  13.284  1.00  0.00     0.198 C 
HETATM   25  C   UNL     1     -41.611 -45.460  13.383  1.00  0.00     0.299 C 
ENDBRANCH  17  20
ENDBRANCH  16  17
ENDBRANCH   1  16
TORSDOF 6
ENDMDL
MODEL 8
REMARK VINA RESULT:      -6.0      2.548      3.617
REMARK  6 active torsions:
REMARK  status: ('A' for Active; 'I' for Inactive)
REMARK    1  A    between atoms: C_2  and  C_4 
REMARK    2  A    between atoms: C_2  and  N_19 
REMARK    3  A    between atoms: C_4  and  N_5 
REMARK       I    between atoms: N_5  and  C_6 
REMARK    4  A    between atoms: C_6  and  C_8 
REMARK    5  A    between atoms: C_8  and  N_9 
REMARK    6  A    between atoms: C_11  and  N_16 
ROOT
HETATM    1  N   UNL     1     -42.257 -50.044  11.848  1.00  0.00    -0.357 N 
HETATM    2  C   UNL     1     -42.303 -48.669  11.789  1.00  0.00     0.235 C 
HETATM    3  O   UNL     1     -42.682 -47.959  12.719  1.00  0.00    -0.272 OA
HETATM    4  H   UNL     1     -42.263 -50.544  10.961  1.00  0.00     0.162 HD
ENDROOT
BRANCH   2   5
HETATM    5  C   UNL     1     -41.919 -48.083  10.433  1.00  0.00     0.234 C 
BRANCH   5   6
HETATM    6  N   UNL     1     -43.010 -47.252   9.935  1.00  0.00    -0.314 N 
HETATM    7  C   UNL     1     -44.207 -47.850   9.548  1.00  0.00     0.130 A 
HETATM    8  C   UNL     1     -45.209 -47.110   9.046  1.00  0.00     0.118 A 
HETATM    9  C   UNL     1     -45.052 -45.680   8.892  1.00  0.00     0.043 A 
HETATM   10  C   UNL     1     -43.904 -45.084   9.247  1.00  0.00     0.077 A 
HETATM   11  C   UNL     1     -42.773 -45.886   9.790  1.00  0.00     0.247 A 
HETATM   12  O   UNL     1     -41.707 -45.341  10.062  1.00  0.00    -0.268 OA
BRANCH   8  13
HETATM   13  N   UNL     1     -46.451 -47.789   8.672  1.00  0.00    -0.114 N 
HETATM   14  O   UNL     1     -46.360 -48.726   7.867  1.00  0.00    -0.532 OA
HETATM   15  O   UNL     1     -47.515 -47.389   9.166  1.00  0.00    -0.532 OA
ENDBRANCH   8  13
ENDBRANCH   5   6
ENDBRANCH   2   5
BRANCH   1  16
HETATM   16  C   UNL     1     -42.600 -50.800  13.045  1.00  0.00     0.163 C 
BRANCH  16  17
HETATM   17  C   UNL     1     -42.361 -52.365  12.996  1.00  0.00     0.168 C 
HETATM   18  C   UNL     1     -43.613 -53.062  12.433  1.00  0.00     0.050 C 
HETATM   19  C   UNL     1     -41.251 -52.543  11.917  1.00  0.00     0.050 C 
BRANCH  17  20
HETATM   20  N   UNL     1     -41.845 -52.910  14.290  1.00  0.00     0.103 N 
HETATM   21  C   UNL     1     -41.315 -51.945  15.282  1.00  0.00     0.299 C 
HETATM   22  C   UNL     1     -39.825 -51.597  15.116  1.00  0.00     0.198 C 
HETATM   23  O   UNL     1     -39.007 -52.771  15.122  1.00  0.00    -0.388 OA
HETATM   24  C   UNL     1     -39.429 -53.691  14.109  1.00  0.00     0.198 C 
HETATM   25  C   UNL     1     -40.915 -54.055  14.261  1.00  0.00     0.299 C 
ENDBRANCH  17  20
ENDBRANCH  16  17
ENDBRANCH   1  16
TORSDOF 6
ENDMDL
MODEL 9
REMARK VINA RESULT:      -6.0      1.930      2.634
REMARK  6 active torsions:
REMARK  status: ('A' for Active; 'I' for Inactive)
REMARK    1  A    between atoms: C_2  and  C_4 
REMARK    2  A    between atoms: C_2  and  N_19 
REMARK    3  A    between atoms: C_4  and  N_5 
REMARK       I    between atoms: N_5  and  C_6 
REMARK    4  A    between atoms: C_6  and  C_8 
REMARK    5  A    between atoms: C_8  and  N_9 
REMARK    6  A    between atoms: C_11  and  N_16 
ROOT
HETATM    1  N   UNL     1     -43.461 -51.723  13.065  1.00  0.00    -0.357 N 
HETATM    2  C   UNL     1     -42.114 -51.986  13.179  1.00  0.00     0.235 C 
HETATM    3  O   UNL     1     -41.557 -52.238  14.246  1.00  0.00    -0.272 OA
HETATM    4  H   UNL     1     -43.763 -51.206  12.241  1.00  0.00     0.162 HD
ENDROOT
BRANCH   2   5
HETATM    5  C   UNL     1     -41.335 -51.860  11.873  1.00  0.00     0.234 C 
BRANCH   5   6
HETATM    6  N   UNL     1     -40.618 -50.589  11.854  1.00  0.00    -0.314 N 
HETATM    7  C   UNL     1     -41.261 -49.446  11.382  1.00  0.00     0.130 A 
HETATM    8  C   UNL     1     -40.607 -48.274  11.315  1.00  0.00     0.118 A 
HETATM    9  C   UNL     1     -39.221 -48.189  11.724  1.00  0.00     0.043 A 
HETATM   10  C   UNL     1     -38.579 -49.279  12.170  1.00  0.00     0.077 A 
HETATM   11  C   UNL     1     -39.279 -50.592  12.238  1.00  0.00     0.247 A 
HETATM   12  O   UNL     1     -38.669 -51.596  12.596  1.00  0.00    -0.268 OA
BRANCH   8  13
HETATM   13  N   UNL     1     -41.336 -47.103  10.828  1.00  0.00    -0.114 N 
HETATM   14  O   UNL     1     -42.459 -47.299  10.343  1.00  0.00    -0.532 OA
HETATM   15  O   UNL     1     -40.794 -45.992  10.915  1.00  0.00    -0.532 OA
ENDBRANCH   8  13
ENDBRANCH   5   6
ENDBRANCH   2   5
BRANCH   1  16
HETATM   16  C   UNL     1     -44.379 -51.773  14.195  1.00  0.00     0.163 C 
BRANCH  16  17
HETATM   17  C   UNL     1     -45.805 -52.409  13.932  1.00  0.00     0.168 C 
HETATM   18  C   UNL     1     -46.901 -51.399  14.316  1.00  0.00     0.050 C 
HETATM   19  C   UNL     1     -45.875 -52.548  12.381  1.00  0.00     0.050 C 
BRANCH  17  20
HETATM   20  N   UNL     1     -45.947 -53.774  14.528  1.00  0.00     0.103 N 
HETATM   21  C   UNL     1     -45.923 -53.886  16.006  1.00  0.00     0.299 C 
HETATM   22  C   UNL     1     -44.520 -54.028  16.623  1.00  0.00     0.198 C 
HETATM   23  O   UNL     1     -43.808 -55.134  16.059  1.00  0.00    -0.388 OA
HETATM   24  C   UNL     1     -43.726 -55.013  14.635  1.00  0.00     0.198 C 
HETATM   25  C   UNL     1     -45.119 -54.875  13.999  1.00  0.00     0.299 C 
ENDBRANCH  17  20
ENDBRANCH  16  17
ENDBRANCH   1  16
TORSDOF 6
ENDMDL
