MODEL 1
REMARK VINA RESULT:      -6.2      0.000      0.000
REMARK  2 active torsions:
REMARK  status: ('A' for Active; 'I' for Inactive)
REMARK       I    between atoms: N_2  and  C_3 
REMARK    1  A    between atoms: C_3  and  C_5 
REMARK    2  A    between atoms: N_7  and  C_11 
ROOT
HETATM    1  C   UNL     1     -40.004 -46.604  11.191  1.00  0.00     0.231 C 
HETATM    2  C   UNL     1     -41.183 -47.502  10.758  1.00  0.00     0.166 C 
HETATM    3  N   UNL     1     -42.460 -46.996  11.302  1.00  0.00    -0.362 N 
HETATM    4  C   UNL     1     -42.433 -46.746  12.739  1.00  0.00     0.150 C 
HETATM    5  C   UNL     1     -41.263 -45.811  13.065  1.00  0.00     0.189 C 
HETATM    6  O   UNL     1     -40.004 -46.328  12.607  1.00  0.00    -0.373 OA
ENDROOT
BRANCH   3   7
HETATM    7  C   UNL     1     -43.511 -46.735  10.450  1.00  0.00     0.105 A 
HETATM    8  C   UNL     1     -44.499 -47.663  10.166  1.00  0.00     0.073 A 
HETATM    9  C   UNL     1     -45.514 -47.307   9.292  1.00  0.00     0.009 A 
HETATM   10  C   UNL     1     -46.573 -48.295   8.907  1.00  0.00     0.068 C 
HETATM   11  N   UNL     1     -45.575 -46.098   8.712  1.00  0.00    -0.356 N 
HETATM   12  C   UNL     1     -44.586 -45.260   9.041  1.00  0.00     0.182 A 
ATOM     13  HN  UNL     1     -46.321 -45.837   8.067  1.00  0.00     0.166 HD
HETATM   14  N   UNL     1     -43.563 -45.527   9.864  1.00  0.00    -0.339 N 
ATOM     15  HN  UNL     1     -42.841 -44.829  10.041  1.00  0.00     0.168 HD
ENDBRANCH   3   7
BRANCH   1  16
HETATM   16  C   UNL     1     -39.872 -45.356  10.294  1.00  0.00     0.247 C 
HETATM   17  N   UNL     1     -38.823 -45.440   9.395  1.00  0.00    -0.363 N 
HETATM   18  C   UNL     1     -38.475 -44.326   8.557  1.00  0.00     0.149 C 
HETATM   19  H   UNL     1     -38.178 -46.214   9.510  1.00  0.00     0.162 HD
HETATM   20  O   UNL     1     -40.659 -44.416  10.301  1.00  0.00    -0.271 OA
ENDBRANCH   1  16
TORSDOF 2
ENDMDL
MODEL 2
REMARK VINA RESULT:      -6.1      2.184      2.728
REMARK  2 active torsions:
REMARK  status: ('A' for Active; 'I' for Inactive)
REMARK       I    between atoms: N_2  and  C_3 
REMARK    1  A    between atoms: C_3  and  C_5 
REMARK    2  A    between atoms: N_7  and  C_11 
ROOT
HETATM    1  C   UNL     1     -41.453 -45.002  11.660  1.00  0.00     0.231 C 
HETATM    2  C   UNL     1     -41.377 -46.156  10.636  1.00  0.00     0.166 C 
HETATM    3  N   UNL     1     -42.474 -47.123  10.849  1.00  0.00    -0.362 N 
HETATM    4  C   UNL     1     -42.592 -47.591  12.226  1.00  0.00     0.150 C 
HETATM    5  C   UNL     1     -42.709 -46.380  13.159  1.00  0.00     0.189 C 
HETATM    6  O   UNL     1     -41.609 -45.469  13.016  1.00  0.00    -0.373 OA
ENDROOT
BRANCH   3   7
HETATM    7  C   UNL     1     -43.314 -47.444   9.805  1.00  0.00     0.105 A 
HETATM    8  C   UNL     1     -44.694 -47.438   9.920  1.00  0.00     0.073 A 
HETATM    9  C   UNL     1     -45.455 -47.780   8.812  1.00  0.00     0.009 A 
HETATM   10  C   UNL     1     -46.949 -47.846   8.903  1.00  0.00     0.068 C 
HETATM   11  N   UNL     1     -44.903 -48.116   7.635  1.00  0.00    -0.356 N 
HETATM   12  C   UNL     1     -43.567 -48.094   7.607  1.00  0.00     0.182 A 
ATOM     13  HN  UNL     1     -45.463 -48.370   6.821  1.00  0.00     0.166 HD
HETATM   14  N   UNL     1     -42.759 -47.789   8.631  1.00  0.00    -0.339 N 
ATOM     15  HN  UNL     1     -41.745 -47.818   8.522  1.00  0.00     0.168 HD
ENDBRANCH   3   7
BRANCH   1  16
HETATM   16  C   UNL     1     -42.467 -43.921  11.232  1.00  0.00     0.247 C 
HETATM   17  N   UNL     1     -42.527 -42.853  12.110  1.00  0.00    -0.363 N 
HETATM   18  C   UNL     1     -43.495 -41.805  11.938  1.00  0.00     0.149 C 
HETATM   19  H   UNL     1     -42.031 -42.951  12.990  1.00  0.00     0.162 HD
HETATM   20  O   UNL     1     -43.099 -43.946  10.181  1.00  0.00    -0.271 OA
ENDBRANCH   1  16
TORSDOF 2
ENDMDL
MODEL 3
REMARK VINA RESULT:      -5.9      2.165      3.269
REMARK  2 active torsions:
REMARK  status: ('A' for Active; 'I' for Inactive)
REMARK       I    between atoms: N_2  and  C_3 
REMARK    1  A    between atoms: C_3  and  C_5 
REMARK    2  A    between atoms: N_7  and  C_11 
ROOT
HETATM    1  C   UNL     1     -41.293 -47.498  12.567  1.00  0.00     0.231 C 
HETATM    2  C   UNL     1     -42.644 -47.010  12.001  1.00  0.00     0.166 C 
HETATM    3  N   UNL     1     -42.505 -46.590  10.591  1.00  0.00    -0.362 N 
HETATM    4  C   UNL     1     -41.417 -45.646  10.359  1.00  0.00     0.150 C 
HETATM    5  C   UNL     1     -40.114 -46.236  10.911  1.00  0.00     0.189 C 
HETATM    6  O   UNL     1     -40.213 -46.579  12.302  1.00  0.00    -0.373 OA
ENDROOT
BRANCH   3   7
HETATM    7  C   UNL     1     -43.319 -47.146   9.628  1.00  0.00     0.105 A 
HETATM    8  C   UNL     1     -44.672 -47.368   9.822  1.00  0.00     0.073 A 
HETATM    9  C   UNL     1     -45.407 -47.937   8.793  1.00  0.00     0.009 A 
HETATM   10  C   UNL     1     -46.860 -48.251   8.975  1.00  0.00     0.068 C 
HETATM   11  N   UNL     1     -44.855 -48.279   7.618  1.00  0.00    -0.356 N 
HETATM   12  C   UNL     1     -43.547 -48.029   7.510  1.00  0.00     0.182 A 
ATOM     13  HN  UNL     1     -45.396 -48.699   6.862  1.00  0.00     0.166 HD
HETATM   14  N   UNL     1     -42.762 -47.496   8.456  1.00  0.00    -0.339 N 
ATOM     15  HN  UNL     1     -41.765 -47.359   8.291  1.00  0.00     0.168 HD
ENDBRANCH   3   7
BRANCH   1  16
HETATM   16  C   UNL     1     -41.001 -48.962  12.178  1.00  0.00     0.247 C 
HETATM   17  N   UNL     1     -39.817 -49.441  12.710  1.00  0.00    -0.363 N 
HETATM   18  C   UNL     1     -39.323 -50.745  12.362  1.00  0.00     0.149 C 
HETATM   19  H   UNL     1     -39.207 -48.766  13.160  1.00  0.00     0.162 HD
HETATM   20  O   UNL     1     -41.770 -49.671  11.538  1.00  0.00    -0.271 OA
ENDBRANCH   1  16
TORSDOF 2
ENDMDL
MODEL 4
REMARK VINA RESULT:      -5.6      7.125      8.696
REMARK  2 active torsions:
REMARK  status: ('A' for Active; 'I' for Inactive)
REMARK       I    between atoms: N_2  and  C_3 
REMARK    1  A    between atoms: C_3  and  C_5 
REMARK    2  A    between atoms: N_7  and  C_11 
ROOT
HETATM    1  C   UNL     1     -44.831 -53.182  12.455  1.00  0.00     0.231 C 
HETATM    2  C   UNL     1     -45.937 -52.317  13.097  1.00  0.00     0.166 C 
HETATM    3  N   UNL     1     -46.197 -52.739  14.489  1.00  0.00    -0.362 N 
HETATM    4  C   UNL     1     -46.437 -54.171  14.637  1.00  0.00     0.150 C 
HETATM    5  C   UNL     1     -45.267 -54.943  14.015  1.00  0.00     0.189 C 
HETATM    6  O   UNL     1     -45.052 -54.596  12.639  1.00  0.00    -0.373 OA
ENDROOT
BRANCH   3   7
HETATM    7  C   UNL     1     -46.126 -51.816  15.508  1.00  0.00     0.105 A 
HETATM    8  C   UNL     1     -47.194 -51.529  16.341  1.00  0.00     0.073 A 
HETATM    9  C   UNL     1     -47.024 -50.580  17.338  1.00  0.00     0.009 A 
HETATM   10  C   UNL     1     -48.167 -50.191  18.226  1.00  0.00     0.068 C 
HETATM   11  N   UNL     1     -45.864 -49.931  17.524  1.00  0.00    -0.356 N 
HETATM   12  C   UNL     1     -44.883 -50.268  16.681  1.00  0.00     0.182 A 
ATOM     13  HN  UNL     1     -45.740 -49.231  18.256  1.00  0.00     0.166 HD
HETATM   14  N   UNL     1     -44.966 -51.162  15.686  1.00  0.00    -0.339 N 
ATOM     15  HN  UNL     1     -44.167 -51.340  15.078  1.00  0.00     0.168 HD
ENDBRANCH   3   7
BRANCH   1  16
HETATM   16  C   UNL     1     -43.420 -52.696  12.849  1.00  0.00     0.247 C 
HETATM   17  N   UNL     1     -42.572 -52.550  11.765  1.00  0.00    -0.363 N 
HETATM   18  C   UNL     1     -41.187 -52.217  11.947  1.00  0.00     0.149 C 
HETATM   19  H   UNL     1     -42.899 -52.905  10.872  1.00  0.00     0.162 HD
HETATM   20  O   UNL     1     -43.093 -52.383  13.988  1.00  0.00    -0.271 OA
ENDBRANCH   1  16
TORSDOF 2
ENDMDL
MODEL 5
REMARK VINA RESULT:      -5.5      7.632      9.816
REMARK  2 active torsions:
REMARK  status: ('A' for Active; 'I' for Inactive)
REMARK       I    between atoms: N_2  and  C_3 
REMARK    1  A    between atoms: C_3  and  C_5 
REMARK    2  A    between atoms: N_7  and  C_11 
ROOT
HETATM    1  C   UNL     1     -46.130 -54.396  14.798  1.00  0.00     0.231 C 
HETATM    2  C   UNL     1     -45.188 -54.773  13.635  1.00  0.00     0.166 C 
HETATM    3  N   UNL     1     -44.652 -53.564  12.975  1.00  0.00    -0.362 N 
HETATM    4  C   UNL     1     -45.676 -52.599  12.588  1.00  0.00     0.150 C 
HETATM    5  C   UNL     1     -46.528 -52.251  13.814  1.00  0.00     0.189 C 
HETATM    6  O   UNL     1     -47.116 -53.412  14.421  1.00  0.00    -0.373 OA
ENDROOT
BRANCH   3   7
HETATM    7  C   UNL     1     -43.290 -53.403  12.845  1.00  0.00     0.105 A 
HETATM    8  C   UNL     1     -42.372 -54.084  13.628  1.00  0.00     0.073 A 
HETATM    9  C   UNL     1     -41.021 -53.850  13.423  1.00  0.00     0.009 A 
HETATM   10  C   UNL     1     -39.992 -54.517  14.284  1.00  0.00     0.068 C 
HETATM   11  N   UNL     1     -40.571 -52.989  12.496  1.00  0.00    -0.356 N 
HETATM   12  C   UNL     1     -41.520 -52.377  11.782  1.00  0.00     0.182 A 
ATOM     13  HN  UNL     1     -39.577 -52.816  12.347  1.00  0.00     0.166 HD
HETATM   14  N   UNL     1     -42.843 -52.534  11.923  1.00  0.00    -0.339 N 
ATOM     15  HN  UNL     1     -43.496 -52.006  11.343  1.00  0.00     0.168 HD
ENDBRANCH   3   7
BRANCH   1  16
HETATM   16  C   UNL     1     -45.349 -54.060  16.086  1.00  0.00     0.247 C 
HETATM   17  N   UNL     1     -46.054 -53.246  16.955  1.00  0.00    -0.363 N 
HETATM   18  C   UNL     1     -45.444 -52.736  18.151  1.00  0.00     0.149 C 
HETATM   19  H   UNL     1     -46.919 -52.842  16.609  1.00  0.00     0.162 HD
HETATM   20  O   UNL     1     -44.251 -54.529  16.367  1.00  0.00    -0.271 OA
ENDBRANCH   1  16
TORSDOF 2
ENDMDL
MODEL 6
REMARK VINA RESULT:      -5.4      2.729      5.384
REMARK  2 active torsions:
REMARK  status: ('A' for Active; 'I' for Inactive)
REMARK       I    between atoms: N_2  and  C_3 
REMARK    1  A    between atoms: C_3  and  C_5 
REMARK    2  A    between atoms: N_7  and  C_11 
ROOT
HETATM    1  C   UNL     1     -41.971 -45.648  10.448  1.00  0.00     0.231 C 
HETATM    2  C   UNL     1     -40.607 -46.322  10.709  1.00  0.00     0.166 C 
HETATM    3  N   UNL     1     -40.637 -47.108  11.960  1.00  0.00    -0.362 N 
HETATM    4  C   UNL     1     -41.135 -46.365  13.114  1.00  0.00     0.150 C 
HETATM    5  C   UNL     1     -42.509 -45.775  12.776  1.00  0.00     0.189 C 
HETATM    6  O   UNL     1     -42.477 -44.947  11.603  1.00  0.00    -0.373 OA
ENDROOT
BRANCH   3   7
HETATM    7  C   UNL     1     -40.284 -48.439  11.940  1.00  0.00     0.105 A 
HETATM    8  C   UNL     1     -38.981 -48.876  12.112  1.00  0.00     0.073 A 
HETATM    9  C   UNL     1     -38.726 -50.238  12.072  1.00  0.00     0.009 A 
HETATM   10  C   UNL     1     -37.325 -50.757  12.192  1.00  0.00     0.068 C 
HETATM   11  N   UNL     1     -39.694 -51.147  11.874  1.00  0.00    -0.356 N 
HETATM   12  C   UNL     1     -40.922 -50.644  11.721  1.00  0.00     0.182 A 
ATOM     13  HN  UNL     1     -39.505 -52.149  11.842  1.00  0.00     0.166 HD
HETATM   14  N   UNL     1     -41.254 -49.346  11.733  1.00  0.00    -0.339 N 
ATOM     15  HN  UNL     1     -42.220 -49.053  11.587  1.00  0.00     0.168 HD
ENDBRANCH   3   7
BRANCH   1  16
HETATM   16  C   UNL     1     -42.977 -46.619   9.794  1.00  0.00     0.247 C 
HETATM   17  N   UNL     1     -44.209 -46.041   9.545  1.00  0.00    -0.363 N 
HETATM   18  C   UNL     1     -45.307 -46.822   9.046  1.00  0.00     0.149 C 
HETATM   19  H   UNL     1     -44.374 -45.119   9.937  1.00  0.00     0.162 HD
HETATM   20  O   UNL     1     -42.702 -47.761   9.444  1.00  0.00    -0.271 OA
ENDBRANCH   1  16
TORSDOF 2
ENDMDL
MODEL 7
REMARK VINA RESULT:      -5.3      6.743      7.744
REMARK  2 active torsions:
REMARK  status: ('A' for Active; 'I' for Inactive)
REMARK       I    between atoms: N_2  and  C_3 
REMARK    1  A    between atoms: C_3  and  C_5 
REMARK    2  A    between atoms: N_7  and  C_11 
ROOT
HETATM    1  C   UNL     1     -40.365 -53.217  13.246  1.00  0.00     0.231 C 
HETATM    2  C   UNL     1     -41.448 -54.279  13.532  1.00  0.00     0.166 C 
HETATM    3  N   UNL     1     -42.349 -53.837  14.616  1.00  0.00    -0.362 N 
HETATM    4  C   UNL     1     -41.653 -53.394  15.820  1.00  0.00     0.150 C 
HETATM    5  C   UNL     1     -40.637 -52.311  15.443  1.00  0.00     0.189 C 
HETATM    6  O   UNL     1     -39.707 -52.754  14.443  1.00  0.00    -0.373 OA
ENDROOT
BRANCH   3   7
HETATM    7  C   UNL     1     -43.710 -53.801  14.402  1.00  0.00     0.105 A 
HETATM    8  C   UNL     1     -44.443 -52.626  14.411  1.00  0.00     0.073 A 
HETATM    9  C   UNL     1     -45.810 -52.694  14.189  1.00  0.00     0.009 A 
HETATM   10  C   UNL     1     -46.656 -51.459  14.249  1.00  0.00     0.068 C 
HETATM   11  N   UNL     1     -46.447 -53.855  13.966  1.00  0.00    -0.356 N 
HETATM   12  C   UNL     1     -45.667 -54.940  13.970  1.00  0.00     0.182 A 
ATOM     13  HN  UNL     1     -47.453 -53.905  13.806  1.00  0.00     0.166 HD
HETATM   14  N   UNL     1     -44.345 -54.965  14.188  1.00  0.00    -0.339 N 
ATOM     15  HN  UNL     1     -43.834 -55.847  14.192  1.00  0.00     0.168 HD
ENDBRANCH   3   7
BRANCH   1  16
HETATM   16  C   UNL     1     -40.890 -52.094  12.327  1.00  0.00     0.247 C 
HETATM   17  N   UNL     1     -39.923 -51.158  12.003  1.00  0.00    -0.363 N 
HETATM   18  C   UNL     1     -40.256 -49.979  11.252  1.00  0.00     0.149 C 
HETATM   19  H   UNL     1     -39.041 -51.215  12.502  1.00  0.00     0.162 HD
HETATM   20  O   UNL     1     -42.020 -52.065  11.851  1.00  0.00    -0.271 OA
ENDBRANCH   1  16
TORSDOF 2
ENDMDL
MODEL 8
REMARK VINA RESULT:      -5.1      5.750      7.610
REMARK  2 active torsions:
REMARK  status: ('A' for Active; 'I' for Inactive)
REMARK       I    between atoms: N_2  and  C_3 
REMARK    1  A    between atoms: C_3  and  C_5 
REMARK    2  A    between atoms: N_7  and  C_11 
ROOT
HETATM    1  C   UNL     1     -41.167 -54.033  13.073  1.00  0.00     0.231 C 
HETATM    2  C   UNL     1     -41.174 -53.094  11.848  1.00  0.00     0.166 C 
HETATM    3  N   UNL     1     -41.624 -51.738  12.225  1.00  0.00    -0.362 N 
HETATM    4  C   UNL     1     -42.880 -51.715  12.968  1.00  0.00     0.150 C 
HETATM    5  C   UNL     1     -42.759 -52.638  14.186  1.00  0.00     0.189 C 
HETATM    6  O   UNL     1     -42.396 -53.979  13.826  1.00  0.00    -0.373 OA
ENDROOT
BRANCH   3   7
HETATM    7  C   UNL     1     -40.831 -50.649  11.933  1.00  0.00     0.105 A 
HETATM    8  C   UNL     1     -41.346 -49.388  11.681  1.00  0.00     0.073 A 
HETATM    9  C   UNL     1     -40.467 -48.357  11.392  1.00  0.00     0.009 A 
HETATM   10  C   UNL     1     -40.978 -46.989  11.053  1.00  0.00     0.068 C 
HETATM   11  N   UNL     1     -39.137 -48.534  11.350  1.00  0.00    -0.356 N 
HETATM   12  C   UNL     1     -38.721 -49.778  11.608  1.00  0.00     0.182 A 
ATOM     13  HN  UNL     1     -38.490 -47.775  11.135  1.00  0.00     0.166 HD
HETATM   14  N   UNL     1     -39.501 -50.832  11.882  1.00  0.00    -0.339 N 
ATOM     15  HN  UNL     1     -39.095 -51.753  12.048  1.00  0.00     0.168 HD
ENDBRANCH   3   7
BRANCH   1  16
HETATM   16  C   UNL     1     -39.887 -53.864  13.919  1.00  0.00     0.247 C 
HETATM   17  N   UNL     1     -39.895 -54.624  15.076  1.00  0.00    -0.363 N 
HETATM   18  C   UNL     1     -38.840 -54.508  16.044  1.00  0.00     0.149 C 
HETATM   19  H   UNL     1     -40.766 -55.082  15.321  1.00  0.00     0.162 HD
HETATM   20  O   UNL     1     -38.917 -53.198  13.574  1.00  0.00    -0.271 OA
ENDBRANCH   1  16
TORSDOF 2
ENDMDL
MODEL 9
REMARK VINA RESULT:      -5.1      4.111      5.427
REMARK  2 active torsions:
REMARK  status: ('A' for Active; 'I' for Inactive)
REMARK       I    between atoms: N_2  and  C_3 
REMARK    1  A    between atoms: C_3  and  C_5 
REMARK    2  A    between atoms: N_7  and  C_11 
ROOT
HETATM    1  C   UNL     1     -37.669 -50.772  12.962  1.00  0.00     0.231 C 
HETATM    2  C   UNL     1     -38.231 -50.256  11.619  1.00  0.00     0.166 C 
HETATM    3  N   UNL     1     -39.704 -50.149  11.669  1.00  0.00    -0.362 N 
HETATM    4  C   UNL     1     -40.370 -51.360  12.138  1.00  0.00     0.150 C 
HETATM    5  C   UNL     1     -39.779 -51.765  13.494  1.00  0.00     0.189 C 
HETATM    6  O   UNL     1     -38.356 -51.947  13.440  1.00  0.00    -0.373 OA
ENDROOT
BRANCH   3   7
HETATM    7  C   UNL     1     -40.313 -48.953  11.360  1.00  0.00     0.105 A 
HETATM    8  C   UNL     1     -41.650 -48.856  11.013  1.00  0.00     0.073 A 
HETATM    9  C   UNL     1     -42.171 -47.606  10.715  1.00  0.00     0.009 A 
HETATM   10  C   UNL     1     -43.596 -47.457  10.276  1.00  0.00     0.068 C 
HETATM   11  N   UNL     1     -41.428 -46.489  10.751  1.00  0.00    -0.356 N 
HETATM   12  C   UNL     1     -40.150 -46.668  11.098  1.00  0.00     0.182 A 
ATOM     13  HN  UNL     1     -41.810 -45.570  10.529  1.00  0.00     0.166 HD
HETATM   14  N   UNL     1     -39.564 -47.838  11.388  1.00  0.00    -0.339 N 
ATOM     15  HN  UNL     1     -38.573 -47.881  11.624  1.00  0.00     0.168 HD
ENDBRANCH   3   7
BRANCH   1  16
HETATM   16  C   UNL     1     -37.534 -49.639  14.001  1.00  0.00     0.247 C 
HETATM   17  N   UNL     1     -37.012 -50.068  15.209  1.00  0.00    -0.363 N 
HETATM   18  C   UNL     1     -36.921 -49.178  16.333  1.00  0.00     0.149 C 
HETATM   19  H   UNL     1     -36.915 -51.070  15.340  1.00  0.00     0.162 HD
HETATM   20  O   UNL     1     -37.775 -48.460  13.769  1.00  0.00    -0.271 OA
ENDBRANCH   1  16
TORSDOF 2
ENDMDL
