MODEL 1
REMARK VINA RESULT:      -5.6      0.000      0.000
REMARK  4 active torsions:
REMARK  status: ('A' for Active; 'I' for Inactive)
REMARK    1  A    between atoms: C_2  and  N_3 
REMARK    2  A    between atoms: C_2  and  C_15 
REMARK       I    between atoms: N_3  and  C_4 
REMARK    3  A    between atoms: C_4  and  C_6 
REMARK    4  A    between atoms: C_6  and  N_7 
ROOT
HETATM    1  N   UNL     1     -42.329 -51.022  12.063  1.00  0.00    -0.353 N 
HETATM    2  C   UNL     1     -41.620 -49.854  12.253  1.00  0.00     0.237 C 
HETATM    3  O   UNL     1     -41.528 -49.302  13.349  1.00  0.00    -0.272 OA
HETATM    4  H   UNL     1     -42.385 -51.437  11.136  1.00  0.00     0.163 HD
ENDROOT
BRANCH   2   5
HETATM    5  C   UNL     1     -40.945 -49.300  11.021  1.00  0.00     0.251 C 
BRANCH   5   6
HETATM    6  N   UNL     1     -41.594 -48.084  10.573  1.00  0.00    -0.288 N 
HETATM    7  N   UNL     1     -42.711 -48.191   9.822  1.00  0.00    -0.303 N 
HETATM    8  C   UNL     1     -43.070 -46.925   9.583  1.00  0.00     0.024 A 
ATOM      9  HN  UNL     1     -43.176 -49.043   9.509  1.00  0.00     0.186 HD
HETATM   10  C   UNL     1     -44.299 -46.617   8.815  1.00  0.00     0.070 C 
HETATM   11  C   UNL     1     -42.152 -46.011  10.142  1.00  0.00     0.052 A 
HETATM   12  C   UNL     1     -41.195 -46.784  10.763  1.00  0.00     0.027 A 
HETATM   13  C   UNL     1     -39.982 -46.385  11.517  1.00  0.00     0.070 C 
ENDBRANCH   5   6
ENDBRANCH   2   5
BRANCH   1  14
HETATM   14  C   UNL     1     -43.002 -51.733  13.154  1.00  0.00     0.109 C 
HETATM   15  C   UNL     1     -43.022 -53.229  12.837  1.00  0.00     0.035 C 
BRANCH  14  16
HETATM   16  C   UNL     1     -44.406 -51.134  13.382  1.00  0.00     0.143 C 
HETATM   17  C   UNL     1     -44.812 -50.941  14.841  1.00  0.00     0.036 C 
HETATM   18  C   UNL     1     -46.265 -51.370  14.899  1.00  0.00     0.029 C 
HETATM   19  C   UNL     1     -46.649 -51.606  13.457  1.00  0.00     0.168 C 
HETATM   20  O   UNL     1     -45.431 -51.959  12.793  1.00  0.00    -0.384 OA
ENDBRANCH  14  16
ENDBRANCH   1  14
TORSDOF 4
ENDMDL
MODEL 2
REMARK VINA RESULT:      -5.5      2.077      5.624
REMARK  4 active torsions:
REMARK  status: ('A' for Active; 'I' for Inactive)
REMARK    1  A    between atoms: C_2  and  N_3 
REMARK    2  A    between atoms: C_2  and  C_15 
REMARK       I    between atoms: N_3  and  C_4 
REMARK    3  A    between atoms: C_4  and  C_6 
REMARK    4  A    between atoms: C_6  and  N_7 
ROOT
HETATM    1  N   UNL     1     -42.085 -50.483  12.770  1.00  0.00    -0.353 N 
HETATM    2  C   UNL     1     -42.400 -51.826  12.723  1.00  0.00     0.237 C 
HETATM    3  O   UNL     1     -41.989 -52.575  11.837  1.00  0.00    -0.272 OA
HETATM    4  H   UNL     1     -42.456 -49.901  13.517  1.00  0.00     0.163 HD
ENDROOT
BRANCH   2   5
HETATM    5  C   UNL     1     -43.277 -52.324  13.846  1.00  0.00     0.251 C 
BRANCH   5   6
HETATM    6  N   UNL     1     -44.670 -52.004  13.602  1.00  0.00    -0.288 N 
HETATM    7  N   UNL     1     -45.146 -52.124  12.344  1.00  0.00    -0.303 N 
HETATM    8  C   UNL     1     -46.434 -51.779  12.445  1.00  0.00     0.024 A 
ATOM      9  HN  UNL     1     -44.638 -52.411  11.507  1.00  0.00     0.186 HD
HETATM   10  C   UNL     1     -47.327 -51.827  11.263  1.00  0.00     0.070 C 
HETATM   11  C   UNL     1     -46.766 -51.393  13.761  1.00  0.00     0.052 A 
HETATM   12  C   UNL     1     -45.604 -51.530  14.489  1.00  0.00     0.027 A 
HETATM   13  C   UNL     1     -45.337 -51.271  15.925  1.00  0.00     0.070 C 
ENDBRANCH   5   6
ENDBRANCH   2   5
BRANCH   1  14
HETATM   14  C   UNL     1     -41.201 -49.837  11.797  1.00  0.00     0.109 C 
HETATM   15  C   UNL     1     -39.794 -49.734  12.389  1.00  0.00     0.035 C 
BRANCH  14  16
HETATM   16  C   UNL     1     -41.792 -48.474  11.377  1.00  0.00     0.143 C 
HETATM   17  C   UNL     1     -43.229 -48.214  11.822  1.00  0.00     0.036 C 
HETATM   18  C   UNL     1     -43.889 -47.549  10.629  1.00  0.00     0.029 C 
HETATM   19  C   UNL     1     -42.759 -47.308   9.655  1.00  0.00     0.168 C 
HETATM   20  O   UNL     1     -41.789 -48.320   9.944  1.00  0.00    -0.384 OA
ENDBRANCH  14  16
ENDBRANCH   1  14
TORSDOF 4
ENDMDL
MODEL 3
REMARK VINA RESULT:      -5.4      4.316      5.930
REMARK  4 active torsions:
REMARK  status: ('A' for Active; 'I' for Inactive)
REMARK    1  A    between atoms: C_2  and  N_3 
REMARK    2  A    between atoms: C_2  and  C_15 
REMARK       I    between atoms: N_3  and  C_4 
REMARK    3  A    between atoms: C_4  and  C_6 
REMARK    4  A    between atoms: C_6  and  N_7 
ROOT
HETATM    1  N   UNL     1     -44.891 -52.220  12.641  1.00  0.00    -0.353 N 
HETATM    2  C   UNL     1     -44.135 -53.363  12.484  1.00  0.00     0.237 C 
HETATM    3  O   UNL     1     -44.615 -54.493  12.552  1.00  0.00    -0.272 OA
HETATM    4  H   UNL     1     -44.449 -51.306  12.586  1.00  0.00     0.163 HD
ENDROOT
BRANCH   2   5
HETATM    5  C   UNL     1     -42.668 -53.134  12.207  1.00  0.00     0.251 C 
BRANCH   5   6
HETATM    6  N   UNL     1     -41.859 -53.474  13.359  1.00  0.00    -0.288 N 
HETATM    7  N   UNL     1     -42.314 -54.422  14.207  1.00  0.00    -0.303 N 
HETATM    8  C   UNL     1     -41.359 -54.517  15.139  1.00  0.00     0.024 A 
ATOM      9  HN  UNL     1     -43.188 -54.946  14.150  1.00  0.00     0.186 HD
HETATM   10  C   UNL     1     -41.470 -55.501  16.240  1.00  0.00     0.070 C 
HETATM   11  C   UNL     1     -40.317 -53.594  14.910  1.00  0.00     0.052 A 
HETATM   12  C   UNL     1     -40.670 -52.917  13.762  1.00  0.00     0.027 A 
HETATM   13  C   UNL     1     -39.969 -51.831  13.036  1.00  0.00     0.070 C 
ENDBRANCH   5   6
ENDBRANCH   2   5
BRANCH   1  14
HETATM   14  C   UNL     1     -46.340 -52.247  12.862  1.00  0.00     0.109 C 
HETATM   15  C   UNL     1     -47.043 -51.658  11.637  1.00  0.00     0.035 C 
BRANCH  14  16
HETATM   16  C   UNL     1     -46.683 -51.518  14.178  1.00  0.00     0.143 C 
HETATM   17  C   UNL     1     -45.493 -50.952  14.948  1.00  0.00     0.036 C 
HETATM   18  C   UNL     1     -45.793 -51.256  16.403  1.00  0.00     0.029 C 
HETATM   19  C   UNL     1     -47.200 -51.807  16.394  1.00  0.00     0.168 C 
HETATM   20  O   UNL     1     -47.370 -52.390  15.098  1.00  0.00    -0.384 OA
ENDBRANCH  14  16
ENDBRANCH   1  14
TORSDOF 4
ENDMDL
MODEL 4
REMARK VINA RESULT:      -5.4      2.228      6.588
REMARK  4 active torsions:
REMARK  status: ('A' for Active; 'I' for Inactive)
REMARK    1  A    between atoms: C_2  and  N_3 
REMARK    2  A    between atoms: C_2  and  C_15 
REMARK       I    between atoms: N_3  and  C_4 
REMARK    3  A    between atoms: C_4  and  C_6 
REMARK    4  A    between atoms: C_6  and  N_7 
ROOT
HETATM    1  N   UNL     1     -41.272 -49.394  10.960  1.00  0.00    -0.353 N 
HETATM    2  C   UNL     1     -41.418 -50.293  11.996  1.00  0.00     0.237 C 
HETATM    3  O   UNL     1     -41.932 -49.990  13.072  1.00  0.00    -0.272 OA
HETATM    4  H   UNL     1     -40.831 -49.688  10.091  1.00  0.00     0.163 HD
ENDROOT
BRANCH   2   5
HETATM    5  C   UNL     1     -40.914 -51.689  11.717  1.00  0.00     0.251 C 
BRANCH   5   6
HETATM    6  N   UNL     1     -41.706 -52.680  12.417  1.00  0.00    -0.288 N 
HETATM    7  N   UNL     1     -43.033 -52.735  12.168  1.00  0.00    -0.303 N 
HETATM    8  C   UNL     1     -43.471 -53.737  12.938  1.00  0.00     0.024 A 
ATOM      9  HN  UNL     1     -43.576 -52.147  11.536  1.00  0.00     0.186 HD
HETATM   10  C   UNL     1     -44.895 -54.146  12.912  1.00  0.00     0.070 C 
HETATM   11  C   UNL     1     -42.430 -54.288  13.715  1.00  0.00     0.052 A 
HETATM   12  C   UNL     1     -41.300 -53.577  13.373  1.00  0.00     0.027 A 
HETATM   13  C   UNL     1     -39.905 -53.702  13.862  1.00  0.00     0.070 C 
ENDBRANCH   5   6
ENDBRANCH   2   5
BRANCH   1  14
HETATM   14  C   UNL     1     -41.751 -48.011  11.030  1.00  0.00     0.109 C 
HETATM   15  C   UNL     1     -42.720 -47.759   9.873  1.00  0.00     0.035 C 
BRANCH  14  16
HETATM   16  C   UNL     1     -40.551 -47.041  11.051  1.00  0.00     0.143 C 
HETATM   17  C   UNL     1     -40.084 -46.599  12.435  1.00  0.00     0.036 C 
HETATM   18  C   UNL     1     -39.780 -45.121  12.288  1.00  0.00     0.029 C 
HETATM   19  C   UNL     1     -39.916 -44.850  10.807  1.00  0.00     0.168 C 
HETATM   20  O   UNL     1     -40.844 -45.828  10.328  1.00  0.00    -0.384 OA
ENDBRANCH  14  16
ENDBRANCH   1  14
TORSDOF 4
ENDMDL
MODEL 5
REMARK VINA RESULT:      -5.3      1.852      6.097
REMARK  4 active torsions:
REMARK  status: ('A' for Active; 'I' for Inactive)
REMARK    1  A    between atoms: C_2  and  N_3 
REMARK    2  A    between atoms: C_2  and  C_15 
REMARK       I    between atoms: N_3  and  C_4 
REMARK    3  A    between atoms: C_4  and  C_6 
REMARK    4  A    between atoms: C_6  and  N_7 
ROOT
HETATM    1  N   UNL     1     -43.438 -48.227  11.328  1.00  0.00    -0.353 N 
HETATM    2  C   UNL     1     -42.603 -49.108  11.983  1.00  0.00     0.237 C 
HETATM    3  O   UNL     1     -41.488 -49.409  11.560  1.00  0.00    -0.272 OA
HETATM    4  H   UNL     1     -44.356 -48.015  11.711  1.00  0.00     0.163 HD
ENDROOT
BRANCH   2   5
HETATM    5  C   UNL     1     -43.147 -49.674  13.273  1.00  0.00     0.251 C 
BRANCH   5   6
HETATM    6  N   UNL     1     -43.196 -51.121  13.230  1.00  0.00    -0.288 N 
HETATM    7  N   UNL     1     -42.034 -51.801  13.130  1.00  0.00    -0.303 N 
HETATM    8  C   UNL     1     -42.403 -53.087  13.126  1.00  0.00     0.024 A 
ATOM      9  HN  UNL     1     -41.089 -51.421  13.071  1.00  0.00     0.186 HD
HETATM   10  C   UNL     1     -41.391 -54.167  13.074  1.00  0.00     0.070 C 
HETATM   11  C   UNL     1     -43.807 -53.223  13.174  1.00  0.00     0.052 A 
HETATM   12  C   UNL     1     -44.300 -51.937  13.223  1.00  0.00     0.027 A 
HETATM   13  C   UNL     1     -45.700 -51.449  13.285  1.00  0.00     0.070 C 
ENDBRANCH   5   6
ENDBRANCH   2   5
BRANCH   1  14
HETATM   14  C   UNL     1     -43.057 -47.538  10.091  1.00  0.00     0.109 C 
HETATM   15  C   UNL     1     -42.457 -46.175  10.443  1.00  0.00     0.035 C 
BRANCH  14  16
HETATM   16  C   UNL     1     -44.273 -47.449   9.145  1.00  0.00     0.143 C 
HETATM   17  C   UNL     1     -44.745 -46.036   8.810  1.00  0.00     0.036 C 
HETATM   18  C   UNL     1     -46.259 -46.113   8.850  1.00  0.00     0.029 C 
HETATM   19  C   UNL     1     -46.560 -47.584   9.024  1.00  0.00     0.168 C 
HETATM   20  O   UNL     1     -45.419 -48.126   9.698  1.00  0.00    -0.384 OA
ENDBRANCH  14  16
ENDBRANCH   1  14
TORSDOF 4
ENDMDL
MODEL 6
REMARK VINA RESULT:      -5.3      3.354      6.616
REMARK  4 active torsions:
REMARK  status: ('A' for Active; 'I' for Inactive)
REMARK    1  A    between atoms: C_2  and  N_3 
REMARK    2  A    between atoms: C_2  and  C_15 
REMARK       I    between atoms: N_3  and  C_4 
REMARK    3  A    between atoms: C_4  and  C_6 
REMARK    4  A    between atoms: C_6  and  N_7 
ROOT
HETATM    1  N   UNL     1     -39.527 -51.019  12.026  1.00  0.00    -0.353 N 
HETATM    2  C   UNL     1     -40.905 -51.042  11.962  1.00  0.00     0.237 C 
HETATM    3  O   UNL     1     -41.590 -50.021  11.997  1.00  0.00    -0.272 OA
HETATM    4  H   UNL     1     -39.003 -51.890  12.003  1.00  0.00     0.163 HD
ENDROOT
BRANCH   2   5
HETATM    5  C   UNL     1     -41.523 -52.414  11.832  1.00  0.00     0.251 C 
BRANCH   5   6
HETATM    6  N   UNL     1     -42.672 -52.555  12.703  1.00  0.00    -0.288 N 
HETATM    7  N   UNL     1     -43.748 -51.770  12.479  1.00  0.00    -0.303 N 
HETATM    8  C   UNL     1     -44.626 -52.139  13.419  1.00  0.00     0.024 A 
ATOM      9  HN  UNL     1     -43.865 -51.059  11.758  1.00  0.00     0.186 HD
HETATM   10  C   UNL     1     -45.974 -51.528  13.479  1.00  0.00     0.070 C 
HETATM   11  C   UNL     1     -44.088 -53.125  14.273  1.00  0.00     0.052 A 
HETATM   12  C   UNL     1     -42.816 -53.367  13.801  1.00  0.00     0.027 A 
HETATM   13  C   UNL     1     -41.773 -54.300  14.292  1.00  0.00     0.070 C 
ENDBRANCH   5   6
ENDBRANCH   2   5
BRANCH   1  14
HETATM   14  C   UNL     1     -38.753 -49.777  12.099  1.00  0.00     0.109 C 
HETATM   15  C   UNL     1     -37.460 -49.946  11.300  1.00  0.00     0.035 C 
BRANCH  14  16
HETATM   16  C   UNL     1     -38.518 -49.392  13.575  1.00  0.00     0.143 C 
HETATM   17  C   UNL     1     -38.205 -47.920  13.831  1.00  0.00     0.036 C 
HETATM   18  C   UNL     1     -37.106 -47.934  14.876  1.00  0.00     0.029 C 
HETATM   19  C   UNL     1     -36.986 -49.385  15.282  1.00  0.00     0.168 C 
HETATM   20  O   UNL     1     -37.419 -50.133  14.142  1.00  0.00    -0.384 OA
ENDBRANCH  14  16
ENDBRANCH   1  14
TORSDOF 4
ENDMDL
MODEL 7
REMARK VINA RESULT:      -5.3      3.040      6.427
REMARK  4 active torsions:
REMARK  status: ('A' for Active; 'I' for Inactive)
REMARK    1  A    between atoms: C_2  and  N_3 
REMARK    2  A    between atoms: C_2  and  C_15 
REMARK       I    between atoms: N_3  and  C_4 
REMARK    3  A    between atoms: C_4  and  C_6 
REMARK    4  A    between atoms: C_6  and  N_7 
ROOT
HETATM    1  N   UNL     1     -41.169 -48.059  10.366  1.00  0.00    -0.353 N 
HETATM    2  C   UNL     1     -41.078 -49.094  11.273  1.00  0.00     0.237 C 
HETATM    3  O   UNL     1     -41.964 -49.344  12.090  1.00  0.00    -0.272 OA
HETATM    4  H   UNL     1     -40.407 -47.885   9.716  1.00  0.00     0.163 HD
ENDROOT
BRANCH   2   5
HETATM    5  C   UNL     1     -39.816 -49.918  11.188  1.00  0.00     0.251 C 
BRANCH   5   6
HETATM    6  N   UNL     1     -39.845 -51.018  12.132  1.00  0.00    -0.288 N 
HETATM    7  N   UNL     1     -40.707 -52.033  11.909  1.00  0.00    -0.303 N 
HETATM    8  C   UNL     1     -40.490 -52.878  12.923  1.00  0.00     0.024 A 
ATOM      9  HN  UNL     1     -41.373 -52.132  11.143  1.00  0.00     0.186 HD
HETATM   10  C   UNL     1     -41.225 -54.161  13.012  1.00  0.00     0.070 C 
HETATM   11  C   UNL     1     -39.522 -52.376  13.818  1.00  0.00     0.052 A 
HETATM   12  C   UNL     1     -39.130 -51.162  13.295  1.00  0.00     0.027 A 
HETATM   13  C   UNL     1     -38.142 -50.176  13.797  1.00  0.00     0.070 C 
ENDBRANCH   5   6
ENDBRANCH   2   5
BRANCH   1  14
HETATM   14  C   UNL     1     -42.344 -47.188  10.265  1.00  0.00     0.109 C 
HETATM   15  C   UNL     1     -43.147 -47.575   9.021  1.00  0.00     0.035 C 
BRANCH  14  16
HETATM   16  C   UNL     1     -41.903 -45.710  10.276  1.00  0.00     0.143 C 
HETATM   17  C   UNL     1     -40.398 -45.471  10.377  1.00  0.00     0.036 C 
HETATM   18  C   UNL     1     -40.254 -44.307  11.338  1.00  0.00     0.029 C 
HETATM   19  C   UNL     1     -41.670 -43.840  11.584  1.00  0.00     0.168 C 
HETATM   20  O   UNL     1     -42.490 -44.995  11.382  1.00  0.00    -0.384 OA
ENDBRANCH  14  16
ENDBRANCH   1  14
TORSDOF 4
ENDMDL
MODEL 8
REMARK VINA RESULT:      -5.3      2.517      6.729
REMARK  4 active torsions:
REMARK  status: ('A' for Active; 'I' for Inactive)
REMARK    1  A    between atoms: C_2  and  N_3 
REMARK    2  A    between atoms: C_2  and  C_15 
REMARK       I    between atoms: N_3  and  C_4 
REMARK    3  A    between atoms: C_4  and  C_6 
REMARK    4  A    between atoms: C_6  and  N_7 
ROOT
HETATM    1  N   UNL     1     -41.222 -50.212  11.440  1.00  0.00    -0.353 N 
HETATM    2  C   UNL     1     -41.788 -51.122  12.308  1.00  0.00     0.237 C 
HETATM    3  O   UNL     1     -42.412 -50.783  13.313  1.00  0.00    -0.272 OA
HETATM    4  H   UNL     1     -40.706 -50.540  10.626  1.00  0.00     0.163 HD
ENDROOT
BRANCH   2   5
HETATM    5  C   UNL     1     -41.603 -52.573  11.936  1.00  0.00     0.251 C 
BRANCH   5   6
HETATM    6  N   UNL     1     -42.320 -53.442  12.847  1.00  0.00    -0.288 N 
HETATM    7  N   UNL     1     -43.644 -53.626  12.652  1.00  0.00    -0.303 N 
HETATM    8  C   UNL     1     -44.006 -54.470  13.625  1.00  0.00     0.024 A 
ATOM      9  HN  UNL     1     -44.233 -53.215  11.928  1.00  0.00     0.186 HD
HETATM   10  C   UNL     1     -45.401 -54.959  13.724  1.00  0.00     0.070 C 
HETATM   11  C   UNL     1     -42.920 -54.785  14.469  1.00  0.00     0.052 A 
HETATM   12  C   UNL     1     -41.843 -54.094  13.957  1.00  0.00     0.027 A 
HETATM   13  C   UNL     1     -40.436 -54.033  14.421  1.00  0.00     0.070 C 
ENDBRANCH   5   6
ENDBRANCH   2   5
BRANCH   1  14
HETATM   14  C   UNL     1     -41.346 -48.762  11.610  1.00  0.00     0.109 C 
HETATM   15  C   UNL     1     -41.792 -48.139  10.286  1.00  0.00     0.035 C 
BRANCH  14  16
HETATM   16  C   UNL     1     -40.020 -48.182  12.146  1.00  0.00     0.143 C 
HETATM   17  C   UNL     1     -38.768 -48.995  11.825  1.00  0.00     0.036 C 
HETATM   18  C   UNL     1     -37.944 -48.957  13.098  1.00  0.00     0.029 C 
HETATM   19  C   UNL     1     -38.678 -47.988  13.997  1.00  0.00     0.168 C 
HETATM   20  O   UNL     1     -40.046 -48.050  13.582  1.00  0.00    -0.384 OA
ENDBRANCH  14  16
ENDBRANCH   1  14
TORSDOF 4
ENDMDL
MODEL 9
REMARK VINA RESULT:      -5.2      4.170      6.872
REMARK  4 active torsions:
REMARK  status: ('A' for Active; 'I' for Inactive)
REMARK    1  A    between atoms: C_2  and  N_3 
REMARK    2  A    between atoms: C_2  and  C_15 
REMARK       I    between atoms: N_3  and  C_4 
REMARK    3  A    between atoms: C_4  and  C_6 
REMARK    4  A    between atoms: C_6  and  N_7 
ROOT
HETATM    1  N   UNL     1     -43.226 -53.869  13.952  1.00  0.00    -0.353 N 
HETATM    2  C   UNL     1     -44.101 -54.851  14.369  1.00  0.00     0.237 C 
HETATM    3  O   UNL     1     -43.747 -55.809  15.055  1.00  0.00    -0.272 OA
HETATM    4  H   UNL     1     -43.563 -53.100  13.377  1.00  0.00     0.163 HD
ENDROOT
BRANCH   2   5
HETATM    5  C   UNL     1     -45.535 -54.665  13.937  1.00  0.00     0.251 C 
BRANCH   5   6
HETATM    6  N   UNL     1     -46.075 -53.417  14.437  1.00  0.00    -0.288 N 
HETATM    7  N   UNL     1     -46.305 -53.302  15.763  1.00  0.00    -0.303 N 
HETATM    8  C   UNL     1     -46.777 -52.059  15.909  1.00  0.00     0.024 A 
ATOM      9  HN  UNL     1     -46.153 -54.003  16.488  1.00  0.00     0.186 HD
HETATM   10  C   UNL     1     -47.112 -51.528  17.251  1.00  0.00     0.070 C 
HETATM   11  C   UNL     1     -46.894 -51.399  14.668  1.00  0.00     0.052 A 
HETATM   12  C   UNL     1     -46.449 -52.303  13.727  1.00  0.00     0.027 A 
HETATM   13  C   UNL     1     -46.340 -52.177  12.253  1.00  0.00     0.070 C 
ENDBRANCH   5   6
ENDBRANCH   2   5
BRANCH   1  14
HETATM   14  C   UNL     1     -41.808 -53.855  14.321  1.00  0.00     0.109 C 
HETATM   15  C   UNL     1     -41.656 -53.197  15.694  1.00  0.00     0.035 C 
BRANCH  14  16
HETATM   16  C   UNL     1     -40.985 -53.164  13.214  1.00  0.00     0.143 C 
HETATM   17  C   UNL     1     -39.744 -52.412  13.687  1.00  0.00     0.036 C 
HETATM   18  C   UNL     1     -39.731 -51.133  12.873  1.00  0.00     0.029 C 
HETATM   19  C   UNL     1     -40.848 -51.310  11.869  1.00  0.00     0.168 C 
HETATM   20  O   UNL     1     -41.779 -52.200  12.493  1.00  0.00    -0.384 OA
ENDBRANCH  14  16
ENDBRANCH   1  14
TORSDOF 4
ENDMDL
