MODEL 1
REMARK VINA RESULT:      -6.3      0.000      0.000
REMARK  2 active torsions:
REMARK  status: ('A' for Active; 'I' for Inactive)
REMARK    1  A    between atoms: C_7  and  N_8 
REMARK       I    between atoms: N_8  and  C_9 
REMARK       I    between atoms: C_9  and  N_11 
REMARK    2  A    between atoms: N_11  and  C_12 
ROOT
HETATM    1  N   UNL     1     -42.870 -53.527  12.160  1.00  0.00    -0.290 N 
HETATM    2  C   UNL     1     -44.154 -53.531  12.647  1.00  0.00     0.322 C 
HETATM    3  O   UNL     1     -44.889 -54.495  12.452  1.00  0.00    -0.247 OA
HETATM    4  N   UNL     1     -44.537 -52.389  13.289  1.00  0.00    -0.334 N 
HETATM    5  H   UNL     1     -42.655 -54.330  11.578  1.00  0.00     0.172 HD
HETATM    6  H   UNL     1     -43.790 -51.710  13.429  1.00  0.00     0.165 HD
ENDROOT
BRANCH   1   7
HETATM    7  C   UNL     1     -41.846 -52.613  12.337  1.00  0.00     0.178 A 
HETATM    8  N   UNL     1     -41.737 -51.531  11.617  1.00  0.00    -0.346 N 
HETATM    9  C   UNL     1     -40.715 -50.683  11.961  1.00  0.00     0.107 A 
ATOM     10  HN  UNL     1     -42.373 -51.328  10.846  1.00  0.00     0.167 HD
HETATM   11  C   UNL     1     -39.847 -50.886  12.959  1.00  0.00     0.111 A 
HETATM   12  N   UNL     1     -39.908 -52.031  13.725  1.00  0.00    -0.325 N 
HETATM   13  C   UNL     1     -38.946 -52.280  14.777  1.00  0.00     0.159 C 
HETATM   14  C   UNL     1     -40.873 -52.991  13.458  1.00  0.00     0.291 A 
HETATM   15  O   UNL     1     -41.003 -54.076  14.014  1.00  0.00    -0.264 OA
ENDBRANCH   1   7
BRANCH   4  16
HETATM   16  C   UNL     1     -45.915 -52.061  13.693  1.00  0.00     0.031 C 
HETATM   17  C   UNL     1     -46.713 -51.606  12.476  1.00  0.00     0.038 C 
HETATM   18  C   UNL     1     -45.938 -51.109  14.929  1.00  0.00     0.031 C 
HETATM   19  C   UNL     1     -47.129 -51.929  15.461  1.00  0.00     0.005 C 
HETATM   20  C   UNL     1     -46.622 -53.104  14.600  1.00  0.00     0.031 C 
ENDBRANCH   4  16
TORSDOF 2
ENDMDL
MODEL 2
REMARK VINA RESULT:      -5.5      2.876      4.161
REMARK  2 active torsions:
REMARK  status: ('A' for Active; 'I' for Inactive)
REMARK    1  A    between atoms: C_7  and  N_8 
REMARK       I    between atoms: N_8  and  C_9 
REMARK       I    between atoms: C_9  and  N_11 
REMARK    2  A    between atoms: N_11  and  C_12 
ROOT
HETATM    1  N   UNL     1     -40.530 -50.768  11.194  1.00  0.00    -0.290 N 
HETATM    2  C   UNL     1     -41.174 -51.720  11.947  1.00  0.00     0.322 C 
HETATM    3  O   UNL     1     -40.738 -52.866  12.004  1.00  0.00    -0.247 OA
HETATM    4  N   UNL     1     -42.325 -51.304  12.551  1.00  0.00    -0.334 N 
HETATM    5  H   UNL     1     -39.754 -51.136  10.655  1.00  0.00     0.172 HD
HETATM    6  H   UNL     1     -42.514 -50.306  12.463  1.00  0.00     0.165 HD
ENDROOT
BRANCH   1   7
HETATM    7  C   UNL     1     -40.775 -49.412  11.062  1.00  0.00     0.178 A 
HETATM    8  N   UNL     1     -41.627 -48.933  10.199  1.00  0.00    -0.346 N 
HETATM    9  C   UNL     1     -41.820 -47.575  10.238  1.00  0.00     0.107 A 
ATOM     10  HN  UNL     1     -42.120 -49.531   9.535  1.00  0.00     0.167 HD
HETATM   11  C   UNL     1     -41.208 -46.733  11.080  1.00  0.00     0.111 A 
HETATM   12  N   UNL     1     -40.279 -47.194  11.988  1.00  0.00    -0.325 N 
HETATM   13  C   UNL     1     -39.580 -46.286  12.871  1.00  0.00     0.159 C 
HETATM   14  C   UNL     1     -39.963 -48.544  12.028  1.00  0.00     0.291 A 
HETATM   15  O   UNL     1     -39.117 -49.080  12.736  1.00  0.00    -0.264 OA
ENDBRANCH   1   7
BRANCH   4  16
HETATM   16  C   UNL     1     -43.304 -52.182  13.213  1.00  0.00     0.031 C 
HETATM   17  C   UNL     1     -42.726 -52.700  14.525  1.00  0.00     0.038 C 
HETATM   18  C   UNL     1     -43.861 -53.260  12.232  1.00  0.00     0.031 C 
HETATM   19  C   UNL     1     -45.244 -53.042  12.874  1.00  0.00     0.005 C 
HETATM   20  C   UNL     1     -44.757 -51.640  13.294  1.00  0.00     0.031 C 
ENDBRANCH   4  16
TORSDOF 2
ENDMDL
MODEL 3
REMARK VINA RESULT:      -5.5      4.662      6.230
REMARK  2 active torsions:
REMARK  status: ('A' for Active; 'I' for Inactive)
REMARK    1  A    between atoms: C_7  and  N_8 
REMARK       I    between atoms: N_8  and  C_9 
REMARK       I    between atoms: C_9  and  N_11 
REMARK    2  A    between atoms: N_11  and  C_12 
ROOT
HETATM    1  N   UNL     1     -40.692 -49.533  10.622  1.00  0.00    -0.290 N 
HETATM    2  C   UNL     1     -41.313 -48.317  10.767  1.00  0.00     0.322 C 
HETATM    3  O   UNL     1     -42.345 -48.070  10.150  1.00  0.00    -0.247 OA
HETATM    4  N   UNL     1     -40.672 -47.429  11.581  1.00  0.00    -0.334 N 
HETATM    5  H   UNL     1     -41.118 -50.124   9.917  1.00  0.00     0.172 HD
HETATM    6  H   UNL     1     -39.864 -47.810  12.073  1.00  0.00     0.165 HD
ENDROOT
BRANCH   1   7
HETATM    7  C   UNL     1     -39.595 -50.064  11.280  1.00  0.00     0.178 A 
HETATM    8  N   UNL     1     -38.369 -49.840  10.895  1.00  0.00    -0.346 N 
HETATM    9  C   UNL     1     -37.386 -50.370  11.691  1.00  0.00     0.107 A 
ATOM     10  HN  UNL     1     -38.155 -49.304  10.054  1.00  0.00     0.167 HD
HETATM   11  C   UNL     1     -37.595 -51.081  12.805  1.00  0.00     0.111 A 
HETATM   12  N   UNL     1     -38.875 -51.366  13.231  1.00  0.00    -0.325 N 
HETATM   13  C   UNL     1     -39.110 -52.172  14.409  1.00  0.00     0.159 C 
HETATM   14  C   UNL     1     -39.963 -50.921  12.495  1.00  0.00     0.291 A 
HETATM   15  O   UNL     1     -41.146 -51.152  12.720  1.00  0.00    -0.264 OA
ENDBRANCH   1   7
BRANCH   4  16
HETATM   16  C   UNL     1     -41.009 -46.001  11.714  1.00  0.00     0.031 C 
HETATM   17  C   UNL     1     -42.386 -45.855  12.353  1.00  0.00     0.038 C 
HETATM   18  C   UNL     1     -40.784 -45.232  10.376  1.00  0.00     0.031 C 
HETATM   19  C   UNL     1     -40.223 -44.066  11.210  1.00  0.00     0.005 C 
HETATM   20  C   UNL     1     -39.899 -45.095  12.313  1.00  0.00     0.031 C 
ENDBRANCH   4  16
TORSDOF 2
ENDMDL
MODEL 4
REMARK VINA RESULT:      -5.5      1.379      2.204
REMARK  2 active torsions:
REMARK  status: ('A' for Active; 'I' for Inactive)
REMARK    1  A    between atoms: C_7  and  N_8 
REMARK       I    between atoms: N_8  and  C_9 
REMARK       I    between atoms: C_9  and  N_11 
REMARK    2  A    between atoms: N_11  and  C_12 
ROOT
HETATM    1  N   UNL     1     -42.734 -53.873  12.526  1.00  0.00    -0.290 N 
HETATM    2  C   UNL     1     -44.003 -53.899  13.052  1.00  0.00     0.322 C 
HETATM    3  O   UNL     1     -44.911 -54.466  12.452  1.00  0.00    -0.247 OA
HETATM    4  N   UNL     1     -44.163 -53.215  14.221  1.00  0.00    -0.334 N 
HETATM    5  H   UNL     1     -42.672 -54.276  11.598  1.00  0.00     0.172 HD
HETATM    6  H   UNL     1     -43.299 -52.857  14.626  1.00  0.00     0.165 HD
ENDROOT
BRANCH   1   7
HETATM    7  C   UNL     1     -41.552 -53.389  13.061  1.00  0.00     0.178 A 
HETATM    8  N   UNL     1     -40.701 -54.153  13.688  1.00  0.00    -0.346 N 
HETATM    9  C   UNL     1     -39.538 -53.548  14.093  1.00  0.00     0.107 A 
ATOM     10  HN  UNL     1     -40.888 -55.140  13.866  1.00  0.00     0.167 HD
HETATM   11  C   UNL     1     -39.229 -52.261  13.893  1.00  0.00     0.111 A 
HETATM   12  N   UNL     1     -40.113 -51.412  13.262  1.00  0.00    -0.325 N 
HETATM   13  C   UNL     1     -39.805 -50.010  13.081  1.00  0.00     0.159 C 
HETATM   14  C   UNL     1     -41.342 -51.889  12.833  1.00  0.00     0.291 A 
HETATM   15  O   UNL     1     -42.244 -51.237  12.317  1.00  0.00    -0.264 OA
ENDBRANCH   1   7
BRANCH   4  16
HETATM   16  C   UNL     1     -45.456 -52.904  14.855  1.00  0.00     0.031 C 
HETATM   17  C   UNL     1     -46.055 -54.173  15.451  1.00  0.00     0.038 C 
HETATM   18  C   UNL     1     -46.381 -52.088  13.899  1.00  0.00     0.031 C 
HETATM   19  C   UNL     1     -46.808 -51.255  15.123  1.00  0.00     0.005 C 
HETATM   20  C   UNL     1     -45.475 -51.660  15.784  1.00  0.00     0.031 C 
ENDBRANCH   4  16
TORSDOF 2
ENDMDL
MODEL 5
REMARK VINA RESULT:      -5.4      4.025      5.387
REMARK  2 active torsions:
REMARK  status: ('A' for Active; 'I' for Inactive)
REMARK    1  A    between atoms: C_7  and  N_8 
REMARK       I    between atoms: N_8  and  C_9 
REMARK       I    between atoms: C_9  and  N_11 
REMARK    2  A    between atoms: N_11  and  C_12 
ROOT
HETATM    1  N   UNL     1     -40.871 -49.305  10.729  1.00  0.00    -0.290 N 
HETATM    2  C   UNL     1     -41.135 -50.259  11.681  1.00  0.00     0.322 C 
HETATM    3  O   UNL     1     -40.301 -51.120  11.944  1.00  0.00    -0.247 OA
HETATM    4  N   UNL     1     -42.378 -50.196  12.240  1.00  0.00    -0.334 N 
HETATM    5  H   UNL     1     -39.994 -49.451  10.240  1.00  0.00     0.172 HD
HETATM    6  H   UNL     1     -42.927 -49.382  11.964  1.00  0.00     0.165 HD
ENDROOT
BRANCH   1   7
HETATM    7  C   UNL     1     -41.605 -48.196  10.342  1.00  0.00     0.178 A 
HETATM    8  N   UNL     1     -42.651 -48.282   9.569  1.00  0.00    -0.346 N 
HETATM    9  C   UNL     1     -43.321 -47.107   9.336  1.00  0.00     0.107 A 
ATOM     10  HN  UNL     1     -42.953 -49.167   9.162  1.00  0.00     0.167 HD
HETATM   11  C   UNL     1     -42.981 -45.913   9.835  1.00  0.00     0.111 A 
HETATM   12  N   UNL     1     -41.865 -45.774  10.633  1.00  0.00    -0.325 N 
HETATM   13  C   UNL     1     -41.465 -44.480  11.141  1.00  0.00     0.159 C 
HETATM   14  C   UNL     1     -41.077 -46.878  10.917  1.00  0.00     0.291 A 
HETATM   15  O   UNL     1     -40.030 -46.889  11.556  1.00  0.00    -0.264 OA
ENDBRANCH   1   7
BRANCH   4  16
HETATM   16  C   UNL     1     -42.976 -51.228  13.103  1.00  0.00     0.031 C 
HETATM   17  C   UNL     1     -42.974 -52.570  12.378  1.00  0.00     0.038 C 
HETATM   18  C   UNL     1     -44.345 -50.764  13.688  1.00  0.00     0.031 C 
HETATM   19  C   UNL     1     -43.934 -51.428  15.016  1.00  0.00     0.005 C 
HETATM   20  C   UNL     1     -42.467 -51.265  14.569  1.00  0.00     0.031 C 
ENDBRANCH   4  16
TORSDOF 2
ENDMDL
MODEL 6
REMARK VINA RESULT:      -5.3      2.610      6.065
REMARK  2 active torsions:
REMARK  status: ('A' for Active; 'I' for Inactive)
REMARK    1  A    between atoms: C_7  and  N_8 
REMARK       I    between atoms: N_8  and  C_9 
REMARK       I    between atoms: C_9  and  N_11 
REMARK    2  A    between atoms: N_11  and  C_12 
ROOT
HETATM    1  N   UNL     1     -41.395 -51.349  11.352  1.00  0.00    -0.290 N 
HETATM    2  C   UNL     1     -40.510 -50.305  11.466  1.00  0.00     0.322 C 
HETATM    3  O   UNL     1     -40.539 -49.376  10.665  1.00  0.00    -0.247 OA
HETATM    4  N   UNL     1     -39.599 -50.423  12.476  1.00  0.00    -0.334 N 
HETATM    5  H   UNL     1     -41.974 -51.299  10.521  1.00  0.00     0.172 HD
HETATM    6  H   UNL     1     -39.751 -51.218  13.095  1.00  0.00     0.165 HD
ENDROOT
BRANCH   1   7
HETATM    7  C   UNL     1     -41.613 -52.435  12.181  1.00  0.00     0.178 A 
HETATM    8  N   UNL     1     -40.887 -53.518  12.126  1.00  0.00    -0.346 N 
HETATM    9  C   UNL     1     -41.173 -54.478  13.063  1.00  0.00     0.107 A 
ATOM     10  HN  UNL     1     -40.153 -53.642  11.430  1.00  0.00     0.167 HD
HETATM   11  C   UNL     1     -42.120 -54.382  14.003  1.00  0.00     0.111 A 
HETATM   12  N   UNL     1     -42.930 -53.268  14.077  1.00  0.00    -0.325 N 
HETATM   13  C   UNL     1     -43.985 -53.174  15.062  1.00  0.00     0.159 C 
HETATM   14  C   UNL     1     -42.771 -52.236  13.164  1.00  0.00     0.291 A 
HETATM   15  O   UNL     1     -43.456 -51.223  13.074  1.00  0.00    -0.264 OA
ENDBRANCH   1   7
BRANCH   4  16
HETATM   16  C   UNL     1     -38.418 -49.562  12.660  1.00  0.00     0.031 C 
HETATM   17  C   UNL     1     -37.489 -49.700  11.459  1.00  0.00     0.038 C 
HETATM   18  C   UNL     1     -37.768 -49.774  14.062  1.00  0.00     0.031 C 
HETATM   19  C   UNL     1     -37.543 -48.251  14.120  1.00  0.00     0.005 C 
HETATM   20  C   UNL     1     -38.704 -48.106  13.115  1.00  0.00     0.031 C 
ENDBRANCH   4  16
TORSDOF 2
ENDMDL
MODEL 7
REMARK VINA RESULT:      -5.3      1.765      2.353
REMARK  2 active torsions:
REMARK  status: ('A' for Active; 'I' for Inactive)
REMARK    1  A    between atoms: C_7  and  N_8 
REMARK       I    between atoms: N_8  and  C_9 
REMARK       I    between atoms: C_9  and  N_11 
REMARK    2  A    between atoms: N_11  and  C_12 
ROOT
HETATM    1  N   UNL     1     -44.345 -54.423  13.305  1.00  0.00    -0.290 N 
HETATM    2  C   UNL     1     -45.218 -54.259  14.353  1.00  0.00     0.322 C 
HETATM    3  O   UNL     1     -46.175 -55.016  14.487  1.00  0.00    -0.247 OA
HETATM    4  N   UNL     1     -44.966 -53.188  15.159  1.00  0.00    -0.334 N 
HETATM    5  H   UNL     1     -44.628 -55.145  12.651  1.00  0.00     0.172 HD
HETATM    6  H   UNL     1     -44.095 -52.699  14.955  1.00  0.00     0.165 HD
ENDROOT
BRANCH   1   7
HETATM    7  C   UNL     1     -43.161 -53.767  13.013  1.00  0.00     0.178 A 
HETATM    8  N   UNL     1     -43.058 -52.907  12.038  1.00  0.00    -0.346 N 
HETATM    9  C   UNL     1     -41.843 -52.280  11.920  1.00  0.00     0.107 A 
ATOM     10  HN  UNL     1     -43.832 -52.712  11.404  1.00  0.00     0.167 HD
HETATM   11  C   UNL     1     -40.787 -52.487  12.716  1.00  0.00     0.111 A 
HETATM   12  N   UNL     1     -40.845 -53.410  13.738  1.00  0.00    -0.325 N 
HETATM   13  C   UNL     1     -39.694 -53.673  14.576  1.00  0.00     0.159 C 
HETATM   14  C   UNL     1     -42.005 -54.141  13.945  1.00  0.00     0.291 A 
HETATM   15  O   UNL     1     -42.174 -55.032  14.771  1.00  0.00    -0.264 OA
ENDBRANCH   1   7
BRANCH   4  16
HETATM   16  C   UNL     1     -45.874 -52.671  16.196  1.00  0.00     0.031 C 
HETATM   17  C   UNL     1     -45.946 -53.658  17.356  1.00  0.00     0.038 C 
HETATM   18  C   UNL     1     -47.239 -52.220  15.589  1.00  0.00     0.031 C 
HETATM   19  C   UNL     1     -47.202 -51.019  16.553  1.00  0.00     0.005 C 
HETATM   20  C   UNL     1     -45.669 -51.186  16.600  1.00  0.00     0.031 C 
ENDBRANCH   4  16
TORSDOF 2
ENDMDL
MODEL 8
REMARK VINA RESULT:      -5.2      1.732      2.413
REMARK  2 active torsions:
REMARK  status: ('A' for Active; 'I' for Inactive)
REMARK    1  A    between atoms: C_7  and  N_8 
REMARK       I    between atoms: N_8  and  C_9 
REMARK       I    between atoms: C_9  and  N_11 
REMARK    2  A    between atoms: N_11  and  C_12 
ROOT
HETATM    1  N   UNL     1     -40.935 -52.916  12.543  1.00  0.00    -0.290 N 
HETATM    2  C   UNL     1     -42.107 -53.264  13.169  1.00  0.00     0.322 C 
HETATM    3  O   UNL     1     -42.347 -54.440  13.427  1.00  0.00    -0.247 OA
HETATM    4  N   UNL     1     -42.966 -52.232  13.412  1.00  0.00    -0.334 N 
HETATM    5  H   UNL     1     -40.375 -53.713  12.260  1.00  0.00     0.172 HD
HETATM    6  H   UNL     1     -42.590 -51.308  13.200  1.00  0.00     0.165 HD
ENDROOT
BRANCH   1   7
HETATM    7  C   UNL     1     -40.412 -51.669  12.247  1.00  0.00     0.178 A 
HETATM    8  N   UNL     1     -40.827 -50.955  11.238  1.00  0.00    -0.346 N 
HETATM    9  C   UNL     1     -40.269 -49.707  11.117  1.00  0.00     0.107 A 
ATOM     10  HN  UNL     1     -41.524 -51.302  10.579  1.00  0.00     0.167 HD
HETATM   11  C   UNL     1     -39.352 -49.189  11.943  1.00  0.00     0.111 A 
HETATM   12  N   UNL     1     -38.864 -49.922  13.004  1.00  0.00    -0.325 N 
HETATM   13  C   UNL     1     -37.841 -49.387  13.876  1.00  0.00     0.159 C 
HETATM   14  C   UNL     1     -39.318 -51.214  13.219  1.00  0.00     0.291 A 
HETATM   15  O   UNL     1     -38.929 -51.997  14.079  1.00  0.00    -0.264 OA
ENDBRANCH   1   7
BRANCH   4  16
HETATM   16  C   UNL     1     -44.363 -52.375  13.855  1.00  0.00     0.031 C 
HETATM   17  C   UNL     1     -44.399 -52.962  15.262  1.00  0.00     0.038 C 
HETATM   18  C   UNL     1     -45.233 -53.100  12.783  1.00  0.00     0.031 C 
HETATM   19  C   UNL     1     -46.364 -52.109  13.118  1.00  0.00     0.005 C 
HETATM   20  C   UNL     1     -45.276 -51.140  13.627  1.00  0.00     0.031 C 
ENDBRANCH   4  16
TORSDOF 2
ENDMDL
MODEL 9
REMARK VINA RESULT:      -5.2      2.021      2.927
REMARK  2 active torsions:
REMARK  status: ('A' for Active; 'I' for Inactive)
REMARK    1  A    between atoms: C_7  and  N_8 
REMARK       I    between atoms: N_8  and  C_9 
REMARK       I    between atoms: C_9  and  N_11 
REMARK    2  A    between atoms: N_11  and  C_12 
ROOT
HETATM    1  N   UNL     1     -44.173 -54.813  14.540  1.00  0.00    -0.290 N 
HETATM    2  C   UNL     1     -45.246 -54.124  15.050  1.00  0.00     0.322 C 
HETATM    3  O   UNL     1     -46.330 -54.682  15.195  1.00  0.00    -0.247 OA
HETATM    4  N   UNL     1     -45.019 -52.804  15.312  1.00  0.00    -0.334 N 
HETATM    5  H   UNL     1     -44.403 -55.753  14.235  1.00  0.00     0.172 HD
HETATM    6  H   UNL     1     -44.049 -52.510  15.203  1.00  0.00     0.165 HD
ENDROOT
BRANCH   1   7
HETATM    7  C   UNL     1     -42.852 -54.429  14.384  1.00  0.00     0.178 A 
HETATM    8  N   UNL     1     -41.913 -54.792  15.212  1.00  0.00    -0.346 N 
HETATM    9  C   UNL     1     -40.640 -54.398  14.883  1.00  0.00     0.107 A 
ATOM     10  HN  UNL     1     -42.111 -55.335  16.052  1.00  0.00     0.167 HD
HETATM   11  C   UNL     1     -40.309 -53.686  13.800  1.00  0.00     0.111 A 
HETATM   12  N   UNL     1     -41.275 -53.257  12.914  1.00  0.00    -0.325 N 
HETATM   13  C   UNL     1     -40.931 -52.450  11.764  1.00  0.00     0.159 C 
HETATM   14  C   UNL     1     -42.608 -53.556  13.149  1.00  0.00     0.291 A 
HETATM   15  O   UNL     1     -43.571 -53.189  12.485  1.00  0.00    -0.264 OA
ENDBRANCH   1   7
BRANCH   4  16
HETATM   16  C   UNL     1     -46.056 -51.812  15.641  1.00  0.00     0.031 C 
HETATM   17  C   UNL     1     -46.819 -51.427  14.378  1.00  0.00     0.038 C 
HETATM   18  C   UNL     1     -45.475 -50.633  16.482  1.00  0.00     0.031 C 
HETATM   19  C   UNL     1     -46.773 -50.665  17.311  1.00  0.00     0.005 C 
HETATM   20  C   UNL     1     -46.938 -52.136  16.877  1.00  0.00     0.031 C 
ENDBRANCH   4  16
TORSDOF 2
ENDMDL
