MODEL 1
REMARK VINA RESULT:      -6.0      0.000      0.000
REMARK  4 active torsions:
REMARK  status: ('A' for Active; 'I' for Inactive)
REMARK    1  A    between atoms: N_6  and  C_7 
REMARK    2  A    between atoms: C_7  and  C_8 
REMARK       I    between atoms: C_8  and  N_10 
REMARK    3  A    between atoms: N_10  and  C_11 
REMARK    4  A    between atoms: C_11  and  C_12 
ROOT
HETATM    1  C   UNL     1     -40.510 -50.935  11.615  1.00  0.00     0.255 C 
ENDROOT
BRANCH   1   2
HETATM    2  N   UNL     1     -41.218 -52.024  12.291  1.00  0.00    -0.248 N 
HETATM    3  N   UNL     1     -42.561 -52.141  12.003  1.00  0.00    -0.305 N 
HETATM    4  C   UNL     1     -43.229 -53.027  12.666  1.00  0.00     0.133 A 
ATOM      5  HN  UNL     1     -43.008 -51.554  11.299  1.00  0.00     0.186 HD
HETATM    6  C   UNL     1     -42.681 -53.921  13.692  1.00  0.00     0.078 A 
HETATM    7 CL   UNL     1     -43.770 -55.016  14.437  1.00  0.00    -0.081 Cl
HETATM    8  C   UNL     1     -41.378 -53.809  13.959  1.00  0.00     0.126 A 
HETATM    9  C   UNL     1     -40.552 -52.802  13.234  1.00  0.00     0.285 A 
HETATM   10 CL   UNL     1     -40.573 -54.787  15.134  1.00  0.00    -0.076 Cl
HETATM   11  O   UNL     1     -39.348 -52.687  13.456  1.00  0.00    -0.265 OA
ENDBRANCH   1   2
BRANCH   1  12
HETATM   12  C   UNL     1     -41.228 -49.585  11.611  1.00  0.00     0.237 C 
HETATM   13  O   UNL     1     -41.677 -49.109  12.654  1.00  0.00    -0.272 OA
HETATM   14  N   UNL     1     -41.232 -48.887  10.429  1.00  0.00    -0.357 N 
HETATM   15  H   UNL     1     -40.817 -49.289   9.598  1.00  0.00     0.162 HD
BRANCH  14  16
HETATM   16  C   UNL     1     -41.816 -47.561  10.299  1.00  0.00     0.154 C 
BRANCH  16  17
HETATM   17  C   UNL     1     -43.105 -47.570   9.476  1.00  0.00     0.139 C 
HETATM   18  C   UNL     1     -43.422 -46.273   8.743  1.00  0.00     0.035 C 
HETATM   19  C   UNL     1     -44.928 -46.138   8.844  1.00  0.00     0.029 C 
HETATM   20  C   UNL     1     -45.380 -47.385   9.571  1.00  0.00     0.168 C 
HETATM   21  O   UNL     1     -44.244 -47.820  10.323  1.00  0.00    -0.384 OA
ENDBRANCH  16  17
ENDBRANCH  14  16
ENDBRANCH   1  12
TORSDOF 4
ENDMDL
MODEL 2
REMARK VINA RESULT:      -5.7      1.488      1.867
REMARK  4 active torsions:
REMARK  status: ('A' for Active; 'I' for Inactive)
REMARK    1  A    between atoms: N_6  and  C_7 
REMARK    2  A    between atoms: C_7  and  C_8 
REMARK       I    between atoms: C_8  and  N_10 
REMARK    3  A    between atoms: N_10  and  C_11 
REMARK    4  A    between atoms: C_11  and  C_12 
ROOT
HETATM    1  C   UNL     1     -41.162 -51.866  12.116  1.00  0.00     0.255 C 
ENDROOT
BRANCH   1   2
HETATM    2  N   UNL     1     -42.178 -52.814  12.577  1.00  0.00    -0.248 N 
HETATM    3  N   UNL     1     -43.393 -52.758  11.931  1.00  0.00    -0.305 N 
HETATM    4  C   UNL     1     -44.338 -53.512  12.390  1.00  0.00     0.133 A 
ATOM      5  HN  UNL     1     -43.542 -52.149  11.127  1.00  0.00     0.186 HD
HETATM    6  C   UNL     1     -44.226 -54.424  13.533  1.00  0.00     0.078 A 
HETATM    7 CL   UNL     1     -45.624 -55.323  13.955  1.00  0.00    -0.081 Cl
HETATM    8  C   UNL     1     -43.044 -54.481  14.148  1.00  0.00     0.126 A 
HETATM    9  C   UNL     1     -41.914 -53.632  13.673  1.00  0.00     0.285 A 
HETATM   10 CL   UNL     1     -42.740 -55.505  15.506  1.00  0.00    -0.076 Cl
HETATM   11  O   UNL     1     -40.813 -53.675  14.218  1.00  0.00    -0.265 OA
ENDBRANCH   1   2
BRANCH   1  12
HETATM   12  C   UNL     1     -41.450 -50.394  12.418  1.00  0.00     0.237 C 
HETATM   13  O   UNL     1     -42.267 -50.078  13.283  1.00  0.00    -0.272 OA
HETATM   14  N   UNL     1     -40.670 -49.465  11.775  1.00  0.00    -0.357 N 
HETATM   15  H   UNL     1     -39.978 -49.760  11.099  1.00  0.00     0.162 HD
BRANCH  14  16
HETATM   16  C   UNL     1     -40.787 -48.036  12.018  1.00  0.00     0.154 C 
BRANCH  16  17
HETATM   17  C   UNL     1     -41.754 -47.356  11.049  1.00  0.00     0.139 C 
HETATM   18  C   UNL     1     -43.173 -47.165  11.567  1.00  0.00     0.035 C 
HETATM   19  C   UNL     1     -44.055 -47.411  10.358  1.00  0.00     0.029 C 
HETATM   20  C   UNL     1     -43.089 -47.666   9.221  1.00  0.00     0.168 C 
HETATM   21  O   UNL     1     -41.887 -48.130   9.840  1.00  0.00    -0.384 OA
ENDBRANCH  16  17
ENDBRANCH  14  16
ENDBRANCH   1  12
TORSDOF 4
ENDMDL
MODEL 3
REMARK VINA RESULT:      -5.7      3.833      5.734
REMARK  4 active torsions:
REMARK  status: ('A' for Active; 'I' for Inactive)
REMARK    1  A    between atoms: N_6  and  C_7 
REMARK    2  A    between atoms: C_7  and  C_8 
REMARK       I    between atoms: C_8  and  N_10 
REMARK    3  A    between atoms: N_10  and  C_11 
REMARK    4  A    between atoms: C_11  and  C_12 
ROOT
HETATM    1  C   UNL     1     -41.474 -52.751  12.221  1.00  0.00     0.255 C 
ENDROOT
BRANCH   1   2
HETATM    2  N   UNL     1     -41.015 -51.364  12.130  1.00  0.00    -0.248 N 
HETATM    3  N   UNL     1     -41.961 -50.440  11.742  1.00  0.00    -0.305 N 
HETATM    4  C   UNL     1     -41.555 -49.227  11.552  1.00  0.00     0.133 A 
ATOM      5  HN  UNL     1     -42.938 -50.701  11.609  1.00  0.00     0.186 HD
HETATM    6  C   UNL     1     -40.179 -48.750  11.721  1.00  0.00     0.078 A 
HETATM    7 CL   UNL     1     -39.884 -47.090  11.409  1.00  0.00    -0.081 Cl
HETATM    8  C   UNL     1     -39.269 -49.647  12.106  1.00  0.00     0.126 A 
HETATM    9  C   UNL     1     -39.671 -51.065  12.335  1.00  0.00     0.285 A 
HETATM   10 CL   UNL     1     -37.606 -49.252  12.355  1.00  0.00    -0.076 Cl
HETATM   11  O   UNL     1     -38.853 -51.907  12.699  1.00  0.00    -0.265 OA
ENDBRANCH   1   2
BRANCH   1  12
HETATM   12  C   UNL     1     -42.442 -53.051  13.367  1.00  0.00     0.237 C 
HETATM   13  O   UNL     1     -42.416 -52.385  14.402  1.00  0.00    -0.272 OA
HETATM   14  N   UNL     1     -43.407 -53.999  13.132  1.00  0.00    -0.357 N 
HETATM   15  H   UNL     1     -43.426 -54.501  12.253  1.00  0.00     0.162 HD
BRANCH  14  16
HETATM   16  C   UNL     1     -44.434 -54.335  14.105  1.00  0.00     0.154 C 
BRANCH  16  17
HETATM   17  C   UNL     1     -45.704 -53.502  13.924  1.00  0.00     0.139 C 
HETATM   18  C   UNL     1     -45.841 -52.803  12.577  1.00  0.00     0.035 C 
HETATM   19  C   UNL     1     -46.473 -51.464  12.907  1.00  0.00     0.029 C 
HETATM   20  C   UNL     1     -46.710 -51.506  14.401  1.00  0.00     0.168 C 
HETATM   21  O   UNL     1     -45.765 -52.451  14.909  1.00  0.00    -0.384 OA
ENDBRANCH  16  17
ENDBRANCH  14  16
ENDBRANCH   1  12
TORSDOF 4
ENDMDL
MODEL 4
REMARK VINA RESULT:      -5.6      2.058      2.712
REMARK  4 active torsions:
REMARK  status: ('A' for Active; 'I' for Inactive)
REMARK    1  A    between atoms: N_6  and  C_7 
REMARK    2  A    between atoms: C_7  and  C_8 
REMARK       I    between atoms: C_8  and  N_10 
REMARK    3  A    between atoms: N_10  and  C_11 
REMARK    4  A    between atoms: C_11  and  C_12 
ROOT
HETATM    1  C   UNL     1     -40.394 -49.814  11.265  1.00  0.00     0.255 C 
ENDROOT
BRANCH   1   2
HETATM    2  N   UNL     1     -40.803 -51.054  11.928  1.00  0.00    -0.248 N 
HETATM    3  N   UNL     1     -42.146 -51.353  11.871  1.00  0.00    -0.305 N 
HETATM    4  C   UNL     1     -42.547 -52.386  12.537  1.00  0.00     0.133 A 
ATOM      5  HN  UNL     1     -42.797 -50.785  11.328  1.00  0.00     0.186 HD
HETATM    6  C   UNL     1     -41.695 -53.269  13.341  1.00  0.00     0.078 A 
HETATM    7 CL   UNL     1     -42.460 -54.581  14.137  1.00  0.00    -0.081 Cl
HETATM    8  C   UNL     1     -40.393 -52.979  13.384  1.00  0.00     0.126 A 
HETATM    9  C   UNL     1     -39.868 -51.797  12.643  1.00  0.00     0.285 A 
HETATM   10 CL   UNL     1     -39.251 -53.918  14.278  1.00  0.00    -0.076 Cl
HETATM   11  O   UNL     1     -38.671 -51.516  12.660  1.00  0.00    -0.265 OA
ENDBRANCH   1   2
BRANCH   1  12
HETATM   12  C   UNL     1     -41.434 -48.692  11.268  1.00  0.00     0.237 C 
HETATM   13  O   UNL     1     -42.207 -48.554  12.216  1.00  0.00    -0.272 OA
HETATM   14  N   UNL     1     -41.373 -47.788  10.236  1.00  0.00    -0.357 N 
HETATM   15  H   UNL     1     -40.697 -47.906   9.492  1.00  0.00     0.162 HD
BRANCH  14  16
HETATM   16  C   UNL     1     -42.254 -46.633  10.149  1.00  0.00     0.154 C 
BRANCH  16  17
HETATM   17  C   UNL     1     -41.572 -45.344  10.608  1.00  0.00     0.139 C 
HETATM   18  C   UNL     1     -40.056 -45.317  10.462  1.00  0.00     0.035 C 
HETATM   19  C   UNL     1     -39.570 -44.571  11.689  1.00  0.00     0.029 C 
HETATM   20  C   UNL     1     -40.831 -44.169  12.422  1.00  0.00     0.168 C 
HETATM   21  O   UNL     1     -41.828 -45.107  12.006  1.00  0.00    -0.384 OA
ENDBRANCH  16  17
ENDBRANCH  14  16
ENDBRANCH   1  12
TORSDOF 4
ENDMDL
MODEL 5
REMARK VINA RESULT:      -5.5      2.951      4.145
REMARK  4 active torsions:
REMARK  status: ('A' for Active; 'I' for Inactive)
REMARK    1  A    between atoms: N_6  and  C_7 
REMARK    2  A    between atoms: C_7  and  C_8 
REMARK       I    between atoms: C_8  and  N_10 
REMARK    3  A    between atoms: N_10  and  C_11 
REMARK    4  A    between atoms: C_11  and  C_12 
ROOT
HETATM    1  C   UNL     1     -41.025 -52.466  11.894  1.00  0.00     0.255 C 
ENDROOT
BRANCH   1   2
HETATM    2  N   UNL     1     -42.143 -53.201  12.489  1.00  0.00    -0.248 N 
HETATM    3  N   UNL     1     -43.381 -52.970  11.930  1.00  0.00    -0.305 N 
HETATM    4  C   UNL     1     -44.398 -53.526  12.504  1.00  0.00     0.133 A 
ATOM      5  HN  UNL     1     -43.491 -52.387  11.100  1.00  0.00     0.186 HD
HETATM    6  C   UNL     1     -44.346 -54.384  13.692  1.00  0.00     0.078 A 
HETATM    7 CL   UNL     1     -45.835 -55.006  14.272  1.00  0.00    -0.081 Cl
HETATM    8  C   UNL     1     -43.143 -54.611  14.223  1.00  0.00     0.126 A 
HETATM    9  C   UNL     1     -41.931 -53.994  13.613  1.00  0.00     0.285 A 
HETATM   10 CL   UNL     1     -42.904 -55.600  15.619  1.00  0.00    -0.076 Cl
HETATM   11  O   UNL     1     -40.810 -54.197  14.079  1.00  0.00    -0.265 OA
ENDBRANCH   1   2
BRANCH   1  12
HETATM   12  C   UNL     1     -41.131 -50.942  11.956  1.00  0.00     0.237 C 
HETATM   13  O   UNL     1     -42.060 -50.401  12.557  1.00  0.00    -0.272 OA
HETATM   14  N   UNL     1     -40.087 -50.225  11.427  1.00  0.00    -0.357 N 
HETATM   15  H   UNL     1     -39.317 -50.702  10.976  1.00  0.00     0.162 HD
BRANCH  14  16
HETATM   16  C   UNL     1     -40.022 -48.773  11.479  1.00  0.00     0.154 C 
BRANCH  16  17
HETATM   17  C   UNL     1     -39.070 -48.270  12.564  1.00  0.00     0.139 C 
HETATM   18  C   UNL     1     -37.862 -49.155  12.837  1.00  0.00     0.035 C 
HETATM   19  C   UNL     1     -37.664 -49.077  14.338  1.00  0.00     0.029 C 
HETATM   20  C   UNL     1     -38.727 -48.112  14.818  1.00  0.00     0.168 C 
HETATM   21  O   UNL     1     -39.757 -48.158  13.827  1.00  0.00    -0.384 OA
ENDBRANCH  16  17
ENDBRANCH  14  16
ENDBRANCH   1  12
TORSDOF 4
ENDMDL
MODEL 6
REMARK VINA RESULT:      -5.4      4.188      7.531
REMARK  4 active torsions:
REMARK  status: ('A' for Active; 'I' for Inactive)
REMARK    1  A    between atoms: N_6  and  C_7 
REMARK    2  A    between atoms: C_7  and  C_8 
REMARK       I    between atoms: C_8  and  N_10 
REMARK    3  A    between atoms: N_10  and  C_11 
REMARK    4  A    between atoms: C_11  and  C_12 
ROOT
HETATM    1  C   UNL     1     -39.513 -49.243  11.623  1.00  0.00     0.255 C 
ENDROOT
BRANCH   1   2
HETATM    2  N   UNL     1     -39.881 -47.827  11.683  1.00  0.00    -0.248 N 
HETATM    3  N   UNL     1     -40.526 -47.324  10.574  1.00  0.00    -0.305 N 
HETATM    4  C   UNL     1     -40.767 -46.054  10.560  1.00  0.00     0.133 A 
ATOM      5  HN  UNL     1     -40.802 -47.927   9.799  1.00  0.00     0.186 HD
HETATM    6  C   UNL     1     -40.419 -45.105  11.623  1.00  0.00     0.078 A 
HETATM    7 CL   UNL     1     -40.843 -43.463  11.374  1.00  0.00    -0.081 Cl
HETATM    8  C   UNL     1     -39.803 -45.600  12.698  1.00  0.00     0.126 A 
HETATM    9  C   UNL     1     -39.490 -47.056  12.774  1.00  0.00     0.285 A 
HETATM   10 CL   UNL     1     -39.327 -44.623  14.041  1.00  0.00    -0.076 Cl
HETATM   11  O   UNL     1     -38.930 -47.536  13.759  1.00  0.00    -0.265 OA
ENDBRANCH   1   2
BRANCH   1  12
HETATM   12  C   UNL     1     -40.657 -50.231  11.857  1.00  0.00     0.237 C 
HETATM   13  O   UNL     1     -41.817 -49.835  11.967  1.00  0.00    -0.272 OA
HETATM   14  N   UNL     1     -40.342 -51.567  11.809  1.00  0.00    -0.357 N 
HETATM   15  H   UNL     1     -39.383 -51.861  11.675  1.00  0.00     0.162 HD
BRANCH  14  16
HETATM   16  C   UNL     1     -41.340 -52.616  11.944  1.00  0.00     0.154 C 
BRANCH  16  17
HETATM   17  C   UNL     1     -40.835 -53.799  12.770  1.00  0.00     0.139 C 
HETATM   18  C   UNL     1     -41.687 -54.166  13.977  1.00  0.00     0.035 C 
HETATM   19  C   UNL     1     -40.685 -54.564  15.043  1.00  0.00     0.029 C 
HETATM   20  C   UNL     1     -39.337 -54.457  14.365  1.00  0.00     0.168 C 
HETATM   21  O   UNL     1     -39.521 -53.525  13.296  1.00  0.00    -0.384 OA
ENDBRANCH  16  17
ENDBRANCH  14  16
ENDBRANCH   1  12
TORSDOF 4
ENDMDL
MODEL 7
REMARK VINA RESULT:      -5.4      3.987      7.367
REMARK  4 active torsions:
REMARK  status: ('A' for Active; 'I' for Inactive)
REMARK    1  A    between atoms: N_6  and  C_7 
REMARK    2  A    between atoms: C_7  and  C_8 
REMARK       I    between atoms: C_8  and  N_10 
REMARK    3  A    between atoms: N_10  and  C_11 
REMARK    4  A    between atoms: C_11  and  C_12 
ROOT
HETATM    1  C   UNL     1     -40.684 -49.569  11.424  1.00  0.00     0.255 C 
ENDROOT
BRANCH   1   2
HETATM    2  N   UNL     1     -41.400 -48.355  11.029  1.00  0.00    -0.248 N 
HETATM    3  N   UNL     1     -42.657 -48.542  10.498  1.00  0.00    -0.305 N 
HETATM    4  C   UNL     1     -43.266 -47.495  10.045  1.00  0.00     0.133 A 
ATOM      5  HN  UNL     1     -43.089 -49.465  10.463  1.00  0.00     0.186 HD
HETATM    6  C   UNL     1     -42.736 -46.127  10.055  1.00  0.00     0.078 A 
HETATM    7 CL   UNL     1     -43.734 -44.898   9.394  1.00  0.00    -0.081 Cl
HETATM    8  C   UNL     1     -41.522 -45.951  10.579  1.00  0.00     0.126 A 
HETATM    9  C   UNL     1     -40.765 -47.119  11.113  1.00  0.00     0.285 A 
HETATM   10 CL   UNL     1     -40.754 -44.406  10.673  1.00  0.00    -0.076 Cl
HETATM   11  O   UNL     1     -39.648 -46.980  11.609  1.00  0.00    -0.265 OA
ENDBRANCH   1   2
BRANCH   1  12
HETATM   12  C   UNL     1     -41.508 -50.595  12.204  1.00  0.00     0.237 C 
HETATM   13  O   UNL     1     -42.207 -50.247  13.156  1.00  0.00    -0.272 OA
HETATM   14  N   UNL     1     -41.525 -51.878  11.715  1.00  0.00    -0.357 N 
HETATM   15  H   UNL     1     -40.971 -52.123  10.904  1.00  0.00     0.162 HD
BRANCH  14  16
HETATM   16  C   UNL     1     -42.320 -52.938  12.314  1.00  0.00     0.154 C 
BRANCH  16  17
HETATM   17  C   UNL     1     -41.470 -53.921  13.119  1.00  0.00     0.139 C 
HETATM   18  C   UNL     1     -41.647 -53.855  14.630  1.00  0.00     0.035 C 
HETATM   19  C   UNL     1     -40.256 -54.085  15.187  1.00  0.00     0.029 C 
HETATM   20  C   UNL     1     -39.388 -54.325  13.971  1.00  0.00     0.168 C 
HETATM   21  O   UNL     1     -40.067 -53.685  12.887  1.00  0.00    -0.384 OA
ENDBRANCH  16  17
ENDBRANCH  14  16
ENDBRANCH   1  12
TORSDOF 4
ENDMDL
MODEL 8
REMARK VINA RESULT:      -5.4      4.375      7.510
REMARK  4 active torsions:
REMARK  status: ('A' for Active; 'I' for Inactive)
REMARK    1  A    between atoms: N_6  and  C_7 
REMARK    2  A    between atoms: C_7  and  C_8 
REMARK       I    between atoms: C_8  and  N_10 
REMARK    3  A    between atoms: N_10  and  C_11 
REMARK    4  A    between atoms: C_11  and  C_12 
ROOT
HETATM    1  C   UNL     1     -41.696 -48.185  10.371  1.00  0.00     0.255 C 
ENDROOT
BRANCH   1   2
HETATM    2  N   UNL     1     -41.441 -46.800  10.772  1.00  0.00    -0.248 N 
HETATM    3  N   UNL     1     -40.339 -46.201  10.203  1.00  0.00    -0.305 N 
HETATM    4  C   UNL     1     -40.033 -45.016  10.620  1.00  0.00     0.133 A 
ATOM      5  HN  UNL     1     -39.788 -46.670   9.484  1.00  0.00     0.186 HD
HETATM    6  C   UNL     1     -40.760 -44.254  11.641  1.00  0.00     0.078 A 
HETATM    7 CL   UNL     1     -40.159 -42.696  12.030  1.00  0.00    -0.081 Cl
HETATM    8  C   UNL     1     -41.832 -44.837  12.182  1.00  0.00     0.126 A 
HETATM    9  C   UNL     1     -42.235 -46.205  11.749  1.00  0.00     0.285 A 
HETATM   10 CL   UNL     1     -42.804 -44.078  13.393  1.00  0.00    -0.076 Cl
HETATM   11  O   UNL     1     -43.224 -46.759  12.226  1.00  0.00    -0.265 OA
ENDBRANCH   1   2
BRANCH   1  12
HETATM   12  C   UNL     1     -40.926 -49.250  11.154  1.00  0.00     0.237 C 
HETATM   13  O   UNL     1     -39.788 -49.026  11.567  1.00  0.00    -0.272 OA
HETATM   14  N   UNL     1     -41.607 -50.398  11.475  1.00  0.00    -0.357 N 
HETATM   15  H   UNL     1     -42.557 -50.534  11.154  1.00  0.00     0.162 HD
BRANCH  14  16
HETATM   16  C   UNL     1     -41.022 -51.463  12.274  1.00  0.00     0.154 C 
BRANCH  16  17
HETATM   17  C   UNL     1     -42.065 -52.205  13.111  1.00  0.00     0.139 C 
HETATM   18  C   UNL     1     -41.526 -53.338  13.973  1.00  0.00     0.035 C 
HETATM   19  C   UNL     1     -42.598 -54.408  13.908  1.00  0.00     0.029 C 
HETATM   20  C   UNL     1     -43.700 -53.800  13.068  1.00  0.00     0.168 C 
HETATM   21  O   UNL     1     -43.059 -52.809  12.260  1.00  0.00    -0.384 OA
ENDBRANCH  16  17
ENDBRANCH  14  16
ENDBRANCH   1  12
TORSDOF 4
ENDMDL
MODEL 9
REMARK VINA RESULT:      -5.3      4.220      5.457
REMARK  4 active torsions:
REMARK  status: ('A' for Active; 'I' for Inactive)
REMARK    1  A    between atoms: N_6  and  C_7 
REMARK    2  A    between atoms: C_7  and  C_8 
REMARK       I    between atoms: C_8  and  N_10 
REMARK    3  A    between atoms: N_10  and  C_11 
REMARK    4  A    between atoms: C_11  and  C_12 
ROOT
HETATM    1  C   UNL     1     -41.122 -54.269  12.978  1.00  0.00     0.255 C 
ENDROOT
BRANCH   1   2
HETATM    2  N   UNL     1     -42.424 -53.930  13.556  1.00  0.00    -0.248 N 
HETATM    3  N   UNL     1     -42.935 -54.833  14.462  1.00  0.00    -0.305 N 
HETATM    4  C   UNL     1     -44.128 -54.609  14.906  1.00  0.00     0.133 A 
ATOM      5  HN  UNL     1     -42.397 -55.644  14.769  1.00  0.00     0.186 HD
HETATM    6  C   UNL     1     -44.980 -53.474  14.534  1.00  0.00     0.078 A 
HETATM    7 CL   UNL     1     -46.532 -53.392  15.259  1.00  0.00    -0.081 Cl
HETATM    8  C   UNL     1     -44.476 -52.598  13.664  1.00  0.00     0.126 A 
HETATM    9  C   UNL     1     -43.107 -52.803  13.108  1.00  0.00     0.285 A 
HETATM   10 CL   UNL     1     -45.343 -51.205  13.123  1.00  0.00    -0.076 Cl
HETATM   11  O   UNL     1     -42.618 -52.004  12.312  1.00  0.00    -0.265 OA
ENDBRANCH   1   2
BRANCH   1  12
HETATM   12  C   UNL     1     -39.905 -53.755  13.749  1.00  0.00     0.237 C 
HETATM   13  O   UNL     1     -39.068 -54.539  14.197  1.00  0.00    -0.272 OA
HETATM   14  N   UNL     1     -39.733 -52.394  13.801  1.00  0.00    -0.357 N 
HETATM   15  H   UNL     1     -40.419 -51.777  13.386  1.00  0.00     0.162 HD
BRANCH  14  16
HETATM   16  C   UNL     1     -38.585 -51.770  14.439  1.00  0.00     0.154 C 
BRANCH  16  17
HETATM   17  C   UNL     1     -37.897 -50.748  13.533  1.00  0.00     0.139 C 
HETATM   18  C   UNL     1     -38.716 -49.506  13.207  1.00  0.00     0.035 C 
HETATM   19  C   UNL     1     -38.379 -49.197  11.761  1.00  0.00     0.029 C 
HETATM   20  C   UNL     1     -37.353 -50.239  11.373  1.00  0.00     0.168 C 
HETATM   21  O   UNL     1     -37.574 -51.340  12.259  1.00  0.00    -0.384 OA
ENDBRANCH  16  17
ENDBRANCH  14  16
ENDBRANCH   1  12
TORSDOF 4
ENDMDL
