MODEL 1
REMARK VINA RESULT:      -5.3      0.000      0.000
REMARK  7 active torsions:
REMARK  status: ('A' for Active; 'I' for Inactive)
REMARK    1  A    between atoms: O_2  and  C_3 
REMARK    2  A    between atoms: C_3  and  C_4 
REMARK    3  A    between atoms: C_4  and  O_5 
REMARK    4  A    between atoms: O_5  and  C_6 
REMARK    5  A    between atoms: C_12  and  C_13 
REMARK       I    between atoms: C_13  and  N_15 
REMARK    6  A    between atoms: N_15  and  C_16 
REMARK    7  A    between atoms: C_16  and  C_18 
ROOT
HETATM    1  C   UNL     1     -42.948 -49.908  12.902  1.00  0.00     0.256 C 
HETATM    2  O   UNL     1     -43.306 -49.628  14.045  1.00  0.00    -0.267 OA
HETATM    3  N   UNL     1     -42.914 -51.205  12.435  1.00  0.00    -0.349 N 
HETATM    4  H   UNL     1     -42.699 -51.357  11.455  1.00  0.00     0.163 HD
ENDROOT
BRANCH   1   5
HETATM    5  C   UNL     1     -42.513 -48.815  11.985  1.00  0.00     0.083 A 
HETATM    6  C   UNL     1     -41.382 -48.834  11.168  1.00  0.00     0.158 A 
HETATM    7  N   UNL     1     -41.011 -47.783  10.388  1.00  0.00    -0.346 N 
HETATM    8  C   UNL     1     -41.785 -46.679  10.405  1.00  0.00     0.090 A 
ATOM      9  HN  UNL     1     -40.174 -47.829   9.807  1.00  0.00     0.167 HD
HETATM   10  C   UNL     1     -42.923 -46.560  11.175  1.00  0.00     0.018 A 
HETATM   11  C   UNL     1     -43.287 -47.642  11.972  1.00  0.00     0.023 A 
BRANCH   6  12
HETATM   12  O   UNL     1     -40.603 -49.975  11.105  1.00  0.00    -0.333 OA
BRANCH  12  13
HETATM   13  C   UNL     1     -39.324 -49.811  11.741  1.00  0.00     0.203 C 
BRANCH  13  14
HETATM   14  C   UNL     1     -39.287 -50.612  13.041  1.00  0.00     0.193 C 
BRANCH  14  15
HETATM   15  O   UNL     1     -38.285 -51.629  12.938  1.00  0.00    -0.394 OA
HETATM   16  C   UNL     1     -37.043 -51.109  12.484  1.00  0.00     0.201 C 
ENDBRANCH  14  15
ENDBRANCH  13  14
ENDBRANCH  12  13
ENDBRANCH   6  12
ENDBRANCH   1   5
BRANCH   3  17
HETATM   17  C   UNL     1     -43.295 -52.347  13.246  1.00  0.00     0.109 C 
HETATM   18  C   UNL     1     -44.125 -53.338  12.433  1.00  0.00     0.037 C 
BRANCH  17  19
HETATM   19  C   UNL     1     -42.042 -52.976  13.828  1.00  0.00    -0.058 C 
HETATM   20  C   UNL     1     -41.287 -53.821  13.108  1.00  0.00     0.008 C 
HETATM   21  C   UNL     1     -40.041 -54.488  13.582  1.00  0.00     0.299 C 
HETATM   22  N   UNL     1     -39.497 -54.077  14.867  1.00  0.00     0.087 N 
HETATM   23  C   UNL     1     -38.931 -55.203  15.604  1.00  0.00     0.310 C 
HETATM   24  C   UNL     1     -40.299 -53.212  15.727  1.00  0.00     0.276 C 
HETATM   25  C   UNL     1     -41.639 -52.637  15.233  1.00  0.00     0.066 C 
ENDBRANCH  17  19
ENDBRANCH   3  17
TORSDOF 7
ENDMDL
MODEL 2
REMARK VINA RESULT:      -5.3      2.653      4.341
REMARK  7 active torsions:
REMARK  status: ('A' for Active; 'I' for Inactive)
REMARK    1  A    between atoms: O_2  and  C_3 
REMARK    2  A    between atoms: C_3  and  C_4 
REMARK    3  A    between atoms: C_4  and  O_5 
REMARK    4  A    between atoms: O_5  and  C_6 
REMARK    5  A    between atoms: C_12  and  C_13 
REMARK       I    between atoms: C_13  and  N_15 
REMARK    6  A    between atoms: N_15  and  C_16 
REMARK    7  A    between atoms: C_16  and  C_18 
ROOT
HETATM    1  C   UNL     1     -42.764 -48.869  11.762  1.00  0.00     0.256 C 
HETATM    2  O   UNL     1     -43.392 -48.813  12.817  1.00  0.00    -0.267 OA
HETATM    3  N   UNL     1     -41.797 -49.823  11.527  1.00  0.00    -0.349 N 
HETATM    4  H   UNL     1     -41.384 -49.870  10.600  1.00  0.00     0.163 HD
ENDROOT
BRANCH   1   5
HETATM    5  C   UNL     1     -43.034 -47.859  10.698  1.00  0.00     0.083 A 
HETATM    6  C   UNL     1     -42.108 -46.960  10.168  1.00  0.00     0.158 A 
HETATM    7  N   UNL     1     -42.429 -46.028   9.230  1.00  0.00    -0.346 N 
HETATM    8  C   UNL     1     -43.704 -45.985   8.793  1.00  0.00     0.090 A 
ATOM      9  HN  UNL     1     -41.727 -45.382   8.870  1.00  0.00     0.167 HD
HETATM   10  C   UNL     1     -44.693 -46.830   9.250  1.00  0.00     0.018 A 
HETATM   11  C   UNL     1     -44.351 -47.774  10.213  1.00  0.00     0.023 A 
BRANCH   6  12
HETATM   12  O   UNL     1     -40.787 -47.021  10.574  1.00  0.00    -0.333 OA
BRANCH  12  13
HETATM   13  C   UNL     1     -40.396 -45.884  11.363  1.00  0.00     0.203 C 
BRANCH  13  14
HETATM   14  C   UNL     1     -39.522 -44.951  10.528  1.00  0.00     0.193 C 
BRANCH  14  15
HETATM   15  O   UNL     1     -40.301 -43.824  10.112  1.00  0.00    -0.394 OA
HETATM   16  C   UNL     1     -40.801 -43.085  11.217  1.00  0.00     0.201 C 
ENDBRANCH  14  15
ENDBRANCH  13  14
ENDBRANCH  12  13
ENDBRANCH   6  12
ENDBRANCH   1   5
BRANCH   3  17
HETATM   17  C   UNL     1     -41.437 -50.841  12.497  1.00  0.00     0.109 C 
HETATM   18  C   UNL     1     -41.357 -52.215  11.839  1.00  0.00     0.037 C 
BRANCH  17  19
HETATM   19  C   UNL     1     -40.137 -50.439  13.170  1.00  0.00    -0.058 C 
HETATM   20  C   UNL     1     -39.744 -51.006  14.322  1.00  0.00     0.008 C 
HETATM   21  C   UNL     1     -38.488 -50.687  15.060  1.00  0.00     0.299 C 
HETATM   22  N   UNL     1     -37.523 -49.811  14.413  1.00  0.00     0.087 N 
HETATM   23  C   UNL     1     -36.873 -48.919  15.368  1.00  0.00     0.310 C 
HETATM   24  C   UNL     1     -37.915 -49.112  13.192  1.00  0.00     0.276 C 
HETATM   25  C   UNL     1     -39.274 -49.393  12.527  1.00  0.00     0.066 C 
ENDBRANCH  17  19
ENDBRANCH   3  17
TORSDOF 7
ENDMDL
MODEL 3
REMARK VINA RESULT:      -5.3      2.582      5.133
REMARK  7 active torsions:
REMARK  status: ('A' for Active; 'I' for Inactive)
REMARK    1  A    between atoms: O_2  and  C_3 
REMARK    2  A    between atoms: C_3  and  C_4 
REMARK    3  A    between atoms: C_4  and  O_5 
REMARK    4  A    between atoms: O_5  and  C_6 
REMARK    5  A    between atoms: C_12  and  C_13 
REMARK       I    between atoms: C_13  and  N_15 
REMARK    6  A    between atoms: N_15  and  C_16 
REMARK    7  A    between atoms: C_16  and  C_18 
ROOT
HETATM    1  C   UNL     1     -40.704 -49.326  11.507  1.00  0.00     0.256 C 
HETATM    2  O   UNL     1     -39.729 -49.946  11.085  1.00  0.00    -0.267 OA
HETATM    3  N   UNL     1     -41.702 -49.930  12.242  1.00  0.00    -0.349 N 
HETATM    4  H   UNL     1     -42.428 -49.343  12.639  1.00  0.00     0.163 HD
ENDROOT
BRANCH   1   5
HETATM    5  C   UNL     1     -40.832 -47.873  11.201  1.00  0.00     0.083 A 
HETATM    6  C   UNL     1     -41.810 -47.289  10.395  1.00  0.00     0.158 A 
HETATM    7  N   UNL     1     -41.846 -45.958  10.115  1.00  0.00    -0.346 N 
HETATM    8  C   UNL     1     -40.891 -45.173  10.653  1.00  0.00     0.090 A 
ATOM      9  HN  UNL     1     -42.573 -45.566   9.515  1.00  0.00     0.167 HD
HETATM   10  C   UNL     1     -39.883 -45.650  11.464  1.00  0.00     0.018 A 
HETATM   11  C   UNL     1     -39.856 -47.014  11.738  1.00  0.00     0.023 A 
BRANCH   6  12
HETATM   12  O   UNL     1     -42.823 -48.073   9.872  1.00  0.00    -0.333 OA
BRANCH  12  13
HETATM   13  C   UNL     1     -43.420 -47.498   8.698  1.00  0.00     0.203 C 
BRANCH  13  14
HETATM   14  C   UNL     1     -44.929 -47.365   8.897  1.00  0.00     0.193 C 
BRANCH  14  15
HETATM   15  O   UNL     1     -45.598 -48.326   8.074  1.00  0.00    -0.394 OA
HETATM   16  C   UNL     1     -46.799 -48.795   8.673  1.00  0.00     0.201 C 
ENDBRANCH  14  15
ENDBRANCH  13  14
ENDBRANCH  12  13
ENDBRANCH   6  12
ENDBRANCH   1   5
BRANCH   3  17
HETATM   17  C   UNL     1     -41.690 -51.342  12.581  1.00  0.00     0.109 C 
HETATM   18  C   UNL     1     -40.699 -51.622  13.708  1.00  0.00     0.037 C 
BRANCH  17  19
HETATM   19  C   UNL     1     -43.103 -51.775  12.926  1.00  0.00    -0.058 C 
HETATM   20  C   UNL     1     -43.992 -50.908  13.438  1.00  0.00     0.008 C 
HETATM   21  C   UNL     1     -45.401 -51.230  13.807  1.00  0.00     0.299 C 
HETATM   22  N   UNL     1     -45.918 -52.539  13.441  1.00  0.00     0.087 N 
HETATM   23  C   UNL     1     -46.809 -53.078  14.464  1.00  0.00     0.310 C 
HETATM   24  C   UNL     1     -44.989 -53.548  12.941  1.00  0.00     0.276 C 
HETATM   25  C   UNL     1     -43.512 -53.197  12.682  1.00  0.00     0.066 C 
ENDBRANCH  17  19
ENDBRANCH   3  17
TORSDOF 7
ENDMDL
MODEL 4
REMARK VINA RESULT:      -5.2      1.733      2.931
REMARK  7 active torsions:
REMARK  status: ('A' for Active; 'I' for Inactive)
REMARK    1  A    between atoms: O_2  and  C_3 
REMARK    2  A    between atoms: C_3  and  C_4 
REMARK    3  A    between atoms: C_4  and  O_5 
REMARK    4  A    between atoms: O_5  and  C_6 
REMARK    5  A    between atoms: C_12  and  C_13 
REMARK       I    between atoms: C_13  and  N_15 
REMARK    6  A    between atoms: N_15  and  C_16 
REMARK    7  A    between atoms: C_16  and  C_18 
ROOT
HETATM    1  C   UNL     1     -41.778 -50.853  12.625  1.00  0.00     0.256 C 
HETATM    2  O   UNL     1     -41.895 -50.884  13.849  1.00  0.00    -0.267 OA
HETATM    3  N   UNL     1     -41.531 -51.984  11.877  1.00  0.00    -0.349 N 
HETATM    4  H   UNL     1     -41.540 -51.903  10.865  1.00  0.00     0.163 HD
ENDROOT
BRANCH   1   5
HETATM    5  C   UNL     1     -41.884 -49.546  11.916  1.00  0.00     0.083 A 
HETATM    6  C   UNL     1     -40.906 -48.975  11.100  1.00  0.00     0.158 A 
HETATM    7  N   UNL     1     -41.043 -47.754  10.517  1.00  0.00    -0.346 N 
HETATM    8  C   UNL     1     -42.186 -47.073  10.738  1.00  0.00     0.090 A 
ATOM      9  HN  UNL     1     -40.304 -47.365   9.931  1.00  0.00     0.167 HD
HETATM   10  C   UNL     1     -43.213 -47.548  11.526  1.00  0.00     0.018 A 
HETATM   11  C   UNL     1     -43.057 -48.797  12.119  1.00  0.00     0.023 A 
BRANCH   6  12
HETATM   12  O   UNL     1     -39.747 -49.680  10.827  1.00  0.00    -0.333 OA
BRANCH  12  13
HETATM   13  C   UNL     1     -38.624 -49.220  11.598  1.00  0.00     0.203 C 
BRANCH  13  14
HETATM   14  C   UNL     1     -37.370 -49.996  11.199  1.00  0.00     0.193 C 
BRANCH  14  15
HETATM   15  O   UNL     1     -37.292 -51.195  11.977  1.00  0.00    -0.394 OA
HETATM   16  C   UNL     1     -37.422 -50.936  13.369  1.00  0.00     0.201 C 
ENDBRANCH  14  15
ENDBRANCH  13  14
ENDBRANCH  12  13
ENDBRANCH   6  12
ENDBRANCH   1   5
BRANCH   3  17
HETATM   17  C   UNL     1     -41.390 -53.305  12.464  1.00  0.00     0.109 C 
HETATM   18  C   UNL     1     -40.244 -53.332  13.472  1.00  0.00     0.037 C 
BRANCH  17  19
HETATM   19  C   UNL     1     -42.716 -53.713  13.078  1.00  0.00    -0.058 C 
HETATM   20  C   UNL     1     -43.876 -53.507  12.432  1.00  0.00     0.008 C 
HETATM   21  C   UNL     1     -45.228 -53.872  12.944  1.00  0.00     0.299 C 
HETATM   22  N   UNL     1     -45.304 -54.660  14.164  1.00  0.00     0.087 N 
HETATM   23  C   UNL     1     -46.431 -54.260  15.001  1.00  0.00     0.310 C 
HETATM   24  C   UNL     1     -44.089 -54.863  14.947  1.00  0.00     0.276 C 
HETATM   25  C   UNL     1     -42.727 -54.366  14.429  1.00  0.00     0.066 C 
ENDBRANCH  17  19
ENDBRANCH   3  17
TORSDOF 7
ENDMDL
MODEL 5
REMARK VINA RESULT:      -5.2      2.146      5.974
REMARK  7 active torsions:
REMARK  status: ('A' for Active; 'I' for Inactive)
REMARK    1  A    between atoms: O_2  and  C_3 
REMARK    2  A    between atoms: C_3  and  C_4 
REMARK    3  A    between atoms: C_4  and  O_5 
REMARK    4  A    between atoms: O_5  and  C_6 
REMARK    5  A    between atoms: C_12  and  C_13 
REMARK       I    between atoms: C_13  and  N_15 
REMARK    6  A    between atoms: N_15  and  C_16 
REMARK    7  A    between atoms: C_16  and  C_18 
ROOT
HETATM    1  C   UNL     1     -41.604 -50.261  13.410  1.00  0.00     0.256 C 
HETATM    2  O   UNL     1     -41.555 -49.685  14.496  1.00  0.00    -0.267 OA
HETATM    3  N   UNL     1     -40.641 -50.091  12.439  1.00  0.00    -0.349 N 
HETATM    4  H   UNL     1     -40.693 -50.667  11.604  1.00  0.00     0.163 HD
ENDROOT
BRANCH   1   5
HETATM    5  C   UNL     1     -42.755 -51.161  13.114  1.00  0.00     0.083 A 
HETATM    6  C   UNL     1     -42.679 -52.418  12.512  1.00  0.00     0.158 A 
HETATM    7  N   UNL     1     -43.773 -53.173  12.224  1.00  0.00    -0.346 N 
HETATM    8  C   UNL     1     -44.985 -52.677  12.546  1.00  0.00     0.090 A 
ATOM      9  HN  UNL     1     -43.679 -54.085  11.777  1.00  0.00     0.167 HD
HETATM   10  C   UNL     1     -45.169 -51.448  13.144  1.00  0.00     0.018 A 
HETATM   11  C   UNL     1     -44.041 -50.686  13.429  1.00  0.00     0.023 A 
BRANCH   6  12
HETATM   12  O   UNL     1     -41.440 -52.959  12.216  1.00  0.00    -0.333 OA
BRANCH  12  13
HETATM   13  C   UNL     1     -41.205 -54.208  12.888  1.00  0.00     0.203 C 
BRANCH  13  14
HETATM   14  C   UNL     1     -39.875 -54.150  13.637  1.00  0.00     0.193 C 
BRANCH  14  15
HETATM   15  O   UNL     1     -39.299 -52.850  13.472  1.00  0.00    -0.394 OA
HETATM   16  C   UNL     1     -38.898 -52.284  14.713  1.00  0.00     0.201 C 
ENDBRANCH  14  15
ENDBRANCH  13  14
ENDBRANCH  12  13
ENDBRANCH   6  12
ENDBRANCH   1   5
BRANCH   3  17
HETATM   17  C   UNL     1     -39.489 -49.224  12.611  1.00  0.00     0.109 C 
HETATM   18  C   UNL     1     -38.310 -49.714  11.774  1.00  0.00     0.037 C 
BRANCH  17  19
HETATM   19  C   UNL     1     -39.892 -47.800  12.274  1.00  0.00    -0.058 C 
HETATM   20  C   UNL     1     -40.545 -47.511  11.136  1.00  0.00     0.008 C 
HETATM   21  C   UNL     1     -40.987 -46.152  10.713  1.00  0.00     0.299 C 
HETATM   22  N   UNL     1     -40.852 -45.064  11.670  1.00  0.00     0.087 N 
HETATM   23  C   UNL     1     -40.469 -43.814  11.021  1.00  0.00     0.310 C 
HETATM   24  C   UNL     1     -40.094 -45.296  12.896  1.00  0.00     0.276 C 
HETATM   25  C   UNL     1     -39.558 -46.698  13.236  1.00  0.00     0.066 C 
ENDBRANCH  17  19
ENDBRANCH   3  17
TORSDOF 7
ENDMDL
MODEL 6
REMARK VINA RESULT:      -5.1      3.210      5.431
REMARK  7 active torsions:
REMARK  status: ('A' for Active; 'I' for Inactive)
REMARK    1  A    between atoms: O_2  and  C_3 
REMARK    2  A    between atoms: C_3  and  C_4 
REMARK    3  A    between atoms: C_4  and  O_5 
REMARK    4  A    between atoms: O_5  and  C_6 
REMARK    5  A    between atoms: C_12  and  C_13 
REMARK       I    between atoms: C_13  and  N_15 
REMARK    6  A    between atoms: N_15  and  C_16 
REMARK    7  A    between atoms: C_16  and  C_18 
ROOT
HETATM    1  C   UNL     1     -42.762 -48.199  10.793  1.00  0.00     0.256 C 
HETATM    2  O   UNL     1     -41.617 -48.361  10.375  1.00  0.00    -0.267 OA
HETATM    3  N   UNL     1     -43.248 -48.870  11.894  1.00  0.00    -0.349 N 
HETATM    4  H   UNL     1     -44.169 -48.620  12.241  1.00  0.00     0.163 HD
ENDROOT
BRANCH   1   5
HETATM    5  C   UNL     1     -43.674 -47.262  10.077  1.00  0.00     0.083 A 
HETATM    6  C   UNL     1     -43.411 -45.921   9.792  1.00  0.00     0.158 A 
HETATM    7  N   UNL     1     -44.306 -45.102   9.177  1.00  0.00    -0.346 N 
HETATM    8  C   UNL     1     -45.498 -45.622   8.820  1.00  0.00     0.090 A 
ATOM      9  HN  UNL     1     -44.083 -44.124   8.991  1.00  0.00     0.167 HD
HETATM   10  C   UNL     1     -45.854 -46.934   9.053  1.00  0.00     0.018 A 
HETATM   11  C   UNL     1     -44.930 -47.759   9.688  1.00  0.00     0.023 A 
BRANCH   6  12
HETATM   12  O   UNL     1     -42.177 -45.383  10.112  1.00  0.00    -0.333 OA
BRANCH  12  13
HETATM   13  C   UNL     1     -42.166 -44.747  11.401  1.00  0.00     0.203 C 
BRANCH  13  14
HETATM   14  C   UNL     1     -42.086 -43.231  11.229  1.00  0.00     0.193 C 
BRANCH  14  15
HETATM   15  O   UNL     1     -43.368 -42.736  10.828  1.00  0.00    -0.394 OA
HETATM   16  C   UNL     1     -43.719 -41.546  11.522  1.00  0.00     0.201 C 
ENDBRANCH  14  15
ENDBRANCH  13  14
ENDBRANCH  12  13
ENDBRANCH   6  12
ENDBRANCH   1   5
BRANCH   3  17
HETATM   17  C   UNL     1     -42.456 -49.820  12.655  1.00  0.00     0.109 C 
HETATM   18  C   UNL     1     -41.949 -49.191  13.950  1.00  0.00     0.037 C 
BRANCH  17  19
HETATM   19  C   UNL     1     -43.287 -51.067  12.898  1.00  0.00    -0.058 C 
HETATM   20  C   UNL     1     -44.529 -50.990  13.401  1.00  0.00     0.008 C 
HETATM   21  C   UNL     1     -45.427 -52.149  13.674  1.00  0.00     0.299 C 
HETATM   22  N   UNL     1     -45.000 -53.462  13.215  1.00  0.00     0.087 N 
HETATM   23  C   UNL     1     -45.367 -54.514  14.158  1.00  0.00     0.310 C 
HETATM   24  C   UNL     1     -43.637 -53.625  12.718  1.00  0.00     0.276 C 
HETATM   25  C   UNL     1     -42.707 -52.409  12.561  1.00  0.00     0.066 C 
ENDBRANCH  17  19
ENDBRANCH   3  17
TORSDOF 7
ENDMDL
MODEL 7
REMARK VINA RESULT:      -5.1      2.148      4.568
REMARK  7 active torsions:
REMARK  status: ('A' for Active; 'I' for Inactive)
REMARK    1  A    between atoms: O_2  and  C_3 
REMARK    2  A    between atoms: C_3  and  C_4 
REMARK    3  A    between atoms: C_4  and  O_5 
REMARK    4  A    between atoms: O_5  and  C_6 
REMARK    5  A    between atoms: C_12  and  C_13 
REMARK       I    between atoms: C_13  and  N_15 
REMARK    6  A    between atoms: N_15  and  C_16 
REMARK    7  A    between atoms: C_16  and  C_18 
ROOT
HETATM    1  C   UNL     1     -38.872 -51.208  13.293  1.00  0.00     0.256 C 
HETATM    2  O   UNL     1     -38.013 -51.721  12.577  1.00  0.00    -0.267 OA
HETATM    3  N   UNL     1     -39.897 -51.939  13.856  1.00  0.00    -0.349 N 
HETATM    4  H   UNL     1     -40.515 -51.472  14.511  1.00  0.00     0.163 HD
ENDROOT
BRANCH   1   5
HETATM    5  C   UNL     1     -38.825 -49.741  13.551  1.00  0.00     0.083 A 
HETATM    6  C   UNL     1     -39.790 -48.810  13.165  1.00  0.00     0.158 A 
HETATM    7  N   UNL     1     -39.667 -47.474  13.388  1.00  0.00    -0.346 N 
HETATM    8  C   UNL     1     -38.559 -47.039  14.022  1.00  0.00     0.090 A 
ATOM      9  HN  UNL     1     -40.389 -46.821  13.085  1.00  0.00     0.167 HD
HETATM   10  C   UNL     1     -37.548 -47.876  14.447  1.00  0.00     0.018 A 
HETATM   11  C   UNL     1     -37.687 -49.240  14.207  1.00  0.00     0.023 A 
BRANCH   6  12
HETATM   12  O   UNL     1     -40.952 -49.244  12.553  1.00  0.00    -0.333 OA
BRANCH  12  13
HETATM   13  C   UNL     1     -40.868 -49.217  11.118  1.00  0.00     0.203 C 
BRANCH  13  14
HETATM   14  C   UNL     1     -41.819 -48.158  10.564  1.00  0.00     0.193 C 
BRANCH  14  15
HETATM   15  O   UNL     1     -41.183 -46.877  10.626  1.00  0.00    -0.394 OA
HETATM   16  C   UNL     1     -42.071 -45.824  10.273  1.00  0.00     0.201 C 
ENDBRANCH  14  15
ENDBRANCH  13  14
ENDBRANCH  12  13
ENDBRANCH   6  12
ENDBRANCH   1   5
BRANCH   3  17
HETATM   17  C   UNL     1     -40.052 -53.368  13.655  1.00  0.00     0.109 C 
HETATM   18  C   UNL     1     -39.182 -54.152  14.635  1.00  0.00     0.037 C 
BRANCH  17  19
HETATM   19  C   UNL     1     -41.523 -53.722  13.769  1.00  0.00    -0.058 C 
HETATM   20  C   UNL     1     -41.970 -54.545  14.732  1.00  0.00     0.008 C 
HETATM   21  C   UNL     1     -43.390 -54.952  14.933  1.00  0.00     0.299 C 
HETATM   22  N   UNL     1     -44.407 -54.290  14.131  1.00  0.00     0.087 N 
HETATM   23  C   UNL     1     -45.471 -55.208  13.735  1.00  0.00     0.310 C 
HETATM   24  C   UNL     1     -43.986 -53.435  13.025  1.00  0.00     0.276 C 
HETATM   25  C   UNL     1     -42.495 -53.134  12.789  1.00  0.00     0.066 C 
ENDBRANCH  17  19
ENDBRANCH   3  17
TORSDOF 7
ENDMDL
MODEL 8
REMARK VINA RESULT:      -5.1      2.634      5.695
REMARK  7 active torsions:
REMARK  status: ('A' for Active; 'I' for Inactive)
REMARK    1  A    between atoms: O_2  and  C_3 
REMARK    2  A    between atoms: C_3  and  C_4 
REMARK    3  A    between atoms: C_4  and  O_5 
REMARK    4  A    between atoms: O_5  and  C_6 
REMARK    5  A    between atoms: C_12  and  C_13 
REMARK       I    between atoms: C_13  and  N_15 
REMARK    6  A    between atoms: N_15  and  C_16 
REMARK    7  A    between atoms: C_16  and  C_18 
ROOT
HETATM    1  C   UNL     1     -39.768 -52.207  12.981  1.00  0.00     0.256 C 
HETATM    2  O   UNL     1     -39.055 -52.953  13.649  1.00  0.00    -0.267 OA
HETATM    3  N   UNL     1     -39.276 -51.084  12.350  1.00  0.00    -0.349 N 
HETATM    4  H   UNL     1     -39.898 -50.565  11.738  1.00  0.00     0.163 HD
ENDROOT
BRANCH   1   5
HETATM    5  C   UNL     1     -41.224 -52.505  12.859  1.00  0.00     0.083 A 
HETATM    6  C   UNL     1     -42.209 -51.616  12.426  1.00  0.00     0.158 A 
HETATM    7  N   UNL     1     -43.531 -51.933  12.382  1.00  0.00    -0.346 N 
HETATM    8  C   UNL     1     -43.896 -53.172  12.769  1.00  0.00     0.090 A 
ATOM      9  HN  UNL     1     -44.224 -51.255  12.066  1.00  0.00     0.167 HD
HETATM   10  C   UNL     1     -43.002 -54.125  13.211  1.00  0.00     0.018 A 
HETATM   11  C   UNL     1     -41.654 -53.784  13.255  1.00  0.00     0.023 A 
BRANCH   6  12
HETATM   12  O   UNL     1     -41.845 -50.356  11.983  1.00  0.00    -0.333 OA
BRANCH  12  13
HETATM   13  C   UNL     1     -42.739 -49.328  12.441  1.00  0.00     0.203 C 
BRANCH  13  14
HETATM   14  C   UNL     1     -42.736 -48.162  11.455  1.00  0.00     0.193 C 
BRANCH  14  15
HETATM   15  O   UNL     1     -41.462 -48.099  10.805  1.00  0.00    -0.394 OA
HETATM   16  C   UNL     1     -40.926 -46.783  10.811  1.00  0.00     0.201 C 
ENDBRANCH  14  15
ENDBRANCH  13  14
ENDBRANCH  12  13
ENDBRANCH   6  12
ENDBRANCH   1   5
BRANCH   3  17
HETATM   17  C   UNL     1     -37.881 -50.687  12.417  1.00  0.00     0.109 C 
HETATM   18  C   UNL     1     -37.426 -50.074  11.095  1.00  0.00     0.037 C 
BRANCH  17  19
HETATM   19  C   UNL     1     -37.696 -49.744  13.592  1.00  0.00    -0.058 C 
HETATM   20  C   UNL     1     -37.083 -50.144  14.718  1.00  0.00     0.008 C 
HETATM   21  C   UNL     1     -36.849 -49.299  15.923  1.00  0.00     0.299 C 
HETATM   22  N   UNL     1     -37.158 -47.881  15.831  1.00  0.00     0.087 N 
HETATM   23  C   UNL     1     -37.719 -47.364  17.075  1.00  0.00     0.310 C 
HETATM   24  C   UNL     1     -37.884 -47.394  14.661  1.00  0.00     0.276 C 
HETATM   25  C   UNL     1     -38.203 -48.336  13.486  1.00  0.00     0.066 C 
ENDBRANCH  17  19
ENDBRANCH   3  17
TORSDOF 7
ENDMDL
MODEL 9
REMARK VINA RESULT:      -5.1      3.737      5.194
REMARK  7 active torsions:
REMARK  status: ('A' for Active; 'I' for Inactive)
REMARK    1  A    between atoms: O_2  and  C_3 
REMARK    2  A    between atoms: C_3  and  C_4 
REMARK    3  A    between atoms: C_4  and  O_5 
REMARK    4  A    between atoms: O_5  and  C_6 
REMARK    5  A    between atoms: C_12  and  C_13 
REMARK       I    between atoms: C_13  and  N_15 
REMARK    6  A    between atoms: N_15  and  C_16 
REMARK    7  A    between atoms: C_16  and  C_18 
ROOT
HETATM    1  C   UNL     1     -40.624 -48.881  11.265  1.00  0.00     0.256 C 
HETATM    2  O   UNL     1     -41.207 -49.922  11.563  1.00  0.00    -0.267 OA
HETATM    3  N   UNL     1     -39.258 -48.737  11.392  1.00  0.00    -0.349 N 
HETATM    4  H   UNL     1     -38.831 -47.886  11.040  1.00  0.00     0.163 HD
ENDROOT
BRANCH   1   5
HETATM    5  C   UNL     1     -41.414 -47.719  10.767  1.00  0.00     0.083 A 
HETATM    6  C   UNL     1     -41.229 -46.386  11.134  1.00  0.00     0.158 A 
HETATM    7  N   UNL     1     -42.017 -45.373  10.681  1.00  0.00    -0.346 N 
HETATM    8  C   UNL     1     -43.016 -45.683   9.830  1.00  0.00     0.090 A 
ATOM      9  HN  UNL     1     -41.857 -44.410  10.975  1.00  0.00     0.167 HD
HETATM   10  C   UNL     1     -43.281 -46.968   9.404  1.00  0.00     0.018 A 
HETATM   11  C   UNL     1     -42.470 -47.993   9.880  1.00  0.00     0.023 A 
BRANCH   6  12
HETATM   12  O   UNL     1     -40.181 -46.046  11.971  1.00  0.00    -0.333 OA
BRANCH  12  13
HETATM   13  C   UNL     1     -39.827 -44.656  11.881  1.00  0.00     0.203 C 
BRANCH  13  14
HETATM   14  C   UNL     1     -38.844 -44.299  12.994  1.00  0.00     0.193 C 
BRANCH  14  15
HETATM   15  O   UNL     1     -39.565 -43.740  14.096  1.00  0.00    -0.394 OA
HETATM   16  C   UNL     1     -39.830 -44.706  15.104  1.00  0.00     0.201 C 
ENDBRANCH  14  15
ENDBRANCH  13  14
ENDBRANCH  12  13
ENDBRANCH   6  12
ENDBRANCH   1   5
BRANCH   3  17
HETATM   17  C   UNL     1     -38.394 -49.794  11.884  1.00  0.00     0.109 C 
HETATM   18  C   UNL     1     -37.243 -50.051  10.914  1.00  0.00     0.037 C 
BRANCH  17  19
HETATM   19  C   UNL     1     -37.912 -49.425  13.275  1.00  0.00    -0.058 C 
HETATM   20  C   UNL     1     -37.382 -50.346  14.097  1.00  0.00     0.008 C 
HETATM   21  C   UNL     1     -36.878 -50.088  15.476  1.00  0.00     0.299 C 
HETATM   22  N   UNL     1     -36.798 -48.706  15.924  1.00  0.00     0.087 N 
HETATM   23  C   UNL     1     -37.147 -48.571  17.335  1.00  0.00     0.310 C 
HETATM   24  C   UNL     1     -37.415 -47.665  15.108  1.00  0.00     0.276 C 
HETATM   25  C   UNL     1     -38.026 -48.001  13.735  1.00  0.00     0.066 C 
ENDBRANCH  17  19
ENDBRANCH   3  17
TORSDOF 7
ENDMDL
