MODEL 1
REMARK VINA RESULT:      -5.4      0.000      0.000
REMARK  4 active torsions:
REMARK  status: ('A' for Active; 'I' for Inactive)
REMARK    1  A    between atoms: C_2  and  C_3 
REMARK    2  A    between atoms: C_3  and  N_4 
REMARK    3  A    between atoms: C_5  and  N_6 
REMARK    4  A    between atoms: C_7  and  N_8 
ROOT
HETATM    1  N   UNL     1     -43.534 -47.108  10.234  1.00  0.00    -0.288 N 
HETATM    2  C   UNL     1     -42.886 -47.957  11.128  1.00  0.00     0.116 A 
HETATM    3  C   UNL     1     -41.553 -47.824  11.378  1.00  0.00     0.138 A 
HETATM    4  C   UNL     1     -40.839 -46.666  10.718  1.00  0.00     0.279 A 
HETATM    5  O   UNL     1     -39.672 -46.368  10.966  1.00  0.00    -0.265 OA
HETATM    6  N   UNL     1     -41.552 -45.946   9.819  1.00  0.00    -0.273 N 
HETATM    7  C   UNL     1     -42.875 -46.086   9.560  1.00  0.00     0.330 A 
HETATM    8  O   UNL     1     -43.413 -45.319   8.759  1.00  0.00    -0.246 OA
HETATM    9  H   UNL     1     -41.080 -45.180   9.364  1.00  0.00     0.173 HD
ENDROOT
BRANCH   3  10
HETATM   10  N   UNL     1     -40.788 -48.747  12.135  1.00  0.00    -0.370 N 
HETATM   11  C   UNL     1     -39.956 -49.784  11.478  1.00  0.00     0.149 C 
HETATM   12  C   UNL     1     -39.962 -51.047  12.352  1.00  0.00     0.187 C 
HETATM   13  O   UNL     1     -39.487 -50.777  13.682  1.00  0.00    -0.388 OA
HETATM   14  C   UNL     1     -40.272 -49.748  14.308  1.00  0.00     0.187 C 
HETATM   15  C   UNL     1     -40.256 -48.446  13.482  1.00  0.00     0.149 C 
ENDBRANCH   3  10
BRANCH   2  16
HETATM   16  N   UNL     1     -43.572 -49.015  11.728  1.00  0.00    -0.286 NA
HETATM   17  H   UNL     1     -43.584 -49.853  11.165  1.00  0.00     0.125 HD
HETATM   18  H   UNL     1     -43.144 -49.215  12.631  1.00  0.00     0.125 HD
ENDBRANCH   2  16
BRANCH   1  19
HETATM   19  C   UNL     1     -44.959 -47.260   9.919  1.00  0.00     0.135 C 
BRANCH  19  20
HETATM   20  C   UNL     1     -45.186 -47.942   8.569  1.00  0.00     0.016 C 
HETATM   21  C   UNL     1     -46.554 -48.609   8.524  1.00  0.00     0.006 C 
ENDBRANCH  19  20
ENDBRANCH   1  19
TORSDOF 4
ENDMDL
MODEL 2
REMARK VINA RESULT:      -5.3      3.365      5.459
REMARK  4 active torsions:
REMARK  status: ('A' for Active; 'I' for Inactive)
REMARK    1  A    between atoms: C_2  and  C_3 
REMARK    2  A    between atoms: C_3  and  N_4 
REMARK    3  A    between atoms: C_5  and  N_6 
REMARK    4  A    between atoms: C_7  and  N_8 
ROOT
HETATM    1  N   UNL     1     -42.912 -46.286   9.843  1.00  0.00    -0.288 N 
HETATM    2  C   UNL     1     -42.961 -44.941  10.202  1.00  0.00     0.116 A 
HETATM    3  C   UNL     1     -42.081 -44.426  11.108  1.00  0.00     0.138 A 
HETATM    4  C   UNL     1     -41.003 -45.351  11.625  1.00  0.00     0.279 A 
HETATM    5  O   UNL     1     -40.080 -44.970  12.343  1.00  0.00    -0.265 OA
HETATM    6  N   UNL     1     -41.091 -46.652  11.259  1.00  0.00    -0.273 N 
HETATM    7  C   UNL     1     -41.974 -47.168  10.369  1.00  0.00     0.330 A 
HETATM    8  O   UNL     1     -41.903 -48.364  10.078  1.00  0.00    -0.246 OA
HETATM    9  H   UNL     1     -40.384 -47.278  11.610  1.00  0.00     0.173 HD
ENDROOT
BRANCH   3  10
HETATM   10  N   UNL     1     -42.172 -43.121  11.653  1.00  0.00    -0.370 N 
HETATM   11  C   UNL     1     -42.798 -42.878  12.975  1.00  0.00     0.149 C 
HETATM   12  C   UNL     1     -43.509 -41.516  12.940  1.00  0.00     0.187 C 
HETATM   13  O   UNL     1     -42.603 -40.451  12.599  1.00  0.00    -0.388 OA
HETATM   14  C   UNL     1     -41.970 -40.703  11.334  1.00  0.00     0.187 C 
HETATM   15  C   UNL     1     -41.208 -42.043  11.341  1.00  0.00     0.149 C 
ENDBRANCH   3  10
BRANCH   2  16
HETATM   16  N   UNL     1     -43.964 -44.108   9.703  1.00  0.00    -0.286 NA
HETATM   17  H   UNL     1     -44.835 -44.187  10.208  1.00  0.00     0.125 HD
HETATM   18  H   UNL     1     -43.637 -43.143   9.733  1.00  0.00     0.125 HD
ENDBRANCH   2  16
BRANCH   1  19
HETATM   19  C   UNL     1     -43.874 -46.870   8.903  1.00  0.00     0.135 C 
BRANCH  19  20
HETATM   20  C   UNL     1     -45.084 -47.481   9.613  1.00  0.00     0.016 C 
HETATM   21  C   UNL     1     -46.383 -46.958   9.016  1.00  0.00     0.006 C 
ENDBRANCH  19  20
ENDBRANCH   1  19
TORSDOF 4
ENDMDL
MODEL 3
REMARK VINA RESULT:      -5.2      3.724      5.188
REMARK  4 active torsions:
REMARK  status: ('A' for Active; 'I' for Inactive)
REMARK    1  A    between atoms: C_2  and  C_3 
REMARK    2  A    between atoms: C_3  and  N_4 
REMARK    3  A    between atoms: C_5  and  N_6 
REMARK    4  A    between atoms: C_7  and  N_8 
ROOT
HETATM    1  N   UNL     1     -42.192 -49.712  12.371  1.00  0.00    -0.288 N 
HETATM    2  C   UNL     1     -42.841 -50.740  13.051  1.00  0.00     0.116 A 
HETATM    3  C   UNL     1     -42.423 -52.032  12.931  1.00  0.00     0.138 A 
HETATM    4  C   UNL     1     -41.179 -52.281  12.109  1.00  0.00     0.279 A 
HETATM    5  O   UNL     1     -40.634 -53.381  12.032  1.00  0.00    -0.265 OA
HETATM    6  N   UNL     1     -40.669 -51.218  11.441  1.00  0.00    -0.273 N 
HETATM    7  C   UNL     1     -41.092 -49.935  11.550  1.00  0.00     0.330 A 
HETATM    8  O   UNL     1     -40.495 -49.053  10.930  1.00  0.00    -0.246 OA
HETATM    9  H   UNL     1     -39.847 -51.379  10.880  1.00  0.00     0.173 HD
ENDROOT
BRANCH   3  10
HETATM   10  N   UNL     1     -43.128 -53.149  13.447  1.00  0.00    -0.370 N 
HETATM   11  C   UNL     1     -44.075 -53.920  12.606  1.00  0.00     0.149 C 
HETATM   12  C   UNL     1     -45.229 -54.415  13.491  1.00  0.00     0.187 C 
HETATM   13  O   UNL     1     -44.752 -55.213  14.589  1.00  0.00    -0.388 OA
HETATM   14  C   UNL     1     -43.808 -54.478  15.385  1.00  0.00     0.187 C 
HETATM   15  C   UNL     1     -42.611 -53.999  14.541  1.00  0.00     0.149 C 
ENDBRANCH   3  10
BRANCH   2  16
HETATM   16  N   UNL     1     -43.985 -50.480  13.809  1.00  0.00    -0.286 NA
HETATM   17  H   UNL     1     -43.945 -49.598  14.300  1.00  0.00     0.125 HD
HETATM   18  H   UNL     1     -44.797 -50.496  13.195  1.00  0.00     0.125 HD
ENDBRANCH   2  16
BRANCH   1  19
HETATM   19  C   UNL     1     -42.650 -48.321  12.454  1.00  0.00     0.135 C 
BRANCH  19  20
HETATM   20  C   UNL     1     -43.562 -47.939  11.287  1.00  0.00     0.016 C 
HETATM   21  C   UNL     1     -43.056 -46.681  10.595  1.00  0.00     0.006 C 
ENDBRANCH  19  20
ENDBRANCH   1  19
TORSDOF 4
ENDMDL
MODEL 4
REMARK VINA RESULT:      -5.2      3.815      5.508
REMARK  4 active torsions:
REMARK  status: ('A' for Active; 'I' for Inactive)
REMARK    1  A    between atoms: C_2  and  C_3 
REMARK    2  A    between atoms: C_3  and  N_4 
REMARK    3  A    between atoms: C_5  and  N_6 
REMARK    4  A    between atoms: C_7  and  N_8 
ROOT
HETATM    1  N   UNL     1     -44.231 -51.880  12.904  1.00  0.00    -0.288 N 
HETATM    2  C   UNL     1     -43.192 -50.953  12.911  1.00  0.00     0.116 A 
HETATM    3  C   UNL     1     -41.903 -51.346  12.704  1.00  0.00     0.138 A 
HETATM    4  C   UNL     1     -41.670 -52.803  12.377  1.00  0.00     0.279 A 
HETATM    5  O   UNL     1     -40.573 -53.249  12.046  1.00  0.00    -0.265 OA
HETATM    6  N   UNL     1     -42.744 -53.625  12.462  1.00  0.00    -0.273 N 
HETATM    7  C   UNL     1     -44.024 -53.237  12.681  1.00  0.00     0.330 A 
HETATM    8  O   UNL     1     -44.917 -54.086  12.672  1.00  0.00    -0.246 OA
HETATM    9  H   UNL     1     -42.594 -54.600  12.259  1.00  0.00     0.173 HD
ENDROOT
BRANCH   3  10
HETATM   10  N   UNL     1     -40.777 -50.500  12.864  1.00  0.00    -0.370 N 
HETATM   11  C   UNL     1     -39.917 -50.580  14.070  1.00  0.00     0.149 C 
HETATM   12  C   UNL     1     -39.404 -49.170  14.404  1.00  0.00     0.187 C 
HETATM   13  O   UNL     1     -38.687 -48.589  13.301  1.00  0.00    -0.388 OA
HETATM   14  C   UNL     1     -39.510 -48.543  12.122  1.00  0.00     0.187 C 
HETATM   15  C   UNL     1     -40.010 -49.946  11.728  1.00  0.00     0.149 C 
ENDBRANCH   3  10
BRANCH   2  16
HETATM   16  N   UNL     1     -43.437 -49.611  13.209  1.00  0.00    -0.286 NA
HETATM   17  H   UNL     1     -43.956 -49.482  14.067  1.00  0.00     0.125 HD
HETATM   18  H   UNL     1     -42.548 -49.119  13.269  1.00  0.00     0.125 HD
ENDBRANCH   2  16
BRANCH   1  19
HETATM   19  C   UNL     1     -45.620 -51.486  13.166  1.00  0.00     0.135 C 
BRANCH  19  20
HETATM   20  C   UNL     1     -45.917 -51.362  14.661  1.00  0.00     0.016 C 
HETATM   21  C   UNL     1     -46.992 -52.354  15.083  1.00  0.00     0.006 C 
ENDBRANCH  19  20
ENDBRANCH   1  19
TORSDOF 4
ENDMDL
MODEL 5
REMARK VINA RESULT:      -4.9      6.777      7.928
REMARK  4 active torsions:
REMARK  status: ('A' for Active; 'I' for Inactive)
REMARK    1  A    between atoms: C_2  and  C_3 
REMARK    2  A    between atoms: C_3  and  N_4 
REMARK    3  A    between atoms: C_5  and  N_6 
REMARK    4  A    between atoms: C_7  and  N_8 
ROOT
HETATM    1  N   UNL     1     -44.926 -54.024  14.429  1.00  0.00    -0.288 N 
HETATM    2  C   UNL     1     -44.048 -54.353  15.458  1.00  0.00     0.116 A 
HETATM    3  C   UNL     1     -42.720 -54.541  15.211  1.00  0.00     0.138 A 
HETATM    4  C   UNL     1     -42.237 -54.285  13.802  1.00  0.00     0.279 A 
HETATM    5  O   UNL     1     -41.049 -54.297  13.487  1.00  0.00    -0.265 OA
HETATM    6  N   UNL     1     -43.188 -54.035  12.870  1.00  0.00    -0.273 N 
HETATM    7  C   UNL     1     -44.510 -53.860  13.112  1.00  0.00     0.330 A 
HETATM    8  O   UNL     1     -45.258 -53.574  12.176  1.00  0.00    -0.246 OA
HETATM    9  H   UNL     1     -42.876 -53.877  11.925  1.00  0.00     0.173 HD
ENDROOT
BRANCH   3  10
HETATM   10  N   UNL     1     -41.796 -55.042  16.163  1.00  0.00    -0.370 N 
HETATM   11  C   UNL     1     -41.118 -54.143  17.128  1.00  0.00     0.149 C 
HETATM   12  C   UNL     1     -39.701 -54.678  17.387  1.00  0.00     0.187 C 
HETATM   13  O   UNL     1     -39.723 -56.031  17.876  1.00  0.00    -0.388 OA
HETATM   14  C   UNL     1     -40.411 -56.896  16.956  1.00  0.00     0.187 C 
HETATM   15  C   UNL     1     -41.854 -56.418  16.703  1.00  0.00     0.149 C 
ENDBRANCH   3  10
BRANCH   2  16
HETATM   16  N   UNL     1     -44.520 -54.576  16.753  1.00  0.00    -0.286 NA
HETATM   17  H   UNL     1     -44.402 -53.780  17.363  1.00  0.00     0.125 HD
HETATM   18  H   UNL     1     -45.506 -54.828  16.705  1.00  0.00     0.125 HD
ENDBRANCH   2  16
BRANCH   1  19
HETATM   19  C   UNL     1     -46.365 -53.857  14.665  1.00  0.00     0.135 C 
BRANCH  19  20
HETATM   20  C   UNL     1     -46.688 -52.544  15.382  1.00  0.00     0.016 C 
HETATM   21  C   UNL     1     -46.771 -51.393  14.390  1.00  0.00     0.006 C 
ENDBRANCH  19  20
ENDBRANCH   1  19
TORSDOF 4
ENDMDL
MODEL 6
REMARK VINA RESULT:      -4.8      3.358      6.089
REMARK  4 active torsions:
REMARK  status: ('A' for Active; 'I' for Inactive)
REMARK    1  A    between atoms: C_2  and  C_3 
REMARK    2  A    between atoms: C_3  and  N_4 
REMARK    3  A    between atoms: C_5  and  N_6 
REMARK    4  A    between atoms: C_7  and  N_8 
ROOT
HETATM    1  N   UNL     1     -42.644 -52.758  13.731  1.00  0.00    -0.288 N 
HETATM    2  C   UNL     1     -42.595 -51.510  13.116  1.00  0.00     0.116 A 
HETATM    3  C   UNL     1     -41.407 -50.969  12.725  1.00  0.00     0.138 A 
HETATM    4  C   UNL     1     -40.169 -51.819  12.902  1.00  0.00     0.279 A 
HETATM    5  O   UNL     1     -39.064 -51.494  12.473  1.00  0.00    -0.265 OA
HETATM    6  N   UNL     1     -40.326 -52.987  13.570  1.00  0.00    -0.273 N 
HETATM    7  C   UNL     1     -41.506 -53.520  13.972  1.00  0.00     0.330 A 
HETATM    8  O   UNL     1     -41.510 -54.626  14.516  1.00  0.00    -0.246 OA
HETATM    9  H   UNL     1     -39.504 -53.554  13.705  1.00  0.00     0.173 HD
ENDROOT
BRANCH   3  10
HETATM   10  N   UNL     1     -41.253 -49.641  12.253  1.00  0.00    -0.370 N 
HETATM   11  C   UNL     1     -40.759 -48.558  13.140  1.00  0.00     0.149 C 
HETATM   12  C   UNL     1     -41.452 -47.245  12.746  1.00  0.00     0.187 C 
HETATM   13  O   UNL     1     -41.227 -46.917  11.364  1.00  0.00    -0.388 OA
HETATM   14  C   UNL     1     -41.673 -47.981  10.506  1.00  0.00     0.187 C 
HETATM   15  C   UNL     1     -40.969 -49.310  10.840  1.00  0.00     0.149 C 
ENDBRANCH   3  10
BRANCH   2  16
HETATM   16  N   UNL     1     -43.755 -50.748  12.959  1.00  0.00    -0.286 NA
HETATM   17  H   UNL     1     -43.784 -49.938  13.561  1.00  0.00     0.125 HD
HETATM   18  H   UNL     1     -43.828 -50.455  11.986  1.00  0.00     0.125 HD
ENDBRANCH   2  16
BRANCH   1  19
HETATM   19  C   UNL     1     -43.907 -53.341  14.197  1.00  0.00     0.135 C 
BRANCH  19  20
HETATM   20  C   UNL     1     -44.561 -54.233  13.139  1.00  0.00     0.016 C 
HETATM   21  C   UNL     1     -45.514 -55.228  13.785  1.00  0.00     0.006 C 
ENDBRANCH  19  20
ENDBRANCH   1  19
TORSDOF 4
ENDMDL
MODEL 7
REMARK VINA RESULT:      -4.8      3.885      6.233
REMARK  4 active torsions:
REMARK  status: ('A' for Active; 'I' for Inactive)
REMARK    1  A    between atoms: C_2  and  C_3 
REMARK    2  A    between atoms: C_3  and  N_4 
REMARK    3  A    between atoms: C_5  and  N_6 
REMARK    4  A    between atoms: C_7  and  N_8 
ROOT
HETATM    1  N   UNL     1     -40.546 -50.649  12.242  1.00  0.00    -0.288 N 
HETATM    2  C   UNL     1     -41.910 -50.741  12.504  1.00  0.00     0.116 A 
HETATM    3  C   UNL     1     -42.405 -51.735  13.295  1.00  0.00     0.138 A 
HETATM    4  C   UNL     1     -41.404 -52.663  13.944  1.00  0.00     0.279 A 
HETATM    5  O   UNL     1     -41.718 -53.513  14.775  1.00  0.00    -0.265 OA
HETATM    6  N   UNL     1     -40.111 -52.522  13.566  1.00  0.00    -0.273 N 
HETATM    7  C   UNL     1     -39.619 -51.542  12.768  1.00  0.00     0.330 A 
HETATM    8  O   UNL     1     -38.406 -51.495  12.556  1.00  0.00    -0.246 OA
HETATM    9  H   UNL     1     -39.439 -53.146  13.984  1.00  0.00     0.173 HD
ENDROOT
BRANCH   3  10
HETATM   10  N   UNL     1     -43.787 -52.000  13.471  1.00  0.00    -0.370 N 
HETATM   11  C   UNL     1     -44.474 -53.059  12.694  1.00  0.00     0.149 C 
HETATM   12  C   UNL     1     -45.916 -52.608  12.414  1.00  0.00     0.187 C 
HETATM   13  O   UNL     1     -46.629 -52.321  13.630  1.00  0.00    -0.388 OA
HETATM   14  C   UNL     1     -45.945 -51.318  14.401  1.00  0.00     0.187 C 
HETATM   15  C   UNL     1     -44.505 -51.752  14.740  1.00  0.00     0.149 C 
ENDBRANCH   3  10
BRANCH   2  16
HETATM   16  N   UNL     1     -42.812 -49.865  11.896  1.00  0.00    -0.286 NA
HETATM   17  H   UNL     1     -43.693 -49.798  12.386  1.00  0.00     0.125 HD
HETATM   18  H   UNL     1     -42.384 -48.943  11.833  1.00  0.00     0.125 HD
ENDBRANCH   2  16
BRANCH   1  19
HETATM   19  C   UNL     1     -39.997 -49.613  11.360  1.00  0.00     0.135 C 
BRANCH  19  20
HETATM   20  C   UNL     1     -39.622 -48.340  12.121  1.00  0.00     0.016 C 
HETATM   21  C   UNL     1     -40.156 -47.106  11.407  1.00  0.00     0.006 C 
ENDBRANCH  19  20
ENDBRANCH   1  19
TORSDOF 4
ENDMDL
MODEL 8
REMARK VINA RESULT:      -4.8      1.730      2.371
REMARK  4 active torsions:
REMARK  status: ('A' for Active; 'I' for Inactive)
REMARK    1  A    between atoms: C_2  and  C_3 
REMARK    2  A    between atoms: C_3  and  N_4 
REMARK    3  A    between atoms: C_5  and  N_6 
REMARK    4  A    between atoms: C_7  and  N_8 
ROOT
HETATM    1  N   UNL     1     -42.126 -47.630  11.209  1.00  0.00    -0.288 N 
HETATM    2  C   UNL     1     -42.164 -48.827  11.920  1.00  0.00     0.116 A 
HETATM    3  C   UNL     1     -41.014 -49.431  12.335  1.00  0.00     0.138 A 
HETATM    4  C   UNL     1     -39.717 -48.700  12.073  1.00  0.00     0.279 A 
HETATM    5  O   UNL     1     -38.633 -49.080  12.510  1.00  0.00    -0.265 OA
HETATM    6  N   UNL     1     -39.794 -47.578  11.317  1.00  0.00    -0.273 N 
HETATM    7  C   UNL     1     -40.936 -46.984  10.893  1.00  0.00     0.330 A 
HETATM    8  O   UNL     1     -40.863 -45.927  10.263  1.00  0.00    -0.246 OA
HETATM    9  H   UNL     1     -38.932 -47.092  11.126  1.00  0.00     0.173 HD
ENDROOT
BRANCH   3  10
HETATM   10  N   UNL     1     -40.957 -50.727  12.908  1.00  0.00    -0.370 N 
HETATM   11  C   UNL     1     -40.454 -51.890  12.137  1.00  0.00     0.149 C 
HETATM   12  C   UNL     1     -41.234 -53.141  12.569  1.00  0.00     0.187 C 
HETATM   13  O   UNL     1     -41.122 -53.377  13.983  1.00  0.00    -0.388 OA
HETATM   14  C   UNL     1     -41.578 -52.236  14.731  1.00  0.00     0.187 C 
HETATM   15  C   UNL     1     -40.789 -50.966  14.358  1.00  0.00     0.149 C 
ENDBRANCH   3  10
BRANCH   2  16
HETATM   16  N   UNL     1     -43.377 -49.477  12.155  1.00  0.00    -0.286 NA
HETATM   17  H   UNL     1     -43.269 -50.368  12.619  1.00  0.00     0.125 HD
HETATM   18  H   UNL     1     -43.975 -48.870  12.713  1.00  0.00     0.125 HD
ENDBRANCH   2  16
BRANCH   1  19
HETATM   19  C   UNL     1     -43.348 -46.985  10.718  1.00  0.00     0.135 C 
BRANCH  19  20
HETATM   20  C   UNL     1     -43.732 -47.458   9.314  1.00  0.00     0.016 C 
HETATM   21  C   UNL     1     -45.243 -47.458   9.138  1.00  0.00     0.006 C 
ENDBRANCH  19  20
ENDBRANCH   1  19
TORSDOF 4
ENDMDL
MODEL 9
REMARK VINA RESULT:      -4.7      2.030      2.449
REMARK  4 active torsions:
REMARK  status: ('A' for Active; 'I' for Inactive)
REMARK    1  A    between atoms: C_2  and  C_3 
REMARK    2  A    between atoms: C_3  and  N_4 
REMARK    3  A    between atoms: C_5  and  N_6 
REMARK    4  A    between atoms: C_7  and  N_8 
ROOT
HETATM    1  N   UNL     1     -42.185 -47.478  11.588  1.00  0.00    -0.288 N 
HETATM    2  C   UNL     1     -41.356 -48.561  11.868  1.00  0.00     0.116 A 
HETATM    3  C   UNL     1     -40.196 -48.392  12.564  1.00  0.00     0.138 A 
HETATM    4  C   UNL     1     -39.904 -47.007  13.093  1.00  0.00     0.279 A 
HETATM    5  O   UNL     1     -38.959 -46.758  13.840  1.00  0.00    -0.265 OA
HETATM    6  N   UNL     1     -40.745 -46.018  12.705  1.00  0.00    -0.273 N 
HETATM    7  C   UNL     1     -41.892 -46.183  12.001  1.00  0.00     0.330 A 
HETATM    8  O   UNL     1     -42.599 -45.200  11.768  1.00  0.00    -0.246 OA
HETATM    9  H   UNL     1     -40.550 -45.089  13.042  1.00  0.00     0.173 HD
ENDROOT
BRANCH   3  10
HETATM   10  N   UNL     1     -39.219 -49.404  12.742  1.00  0.00    -0.370 N 
HETATM   11  C   UNL     1     -37.889 -49.314  12.092  1.00  0.00     0.149 C 
HETATM   12  C   UNL     1     -37.424 -50.732  11.724  1.00  0.00     0.187 C 
HETATM   13  O   UNL     1     -37.374 -51.591  12.877  1.00  0.00    -0.388 OA
HETATM   14  C   UNL     1     -38.655 -51.651  13.527  1.00  0.00     0.187 C 
HETATM   15  C   UNL     1     -39.138 -50.251  13.951  1.00  0.00     0.149 C 
ENDBRANCH   3  10
BRANCH   2  16
HETATM   16  N   UNL     1     -41.654 -49.832  11.373  1.00  0.00    -0.286 NA
HETATM   17  H   UNL     1     -42.444 -50.263  11.831  1.00  0.00     0.125 HD
HETATM   18  H   UNL     1     -41.833 -49.763  10.373  1.00  0.00     0.125 HD
ENDBRANCH   2  16
BRANCH   1  19
HETATM   19  C   UNL     1     -43.417 -47.630  10.805  1.00  0.00     0.135 C 
BRANCH  19  20
HETATM   20  C   UNL     1     -43.174 -47.468   9.303  1.00  0.00     0.016 C 
HETATM   21  C   UNL     1     -44.076 -46.387   8.724  1.00  0.00     0.006 C 
ENDBRANCH  19  20
ENDBRANCH   1  19
TORSDOF 4
ENDMDL
