MODEL 1
REMARK VINA RESULT:      -5.7      0.000      0.000
REMARK  3 active torsions:
REMARK  status: ('A' for Active; 'I' for Inactive)
REMARK    1  A    between atoms: C_8  and  N_9 
REMARK       I    between atoms: N_9  and  C_10 
REMARK       I    between atoms: C_10  and  N_12 
REMARK    2  A    between atoms: N_12  and  C_13 
REMARK    3  A    between atoms: C_13  and  C_14 
ROOT
HETATM    1  N   UNL     1     -42.836 -53.002  12.749  1.00  0.00    -0.295 N 
HETATM    2  C   UNL     1     -41.743 -52.389  12.214  1.00  0.00     0.321 C 
HETATM    3  O   UNL     1     -40.736 -53.060  11.986  1.00  0.00    -0.247 OA
HETATM    4  N   UNL     1     -41.830 -51.060  11.935  1.00  0.00    -0.342 N 
HETATM    5  H   UNL     1     -42.694 -53.990  12.897  1.00  0.00     0.172 HD
HETATM    6  H   UNL     1     -42.638 -50.584  12.325  1.00  0.00     0.164 HD
ENDROOT
BRANCH   1   7
HETATM    7  C   UNL     1     -44.080 -52.458  13.073  1.00  0.00     0.109 A 
HETATM    8  N   UNL     1     -45.035 -52.388  12.123  1.00  0.00    -0.346 N 
HETATM    9  C   UNL     1     -46.241 -51.883  12.461  1.00  0.00     0.007 A 
ATOM     10  HN  UNL     1     -44.850 -52.709  11.173  1.00  0.00     0.167 HD
HETATM   11  C   UNL     1     -46.529 -51.420  13.738  1.00  0.00     0.031 A 
HETATM   12  C   UNL     1     -47.272 -51.869  11.375  1.00  0.00     0.068 C 
HETATM   13  C   UNL     1     -45.534 -51.474  14.717  1.00  0.00    -0.057 A 
HETATM   14  C   UNL     1     -45.800 -50.975  16.105  1.00  0.00     0.048 C 
HETATM   15  C   UNL     1     -44.290 -52.008  14.371  1.00  0.00     0.055 A 
ENDBRANCH   1   7
BRANCH   4  16
HETATM   16  C   UNL     1     -40.718 -50.337  11.390  1.00  0.00     0.129 C 
BRANCH  16  17
HETATM   17  C   UNL     1     -39.695 -49.861  12.381  1.00  0.00     0.003 A 
HETATM   18  C   UNL     1     -38.389 -49.242  11.937  1.00  0.00     0.007 A 
HETATM   19  C   UNL     1     -38.384 -50.545  12.686  1.00  0.00     0.007 A 
ENDBRANCH  16  17
ENDBRANCH   4  16
TORSDOF 3
ENDMDL
MODEL 2
REMARK VINA RESULT:      -5.7      1.508      6.026
REMARK  3 active torsions:
REMARK  status: ('A' for Active; 'I' for Inactive)
REMARK    1  A    between atoms: C_8  and  N_9 
REMARK       I    between atoms: N_9  and  C_10 
REMARK       I    between atoms: C_10  and  N_12 
REMARK    2  A    between atoms: N_12  and  C_13 
REMARK    3  A    between atoms: C_13  and  C_14 
ROOT
HETATM    1  N   UNL     1     -42.167 -52.326  11.760  1.00  0.00    -0.295 N 
HETATM    2  C   UNL     1     -43.168 -52.624  12.636  1.00  0.00     0.321 C 
HETATM    3  O   UNL     1     -43.894 -53.591  12.402  1.00  0.00    -0.247 OA
HETATM    4  N   UNL     1     -43.302 -51.844  13.742  1.00  0.00    -0.342 N 
HETATM    5  H   UNL     1     -42.123 -52.970  10.985  1.00  0.00     0.172 HD
HETATM    6  H   UNL     1     -42.765 -50.982  13.736  1.00  0.00     0.164 HD
ENDROOT
BRANCH   1   7
HETATM    7  C   UNL     1     -41.220 -51.302  11.823  1.00  0.00     0.109 A 
HETATM    8  N   UNL     1     -41.541 -50.080  11.355  1.00  0.00    -0.346 N 
HETATM    9  C   UNL     1     -40.622 -49.094  11.447  1.00  0.00     0.007 A 
ATOM     10  HN  UNL     1     -42.456 -49.903  10.940  1.00  0.00     0.167 HD
HETATM   11  C   UNL     1     -39.359 -49.296  11.988  1.00  0.00     0.031 A 
HETATM   12  C   UNL     1     -41.052 -47.749  10.948  1.00  0.00     0.068 C 
HETATM   13  C   UNL     1     -39.020 -50.567  12.456  1.00  0.00    -0.057 A 
HETATM   14  C   UNL     1     -37.663 -50.830  13.038  1.00  0.00     0.048 C 
HETATM   15  C   UNL     1     -39.975 -51.583  12.372  1.00  0.00     0.055 A 
ENDBRANCH   1   7
BRANCH   4  16
HETATM   16  C   UNL     1     -44.343 -52.079  14.700  1.00  0.00     0.129 C 
BRANCH  16  17
HETATM   17  C   UNL     1     -45.555 -51.200  14.581  1.00  0.00     0.003 A 
HETATM   18  C   UNL     1     -46.847 -51.532  15.292  1.00  0.00     0.007 A 
HETATM   19  C   UNL     1     -46.799 -51.523  13.790  1.00  0.00     0.007 A 
ENDBRANCH  16  17
ENDBRANCH   4  16
TORSDOF 3
ENDMDL
MODEL 3
REMARK VINA RESULT:      -5.5      3.135      6.190
REMARK  3 active torsions:
REMARK  status: ('A' for Active; 'I' for Inactive)
REMARK    1  A    between atoms: C_8  and  N_9 
REMARK       I    between atoms: N_9  and  C_10 
REMARK       I    between atoms: C_10  and  N_12 
REMARK    2  A    between atoms: N_12  and  C_13 
REMARK    3  A    between atoms: C_13  and  C_14 
ROOT
HETATM    1  N   UNL     1     -41.341 -49.734  11.268  1.00  0.00    -0.295 N 
HETATM    2  C   UNL     1     -42.036 -50.517  12.140  1.00  0.00     0.321 C 
HETATM    3  O   UNL     1     -41.590 -51.627  12.430  1.00  0.00    -0.247 OA
HETATM    4  N   UNL     1     -43.187 -50.017  12.667  1.00  0.00    -0.342 N 
HETATM    5  H   UNL     1     -40.489 -50.170  10.948  1.00  0.00     0.172 HD
HETATM    6  H   UNL     1     -43.541 -49.175  12.224  1.00  0.00     0.164 HD
ENDROOT
BRANCH   1   7
HETATM    7  C   UNL     1     -41.638 -48.449  10.809  1.00  0.00     0.109 A 
HETATM    8  N   UNL     1     -42.731 -48.261  10.044  1.00  0.00    -0.346 N 
HETATM    9  C   UNL     1     -43.019 -47.007   9.631  1.00  0.00     0.007 A 
ATOM     10  HN  UNL     1     -43.327 -49.046   9.782  1.00  0.00     0.167 HD
HETATM   11  C   UNL     1     -42.225 -45.913   9.950  1.00  0.00     0.031 A 
HETATM   12  C   UNL     1     -44.267 -46.855   8.819  1.00  0.00     0.068 C 
HETATM   13  C   UNL     1     -41.082 -46.111  10.727  1.00  0.00    -0.057 A 
HETATM   14  C   UNL     1     -40.192 -44.959  11.085  1.00  0.00     0.048 C 
HETATM   15  C   UNL     1     -40.791 -47.406  11.164  1.00  0.00     0.055 A 
ENDBRANCH   1   7
BRANCH   4  16
HETATM   16  C   UNL     1     -43.987 -50.786  13.576  1.00  0.00     0.129 C 
BRANCH  16  17
HETATM   17  C   UNL     1     -45.383 -51.097  13.120  1.00  0.00     0.003 A 
HETATM   18  C   UNL     1     -46.469 -51.484  14.098  1.00  0.00     0.007 A 
HETATM   19  C   UNL     1     -46.004 -52.472  13.066  1.00  0.00     0.007 A 
ENDBRANCH  16  17
ENDBRANCH   4  16
TORSDOF 3
ENDMDL
MODEL 4
REMARK VINA RESULT:      -5.5      1.486      6.270
REMARK  3 active torsions:
REMARK  status: ('A' for Active; 'I' for Inactive)
REMARK    1  A    between atoms: C_8  and  N_9 
REMARK       I    between atoms: N_9  and  C_10 
REMARK       I    between atoms: C_10  and  N_12 
REMARK    2  A    between atoms: N_12  and  C_13 
REMARK    3  A    between atoms: C_13  and  C_14 
ROOT
HETATM    1  N   UNL     1     -41.930 -51.997  11.708  1.00  0.00    -0.295 N 
HETATM    2  C   UNL     1     -42.940 -52.321  12.564  1.00  0.00     0.321 C 
HETATM    3  O   UNL     1     -43.719 -53.222  12.251  1.00  0.00    -0.247 OA
HETATM    4  N   UNL     1     -43.022 -51.642  13.740  1.00  0.00    -0.342 N 
HETATM    5  H   UNL     1     -41.928 -52.567  10.876  1.00  0.00     0.172 HD
HETATM    6  H   UNL     1     -42.439 -50.813  13.807  1.00  0.00     0.164 HD
ENDROOT
BRANCH   1   7
HETATM    7  C   UNL     1     -40.929 -51.035  11.853  1.00  0.00     0.109 A 
HETATM    8  N   UNL     1     -39.705 -51.418  12.269  1.00  0.00    -0.346 N 
HETATM    9  C   UNL     1     -38.740 -50.479  12.378  1.00  0.00     0.007 A 
ATOM     10  HN  UNL     1     -39.512 -52.394  12.496  1.00  0.00     0.167 HD
HETATM   11  C   UNL     1     -38.965 -49.138  12.096  1.00  0.00     0.031 A 
HETATM   12  C   UNL     1     -37.392 -50.972  12.805  1.00  0.00     0.068 C 
HETATM   13  C   UNL     1     -40.237 -48.738  11.684  1.00  0.00    -0.057 A 
HETATM   14  C   UNL     1     -40.525 -47.298  11.379  1.00  0.00     0.048 C 
HETATM   15  C   UNL     1     -41.232 -49.711  11.558  1.00  0.00     0.055 A 
ENDBRANCH   1   7
BRANCH   4  16
HETATM   16  C   UNL     1     -44.067 -51.909  14.685  1.00  0.00     0.129 C 
BRANCH  16  17
HETATM   17  C   UNL     1     -45.326 -51.109  14.515  1.00  0.00     0.003 A 
HETATM   18  C   UNL     1     -46.647 -51.580  15.081  1.00  0.00     0.007 A 
HETATM   19  C   UNL     1     -46.471 -51.458  13.593  1.00  0.00     0.007 A 
ENDBRANCH  16  17
ENDBRANCH   4  16
TORSDOF 3
ENDMDL
MODEL 5
REMARK VINA RESULT:      -5.4      4.724      7.159
REMARK  3 active torsions:
REMARK  status: ('A' for Active; 'I' for Inactive)
REMARK    1  A    between atoms: C_8  and  N_9 
REMARK       I    between atoms: N_9  and  C_10 
REMARK       I    between atoms: C_10  and  N_12 
REMARK    2  A    between atoms: N_12  and  C_13 
REMARK    3  A    between atoms: C_13  and  C_14 
ROOT
HETATM    1  N   UNL     1     -41.361 -46.254  10.486  1.00  0.00    -0.295 N 
HETATM    2  C   UNL     1     -42.423 -46.378   9.640  1.00  0.00     0.321 C 
HETATM    3  O   UNL     1     -42.714 -45.432   8.908  1.00  0.00    -0.247 OA
HETATM    4  N   UNL     1     -43.097 -47.559   9.633  1.00  0.00    -0.342 N 
HETATM    5  H   UNL     1     -40.903 -45.359  10.406  1.00  0.00     0.172 HD
HETATM    6  H   UNL     1     -42.878 -48.192  10.395  1.00  0.00     0.164 HD
ENDROOT
BRANCH   1   7
HETATM    7  C   UNL     1     -40.838 -47.186  11.384  1.00  0.00     0.109 A 
HETATM    8  N   UNL     1     -39.764 -47.915  11.024  1.00  0.00    -0.346 N 
HETATM    9  C   UNL     1     -39.255 -48.793  11.916  1.00  0.00     0.007 A 
ATOM     10  HN  UNL     1     -39.345 -47.807  10.101  1.00  0.00     0.167 HD
HETATM   11  C   UNL     1     -39.805 -48.984  13.177  1.00  0.00     0.031 A 
HETATM   12  C   UNL     1     -38.037 -49.544  11.473  1.00  0.00     0.068 C 
HETATM   13  C   UNL     1     -40.929 -48.242  13.543  1.00  0.00    -0.057 A 
HETATM   14  C   UNL     1     -41.560 -48.425  14.891  1.00  0.00     0.048 C 
HETATM   15  C   UNL     1     -41.448 -47.325  12.625  1.00  0.00     0.055 A 
ENDBRANCH   1   7
BRANCH   4  16
HETATM   16  C   UNL     1     -44.238 -47.762   8.787  1.00  0.00     0.129 C 
BRANCH  16  17
HETATM   17  C   UNL     1     -45.574 -47.756   9.474  1.00  0.00     0.003 A 
HETATM   18  C   UNL     1     -46.780 -48.435   8.868  1.00  0.00     0.007 A 
HETATM   19  C   UNL     1     -46.775 -46.944   9.052  1.00  0.00     0.007 A 
ENDBRANCH  16  17
ENDBRANCH   4  16
TORSDOF 3
ENDMDL
MODEL 6
REMARK VINA RESULT:      -5.3      1.330      2.484
REMARK  3 active torsions:
REMARK  status: ('A' for Active; 'I' for Inactive)
REMARK    1  A    between atoms: C_8  and  N_9 
REMARK       I    between atoms: N_9  and  C_10 
REMARK       I    between atoms: C_10  and  N_12 
REMARK    2  A    between atoms: N_12  and  C_13 
REMARK    3  A    between atoms: C_13  and  C_14 
ROOT
HETATM    1  N   UNL     1     -43.380 -53.836  13.449  1.00  0.00    -0.295 N 
HETATM    2  C   UNL     1     -42.123 -53.509  13.037  1.00  0.00     0.321 C 
HETATM    3  O   UNL     1     -41.266 -54.391  12.983  1.00  0.00    -0.247 OA
HETATM    4  N   UNL     1     -41.884 -52.217  12.683  1.00  0.00    -0.342 N 
HETATM    5  H   UNL     1     -43.476 -54.817  13.665  1.00  0.00     0.172 HD
HETATM    6  H   UNL     1     -42.611 -51.554  12.934  1.00  0.00     0.164 HD
ENDROOT
BRANCH   1   7
HETATM    7  C   UNL     1     -44.506 -53.020  13.573  1.00  0.00     0.109 A 
HETATM    8  N   UNL     1     -44.791 -52.469  14.770  1.00  0.00    -0.346 N 
HETATM    9  C   UNL     1     -45.869 -51.660  14.865  1.00  0.00     0.007 A 
ATOM     10  HN  UNL     1     -44.207 -52.659  15.584  1.00  0.00     0.167 HD
HETATM   11  C   UNL     1     -46.700 -51.390  13.786  1.00  0.00     0.031 A 
HETATM   12  C   UNL     1     -46.110 -51.047  16.209  1.00  0.00     0.068 C 
HETATM   13  C   UNL     1     -46.416 -51.975  12.551  1.00  0.00    -0.057 A 
HETATM   14  C   UNL     1     -47.294 -51.718  11.362  1.00  0.00     0.048 C 
HETATM   15  C   UNL     1     -45.294 -52.802  12.449  1.00  0.00     0.055 A 
ENDBRANCH   1   7
BRANCH   4  16
HETATM   16  C   UNL     1     -40.583 -51.788  12.258  1.00  0.00     0.129 C 
BRANCH  16  17
HETATM   17  C   UNL     1     -39.704 -51.202  13.326  1.00  0.00     0.003 A 
HETATM   18  C   UNL     1     -38.214 -51.045  13.128  1.00  0.00     0.007 A 
HETATM   19  C   UNL     1     -38.734 -51.976  14.187  1.00  0.00     0.007 A 
ENDBRANCH  16  17
ENDBRANCH   4  16
TORSDOF 3
ENDMDL
MODEL 7
REMARK VINA RESULT:      -5.2      2.921      5.015
REMARK  3 active torsions:
REMARK  status: ('A' for Active; 'I' for Inactive)
REMARK    1  A    between atoms: C_8  and  N_9 
REMARK       I    between atoms: N_9  and  C_10 
REMARK       I    between atoms: C_10  and  N_12 
REMARK    2  A    between atoms: N_12  and  C_13 
REMARK    3  A    between atoms: C_13  and  C_14 
ROOT
HETATM    1  N   UNL     1     -40.790 -50.220  11.791  1.00  0.00    -0.295 N 
HETATM    2  C   UNL     1     -41.155 -51.506  12.056  1.00  0.00     0.321 C 
HETATM    3  O   UNL     1     -40.277 -52.358  12.193  1.00  0.00    -0.247 OA
HETATM    4  N   UNL     1     -42.482 -51.780  12.177  1.00  0.00    -0.342 N 
HETATM    5  H   UNL     1     -39.789 -50.102  11.746  1.00  0.00     0.172 HD
HETATM    6  H   UNL     1     -43.110 -51.043  11.872  1.00  0.00     0.164 HD
ENDROOT
BRANCH   1   7
HETATM    7  C   UNL     1     -41.597 -49.095  11.615  1.00  0.00     0.109 A 
HETATM    8  N   UNL     1     -42.041 -48.791  10.379  1.00  0.00    -0.346 N 
HETATM    9  C   UNL     1     -42.842 -47.714  10.230  1.00  0.00     0.007 A 
ATOM     10  HN  UNL     1     -41.777 -49.361   9.575  1.00  0.00     0.167 HD
HETATM   11  C   UNL     1     -43.211 -46.903  11.295  1.00  0.00     0.031 A 
HETATM   12  C   UNL     1     -43.336 -47.452   8.841  1.00  0.00     0.068 C 
HETATM   13  C   UNL     1     -42.736 -47.206  12.572  1.00  0.00    -0.057 A 
HETATM   14  C   UNL     1     -43.102 -46.349  13.748  1.00  0.00     0.048 C 
HETATM   15  C   UNL     1     -41.917 -48.327  12.728  1.00  0.00     0.055 A 
ENDBRANCH   1   7
BRANCH   4  16
HETATM   16  C   UNL     1     -42.949 -53.112  12.435  1.00  0.00     0.129 C 
BRANCH  16  17
HETATM   17  C   UNL     1     -43.128 -53.477  13.880  1.00  0.00     0.003 A 
HETATM   18  C   UNL     1     -42.381 -54.634  14.503  1.00  0.00     0.007 A 
HETATM   19  C   UNL     1     -43.879 -54.681  14.395  1.00  0.00     0.007 A 
ENDBRANCH  16  17
ENDBRANCH   4  16
TORSDOF 3
ENDMDL
MODEL 8
REMARK VINA RESULT:      -5.0      2.921      3.967
REMARK  3 active torsions:
REMARK  status: ('A' for Active; 'I' for Inactive)
REMARK    1  A    between atoms: C_8  and  N_9 
REMARK       I    between atoms: N_9  and  C_10 
REMARK       I    between atoms: C_10  and  N_12 
REMARK    2  A    between atoms: N_12  and  C_13 
REMARK    3  A    between atoms: C_13  and  C_14 
ROOT
HETATM    1  N   UNL     1     -44.798 -54.780  15.116  1.00  0.00    -0.295 N 
HETATM    2  C   UNL     1     -43.454 -54.919  15.294  1.00  0.00     0.321 C 
HETATM    3  O   UNL     1     -42.993 -56.044  15.488  1.00  0.00    -0.247 OA
HETATM    4  N   UNL     1     -42.682 -53.801  15.225  1.00  0.00    -0.342 N 
HETATM    5  H   UNL     1     -45.288 -55.661  15.155  1.00  0.00     0.172 HD
HETATM    6  H   UNL     1     -43.188 -52.920  15.236  1.00  0.00     0.164 HD
ENDROOT
BRANCH   1   7
HETATM    7  C   UNL     1     -45.537 -53.623  14.867  1.00  0.00     0.109 A 
HETATM    8  N   UNL     1     -45.991 -52.896  15.908  1.00  0.00    -0.346 N 
HETATM    9  C   UNL     1     -46.682 -51.764  15.649  1.00  0.00     0.007 A 
ATOM     10  HN  UNL     1     -45.817 -53.193  16.868  1.00  0.00     0.167 HD
HETATM   11  C   UNL     1     -46.955 -51.332  14.357  1.00  0.00     0.031 A 
HETATM   12  C   UNL     1     -47.124 -50.979  16.844  1.00  0.00     0.068 C 
HETATM   13  C   UNL     1     -46.502 -52.095  13.279  1.00  0.00    -0.057 A 
HETATM   14  C   UNL     1     -46.784 -51.670  11.869  1.00  0.00     0.048 C 
HETATM   15  C   UNL     1     -45.776 -53.259  13.547  1.00  0.00     0.055 A 
ENDBRANCH   1   7
BRANCH   4  16
HETATM   16  C   UNL     1     -41.263 -53.860  15.422  1.00  0.00     0.129 C 
BRANCH  16  17
HETATM   17  C   UNL     1     -40.422 -53.727  14.184  1.00  0.00     0.003 A 
HETATM   18  C   UNL     1     -38.962 -54.119  14.173  1.00  0.00     0.007 A 
HETATM   19  C   UNL     1     -39.355 -52.685  13.955  1.00  0.00     0.007 A 
ENDBRANCH  16  17
ENDBRANCH   4  16
TORSDOF 3
ENDMDL
MODEL 9
REMARK VINA RESULT:      -5.0      1.819      2.512
REMARK  3 active torsions:
REMARK  status: ('A' for Active; 'I' for Inactive)
REMARK    1  A    between atoms: C_8  and  N_9 
REMARK       I    between atoms: N_9  and  C_10 
REMARK       I    between atoms: C_10  and  N_12 
REMARK    2  A    between atoms: N_12  and  C_13 
REMARK    3  A    between atoms: C_13  and  C_14 
ROOT
HETATM    1  N   UNL     1     -41.931 -51.656  11.775  1.00  0.00    -0.295 N 
HETATM    2  C   UNL     1     -41.083 -50.616  12.017  1.00  0.00     0.321 C 
HETATM    3  O   UNL     1     -40.326 -50.245  11.120  1.00  0.00    -0.247 OA
HETATM    4  N   UNL     1     -41.134 -50.023  13.239  1.00  0.00    -0.342 N 
HETATM    5  H   UNL     1     -41.846 -52.017  10.836  1.00  0.00     0.172 HD
HETATM    6  H   UNL     1     -41.666 -50.522  13.945  1.00  0.00     0.164 HD
ENDROOT
BRANCH   1   7
HETATM    7  C   UNL     1     -42.879 -52.233  12.621  1.00  0.00     0.109 A 
HETATM    8  N   UNL     1     -44.098 -51.667  12.725  1.00  0.00    -0.346 N 
HETATM    9  C   UNL     1     -45.013 -52.253  13.528  1.00  0.00     0.007 A 
ATOM     10  HN  UNL     1     -44.324 -50.816  12.211  1.00  0.00     0.167 HD
HETATM   11  C   UNL     1     -44.740 -53.402  14.260  1.00  0.00     0.031 A 
HETATM   12  C   UNL     1     -46.360 -51.601  13.571  1.00  0.00     0.068 C 
HETATM   13  C   UNL     1     -43.472 -53.977  14.167  1.00  0.00    -0.057 A 
HETATM   14  C   UNL     1     -43.133 -55.212  14.948  1.00  0.00     0.048 C 
HETATM   15  C   UNL     1     -42.530 -53.378  13.326  1.00  0.00     0.055 A 
ENDBRANCH   1   7
BRANCH   4  16
HETATM   16  C   UNL     1     -40.261 -48.937  13.580  1.00  0.00     0.129 C 
BRANCH  16  17
HETATM   17  C   UNL     1     -38.956 -49.319  14.216  1.00  0.00     0.003 A 
HETATM   18  C   UNL     1     -37.754 -48.403  14.171  1.00  0.00     0.007 A 
HETATM   19  C   UNL     1     -37.707 -49.735  13.477  1.00  0.00     0.007 A 
ENDBRANCH  16  17
ENDBRANCH   4  16
TORSDOF 3
ENDMDL
