MODEL 1
REMARK VINA RESULT:      -6.1      0.000      0.000
REMARK  7 active torsions:
REMARK  status: ('A' for Active; 'I' for Inactive)
REMARK    1  A    between atoms: C_2  and  C_3 
REMARK    2  A    between atoms: C_3  and  O_4 
REMARK    3  A    between atoms: C_3  and  C_5 
REMARK    4  A    between atoms: C_3  and  C_7 
REMARK    5  A    between atoms: C_7  and  N_8 
REMARK    6  A    between atoms: C_13  and  N_14 
REMARK    7  A    between atoms: N_14  and  C_15 
ROOT
HETATM    1  N   UNL     1     -42.760 -52.027  13.150  1.00  0.00    -0.324 N 
HETATM    2  C   UNL     1     -41.759 -52.871  12.746  1.00  0.00     0.185 C 
HETATM    3  N   UNL     1     -40.809 -52.245  12.088  1.00  0.00    -0.346 N 
ATOM      4  HN  UNL     1     -39.925 -52.629  11.752  1.00  0.00     0.167 HD
HETATM    5  C   UNL     1     -41.274 -50.956  11.953  1.00  0.00     0.122 A 
HETATM    6  C   UNL     1     -40.726 -49.832  11.304  1.00  0.00     0.133 A 
HETATM    7  N   UNL     1     -41.478 -48.702  11.275  1.00  0.00    -0.337 N 
ATOM      8  HN  UNL     1     -41.144 -47.868  10.793  1.00  0.00     0.168 HD
HETATM    9  C   UNL     1     -42.679 -48.703  11.897  1.00  0.00     0.183 A 
HETATM   10  N   UNL     1     -43.267 -49.705  12.586  1.00  0.00    -0.336 N 
ATOM     11  HN  UNL     1     -44.169 -49.633  13.057  1.00  0.00     0.168 HD
HETATM   12  C   UNL     1     -42.505 -50.810  12.569  1.00  0.00     0.140 A 
ENDROOT
BRANCH   1  13
HETATM   13  C   UNL     1     -43.922 -52.376  13.953  1.00  0.00     0.169 C 
BRANCH  13  14
HETATM   14  C   UNL     1     -45.172 -52.903  13.178  1.00  0.00     0.073 C 
BRANCH  14  15
HETATM   15  C   UNL     1     -45.464 -54.361  13.633  1.00  0.00     0.035 C 
HETATM   16  C   UNL     1     -44.354 -55.001  14.470  1.00  0.00     0.008 C 
ENDBRANCH  14  15
BRANCH  14  17
HETATM   17  O   UNL     1     -44.849 -52.996  11.780  1.00  0.00    -0.388 OA
HETATM   18  H   UNL     1     -45.174 -52.202  11.321  1.00  0.00     0.210 HD
ENDBRANCH  14  17
BRANCH  14  19
HETATM   19  C   UNL     1     -46.430 -52.012  13.312  1.00  0.00     0.035 C 
HETATM   20  C   UNL     1     -46.674 -51.435  14.702  1.00  0.00     0.008 C 
ENDBRANCH  14  19
ENDBRANCH  13  14
ENDBRANCH   1  13
BRANCH   6  21
HETATM   21  N   UNL     1     -39.447 -49.870  10.752  1.00  0.00    -0.370 N 
HETATM   22  H   UNL     1     -39.330 -49.128  10.065  1.00  0.00     0.161 HD
BRANCH  21  23
HETATM   23  C   UNL     1     -38.313 -50.107  11.634  1.00  0.00     0.075 C 
HETATM   24  C   UNL     1     -37.041 -50.130  10.786  1.00  0.00     0.031 C 
HETATM   25  C   UNL     1     -38.230 -48.996  12.679  1.00  0.00     0.031 C 
ENDBRANCH  21  23
ENDBRANCH   6  21
TORSDOF 7
ENDMDL
MODEL 2
REMARK VINA RESULT:      -5.8      3.012      5.567
REMARK  7 active torsions:
REMARK  status: ('A' for Active; 'I' for Inactive)
REMARK    1  A    between atoms: C_2  and  C_3 
REMARK    2  A    between atoms: C_3  and  O_4 
REMARK    3  A    between atoms: C_3  and  C_5 
REMARK    4  A    between atoms: C_3  and  C_7 
REMARK    5  A    between atoms: C_7  and  N_8 
REMARK    6  A    between atoms: C_13  and  N_14 
REMARK    7  A    between atoms: N_14  and  C_15 
ROOT
HETATM    1  N   UNL     1     -40.981 -49.937  13.170  1.00  0.00    -0.324 N 
HETATM    2  C   UNL     1     -42.273 -50.396  13.179  1.00  0.00     0.185 C 
HETATM    3  N   UNL     1     -43.018 -49.820  12.263  1.00  0.00    -0.346 N 
ATOM      4  HN  UNL     1     -43.983 -50.039  12.015  1.00  0.00     0.167 HD
HETATM    5  C   UNL     1     -42.203 -48.856  11.712  1.00  0.00     0.122 A 
HETATM    6  C   UNL     1     -42.447 -47.889  10.717  1.00  0.00     0.133 A 
HETATM    7  N   UNL     1     -41.448 -47.010  10.446  1.00  0.00    -0.337 N 
ATOM      8  HN  UNL     1     -41.581 -46.269   9.757  1.00  0.00     0.168 HD
HETATM    9  C   UNL     1     -40.275 -47.133  11.106  1.00  0.00     0.183 A 
HETATM   10  N   UNL     1     -39.925 -48.052  12.033  1.00  0.00    -0.336 N 
ATOM     11  HN  UNL     1     -39.008 -48.106  12.477  1.00  0.00     0.168 HD
HETATM   12  C   UNL     1     -40.946 -48.883  12.291  1.00  0.00     0.140 A 
ENDROOT
BRANCH   1  13
HETATM   13  C   UNL     1     -39.884 -50.407  14.002  1.00  0.00     0.169 C 
BRANCH  13  14
HETATM   14  C   UNL     1     -38.998 -51.548  13.407  1.00  0.00     0.073 C 
BRANCH  14  15
HETATM   15  C   UNL     1     -37.579 -50.980  13.121  1.00  0.00     0.035 C 
HETATM   16  C   UNL     1     -37.362 -50.503  11.683  1.00  0.00     0.008 C 
ENDBRANCH  14  15
BRANCH  14  17
HETATM   17  O   UNL     1     -39.524 -51.926  12.124  1.00  0.00    -0.388 OA
HETATM   18  H   UNL     1     -38.864 -51.733  11.435  1.00  0.00     0.210 HD
ENDBRANCH  14  17
BRANCH  14  19
HETATM   19  C   UNL     1     -38.925 -52.823  14.282  1.00  0.00     0.035 C 
HETATM   20  C   UNL     1     -39.805 -53.979  13.823  1.00  0.00     0.008 C 
ENDBRANCH  14  19
ENDBRANCH  13  14
ENDBRANCH   1  13
BRANCH   6  21
HETATM   21  N   UNL     1     -43.650 -47.864  10.015  1.00  0.00    -0.370 N 
HETATM   22  H   UNL     1     -44.441 -47.839  10.656  1.00  0.00     0.161 HD
BRANCH  21  23
HETATM   23  C   UNL     1     -43.755 -47.008   8.841  1.00  0.00     0.075 C 
HETATM   24  C   UNL     1     -43.575 -47.877   7.595  1.00  0.00     0.031 C 
HETATM   25  C   UNL     1     -45.122 -46.329   8.816  1.00  0.00     0.031 C 
ENDBRANCH  21  23
ENDBRANCH   6  21
TORSDOF 7
ENDMDL
MODEL 3
REMARK VINA RESULT:      -5.8      1.579      2.802
REMARK  7 active torsions:
REMARK  status: ('A' for Active; 'I' for Inactive)
REMARK    1  A    between atoms: C_2  and  C_3 
REMARK    2  A    between atoms: C_3  and  O_4 
REMARK    3  A    between atoms: C_3  and  C_5 
REMARK    4  A    between atoms: C_3  and  C_7 
REMARK    5  A    between atoms: C_7  and  N_8 
REMARK    6  A    between atoms: C_13  and  N_14 
REMARK    7  A    between atoms: N_14  and  C_15 
ROOT
HETATM    1  N   UNL     1     -43.684 -51.795  13.895  1.00  0.00    -0.324 N 
HETATM    2  C   UNL     1     -43.564 -50.436  13.758  1.00  0.00     0.185 C 
HETATM    3  N   UNL     1     -42.546 -50.096  12.999  1.00  0.00    -0.346 N 
ATOM      4  HN  UNL     1     -42.290 -49.161  12.682  1.00  0.00     0.167 HD
HETATM    5  C   UNL     1     -41.904 -51.284  12.730  1.00  0.00     0.122 A 
HETATM    6  C   UNL     1     -40.728 -51.563  12.007  1.00  0.00     0.133 A 
HETATM    7  N   UNL     1     -40.298 -52.852  11.990  1.00  0.00    -0.337 N 
ATOM      8  HN  UNL     1     -39.436 -53.105  11.508  1.00  0.00     0.168 HD
HETATM    9  C   UNL     1     -41.034 -53.791  12.625  1.00  0.00     0.183 A 
HETATM   10  N   UNL     1     -42.195 -53.636  13.297  1.00  0.00    -0.336 N 
ATOM     11  HN  UNL     1     -42.717 -54.396  13.734  1.00  0.00     0.168 HD
HETATM   12  C   UNL     1     -42.571 -52.348  13.313  1.00  0.00     0.140 A 
ENDROOT
BRANCH   1  13
HETATM   13  C   UNL     1     -44.733 -52.509  14.606  1.00  0.00     0.169 C 
BRANCH  13  14
HETATM   14  C   UNL     1     -46.131 -52.568  13.911  1.00  0.00     0.073 C 
BRANCH  14  15
HETATM   15  C   UNL     1     -47.027 -51.439  14.493  1.00  0.00     0.035 C 
HETATM   16  C   UNL     1     -46.887 -51.230  16.003  1.00  0.00     0.008 C 
ENDBRANCH  14  15
BRANCH  14  17
HETATM   17  O   UNL     1     -46.781 -53.798  14.274  1.00  0.00    -0.388 OA
HETATM   18  H   UNL     1     -47.062 -53.750  15.205  1.00  0.00     0.210 HD
ENDBRANCH  14  17
BRANCH  14  19
HETATM   19  C   UNL     1     -46.079 -52.501  12.365  1.00  0.00     0.035 C 
HETATM   20  C   UNL     1     -47.119 -51.595  11.717  1.00  0.00     0.008 C 
ENDBRANCH  14  19
ENDBRANCH  13  14
ENDBRANCH   1  13
BRANCH   6  21
HETATM   21  N   UNL     1     -40.058 -50.563  11.305  1.00  0.00    -0.370 N 
HETATM   22  H   UNL     1     -40.696 -50.072  10.682  1.00  0.00     0.161 HD
BRANCH  21  23
HETATM   23  C   UNL     1     -39.099 -49.732  12.020  1.00  0.00     0.075 C 
HETATM   24  C   UNL     1     -37.712 -49.978  11.425  1.00  0.00     0.031 C 
HETATM   25  C   UNL     1     -39.481 -48.260  11.875  1.00  0.00     0.031 C 
ENDBRANCH  21  23
ENDBRANCH   6  21
TORSDOF 7
ENDMDL
MODEL 4
REMARK VINA RESULT:      -5.7      2.346      3.078
REMARK  7 active torsions:
REMARK  status: ('A' for Active; 'I' for Inactive)
REMARK    1  A    between atoms: C_2  and  C_3 
REMARK    2  A    between atoms: C_3  and  O_4 
REMARK    3  A    between atoms: C_3  and  C_5 
REMARK    4  A    between atoms: C_3  and  C_7 
REMARK    5  A    between atoms: C_7  and  N_8 
REMARK    6  A    between atoms: C_13  and  N_14 
REMARK    7  A    between atoms: N_14  and  C_15 
ROOT
HETATM    1  N   UNL     1     -41.837 -50.417  12.815  1.00  0.00    -0.324 N 
HETATM    2  C   UNL     1     -40.473 -50.502  12.716  1.00  0.00     0.185 C 
HETATM    3  N   UNL     1     -39.948 -49.461  12.109  1.00  0.00    -0.346 N 
ATOM      4  HN  UNL     1     -38.958 -49.248  11.980  1.00  0.00     0.167 HD
HETATM    5  C   UNL     1     -41.031 -48.723  11.688  1.00  0.00     0.122 A 
HETATM    6  C   UNL     1     -41.113 -47.529  10.946  1.00  0.00     0.133 A 
HETATM    7  N   UNL     1     -42.353 -47.086  10.613  1.00  0.00    -0.337 N 
ATOM      8  HN  UNL     1     -42.470 -46.244  10.050  1.00  0.00     0.168 HD
HETATM    9  C   UNL     1     -43.429 -47.784  11.040  1.00  0.00     0.183 A 
HETATM   10  N   UNL     1     -43.459 -48.904  11.794  1.00  0.00    -0.336 N 
ATOM     11  HN  UNL     1     -44.312 -49.369  12.106  1.00  0.00     0.168 HD
HETATM   12  C   UNL     1     -42.216 -49.322  12.080  1.00  0.00     0.140 A 
ENDROOT
BRANCH   1  13
HETATM   13  C   UNL     1     -42.722 -51.359  13.484  1.00  0.00     0.169 C 
BRANCH  13  14
HETATM   14  C   UNL     1     -43.028 -52.689  12.722  1.00  0.00     0.073 C 
BRANCH  14  15
HETATM   15  C   UNL     1     -42.314 -53.860  13.455  1.00  0.00     0.035 C 
HETATM   16  C   UNL     1     -40.914 -54.182  12.926  1.00  0.00     0.008 C 
ENDBRANCH  14  15
BRANCH  14  17
HETATM   17  O   UNL     1     -42.424 -52.628  11.419  1.00  0.00    -0.388 OA
HETATM   18  H   UNL     1     -41.500 -52.334  11.505  1.00  0.00     0.210 HD
ENDBRANCH  14  17
BRANCH  14  19
HETATM   19  C   UNL     1     -44.535 -52.983  12.531  1.00  0.00     0.035 C 
HETATM   20  C   UNL     1     -45.478 -51.878  12.989  1.00  0.00     0.008 C 
ENDBRANCH  14  19
ENDBRANCH  13  14
ENDBRANCH   1  13
BRANCH   6  21
HETATM   21  N   UNL     1     -39.968 -46.812  10.605  1.00  0.00    -0.370 N 
HETATM   22  H   UNL     1     -39.480 -47.259   9.831  1.00  0.00     0.161 HD
BRANCH  21  23
HETATM   23  C   UNL     1     -40.044 -45.358  10.556  1.00  0.00     0.075 C 
HETATM   24  C   UNL     1     -39.667 -44.810  11.933  1.00  0.00     0.031 C 
HETATM   25  C   UNL     1     -39.082 -44.826   9.496  1.00  0.00     0.031 C 
ENDBRANCH  21  23
ENDBRANCH   6  21
TORSDOF 7
ENDMDL
MODEL 5
REMARK VINA RESULT:      -5.7      1.883      3.208
REMARK  7 active torsions:
REMARK  status: ('A' for Active; 'I' for Inactive)
REMARK    1  A    between atoms: C_2  and  C_3 
REMARK    2  A    between atoms: C_3  and  O_4 
REMARK    3  A    between atoms: C_3  and  C_5 
REMARK    4  A    between atoms: C_3  and  C_7 
REMARK    5  A    between atoms: C_7  and  N_8 
REMARK    6  A    between atoms: C_13  and  N_14 
REMARK    7  A    between atoms: N_14  and  C_15 
ROOT
HETATM    1  N   UNL     1     -42.528 -51.315  13.408  1.00  0.00    -0.324 N 
HETATM    2  C   UNL     1     -43.502 -50.382  13.162  1.00  0.00     0.185 C 
HETATM    3  N   UNL     1     -43.144 -49.511  12.245  1.00  0.00    -0.346 N 
ATOM      4  HN  UNL     1     -43.712 -48.772  11.831  1.00  0.00     0.167 HD
HETATM    5  C   UNL     1     -41.831 -49.820  11.970  1.00  0.00     0.122 A 
HETATM    6  C   UNL     1     -40.893 -49.217  11.109  1.00  0.00     0.133 A 
HETATM    7  N   UNL     1     -39.629 -49.711  11.120  1.00  0.00    -0.337 N 
ATOM      8  HN  UNL     1     -38.902 -49.293  10.539  1.00  0.00     0.168 HD
HETATM    9  C   UNL     1     -39.351 -50.769  11.916  1.00  0.00     0.183 A 
HETATM   10  N   UNL     1     -40.185 -51.447  12.733  1.00  0.00    -0.336 N 
ATOM     11  HN  UNL     1     -39.916 -52.258  13.291  1.00  0.00     0.168 HD
HETATM   12  C   UNL     1     -41.415 -50.911  12.713  1.00  0.00     0.140 A 
ENDROOT
BRANCH   1  13
HETATM   13  C   UNL     1     -42.621 -52.454  14.308  1.00  0.00     0.169 C 
BRANCH  13  14
HETATM   14  C   UNL     1     -42.880 -53.846  13.647  1.00  0.00     0.073 C 
BRANCH  14  15
HETATM   15  C   UNL     1     -42.723 -54.950  14.730  1.00  0.00     0.035 C 
HETATM   16  C   UNL     1     -41.620 -54.683  15.757  1.00  0.00     0.008 C 
ENDBRANCH  14  15
BRANCH  14  17
HETATM   17  O   UNL     1     -41.844 -54.104  12.684  1.00  0.00    -0.388 OA
HETATM   18  H   UNL     1     -42.124 -54.828  12.096  1.00  0.00     0.210 HD
ENDBRANCH  14  17
BRANCH  14  19
HETATM   19  C   UNL     1     -44.241 -53.964  12.919  1.00  0.00     0.035 C 
HETATM   20  C   UNL     1     -45.292 -54.802  13.636  1.00  0.00     0.008 C 
ENDBRANCH  14  19
ENDBRANCH  13  14
ENDBRANCH   1  13
BRANCH   6  21
HETATM   21  N   UNL     1     -41.263 -48.181  10.252  1.00  0.00    -0.370 N 
HETATM   22  H   UNL     1     -41.983 -48.492   9.602  1.00  0.00     0.161 HD
BRANCH  21  23
HETATM   23  C   UNL     1     -41.438 -46.846  10.807  1.00  0.00     0.075 C 
HETATM   24  C   UNL     1     -40.087 -46.130  10.771  1.00  0.00     0.031 C 
HETATM   25  C   UNL     1     -42.465 -46.074   9.982  1.00  0.00     0.031 C 
ENDBRANCH  21  23
ENDBRANCH   6  21
TORSDOF 7
ENDMDL
MODEL 6
REMARK VINA RESULT:      -5.6      2.883      4.303
REMARK  7 active torsions:
REMARK  status: ('A' for Active; 'I' for Inactive)
REMARK    1  A    between atoms: C_2  and  C_3 
REMARK    2  A    between atoms: C_3  and  O_4 
REMARK    3  A    between atoms: C_3  and  C_5 
REMARK    4  A    between atoms: C_3  and  C_7 
REMARK    5  A    between atoms: C_7  and  N_8 
REMARK    6  A    between atoms: C_13  and  N_14 
REMARK    7  A    between atoms: N_14  and  C_15 
ROOT
HETATM    1  N   UNL     1     -44.286 -53.811  13.395  1.00  0.00    -0.324 N 
HETATM    2  C   UNL     1     -44.249 -54.761  14.382  1.00  0.00     0.185 C 
HETATM    3  N   UNL     1     -43.025 -55.018  14.787  1.00  0.00    -0.346 N 
ATOM      4  HN  UNL     1     -42.736 -55.622  15.557  1.00  0.00     0.167 HD
HETATM    5  C   UNL     1     -42.221 -54.289  13.939  1.00  0.00     0.122 A 
HETATM    6  C   UNL     1     -40.819 -54.188  13.843  1.00  0.00     0.133 A 
HETATM    7  N   UNL     1     -40.317 -53.436  12.830  1.00  0.00    -0.337 N 
ATOM      8  HN  UNL     1     -39.310 -53.354  12.695  1.00  0.00     0.168 HD
HETATM    9  C   UNL     1     -41.177 -52.801  12.003  1.00  0.00     0.183 A 
HETATM   10  N   UNL     1     -42.527 -52.791  12.042  1.00  0.00    -0.336 N 
ATOM     11  HN  UNL     1     -43.121 -52.266  11.399  1.00  0.00     0.168 HD
HETATM   12  C   UNL     1     -42.983 -53.565  13.039  1.00  0.00     0.140 A 
ENDROOT
BRANCH   1  13
HETATM   13  C   UNL     1     -45.474 -53.247  12.773  1.00  0.00     0.169 C 
BRANCH  13  14
HETATM   14  C   UNL     1     -45.813 -51.765  13.134  1.00  0.00     0.073 C 
BRANCH  14  15
HETATM   15  C   UNL     1     -47.184 -51.397  12.500  1.00  0.00     0.035 C 
HETATM   16  C   UNL     1     -47.324 -51.775  11.023  1.00  0.00     0.008 C 
ENDBRANCH  14  15
BRANCH  14  17
HETATM   17  O   UNL     1     -44.854 -50.901  12.500  1.00  0.00    -0.388 OA
HETATM   18  H   UNL     1     -43.986 -51.341  12.483  1.00  0.00     0.210 HD
ENDBRANCH  14  17
BRANCH  14  19
HETATM   19  C   UNL     1     -45.796 -51.456  14.650  1.00  0.00     0.035 C 
HETATM   20  C   UNL     1     -47.089 -51.771  15.393  1.00  0.00     0.008 C 
ENDBRANCH  14  19
ENDBRANCH  13  14
ENDBRANCH   1  13
BRANCH   6  21
HETATM   21  N   UNL     1     -39.986 -54.802  14.777  1.00  0.00    -0.370 N 
HETATM   22  H   UNL     1     -39.561 -55.639  14.383  1.00  0.00     0.161 HD
BRANCH  21  23
HETATM   23  C   UNL     1     -39.115 -53.966  15.590  1.00  0.00     0.075 C 
HETATM   24  C   UNL     1     -39.982 -52.956  16.342  1.00  0.00     0.031 C 
HETATM   25  C   UNL     1     -38.340 -54.835  16.579  1.00  0.00     0.031 C 
ENDBRANCH  21  23
ENDBRANCH   6  21
TORSDOF 7
ENDMDL
MODEL 7
REMARK VINA RESULT:      -5.5      3.335      6.775
REMARK  7 active torsions:
REMARK  status: ('A' for Active; 'I' for Inactive)
REMARK    1  A    between atoms: C_2  and  C_3 
REMARK    2  A    between atoms: C_3  and  O_4 
REMARK    3  A    between atoms: C_3  and  C_5 
REMARK    4  A    between atoms: C_3  and  C_7 
REMARK    5  A    between atoms: C_7  and  N_8 
REMARK    6  A    between atoms: C_13  and  N_14 
REMARK    7  A    between atoms: N_14  and  C_15 
ROOT
HETATM    1  N   UNL     1     -41.684 -47.306  11.994  1.00  0.00    -0.324 N 
HETATM    2  C   UNL     1     -42.847 -47.955  11.668  1.00  0.00     0.185 C 
HETATM    3  N   UNL     1     -42.676 -49.249  11.521  1.00  0.00    -0.346 N 
ATOM      4  HN  UNL     1     -43.391 -49.958  11.357  1.00  0.00     0.167 HD
HETATM    5  C   UNL     1     -41.317 -49.434  11.637  1.00  0.00     0.122 A 
HETATM    6  C   UNL     1     -40.521 -50.591  11.528  1.00  0.00     0.133 A 
HETATM    7  N   UNL     1     -39.175 -50.432  11.613  1.00  0.00    -0.337 N 
ATOM      8  HN  UNL     1     -38.551 -51.232  11.510  1.00  0.00     0.168 HD
HETATM    9  C   UNL     1     -38.679 -49.195  11.836  1.00  0.00     0.183 A 
HETATM   10  N   UNL     1     -39.354 -48.037  12.006  1.00  0.00    -0.336 N 
ATOM     11  HN  UNL     1     -38.917 -47.135  12.198  1.00  0.00     0.168 HD
HETATM   12  C   UNL     1     -40.677 -48.232  11.889  1.00  0.00     0.140 A 
ENDROOT
BRANCH   1  13
HETATM   13  C   UNL     1     -41.531 -45.891  12.293  1.00  0.00     0.169 C 
BRANCH  13  14
HETATM   14  C   UNL     1     -41.303 -44.941  11.073  1.00  0.00     0.073 C 
BRANCH  14  15
HETATM   15  C   UNL     1     -42.510 -43.966  10.967  1.00  0.00     0.035 C 
HETATM   16  C   UNL     1     -42.750 -43.114  12.215  1.00  0.00     0.008 C 
ENDBRANCH  14  15
BRANCH  14  17
HETATM   17  O   UNL     1     -41.334 -45.720   9.865  1.00  0.00    -0.388 OA
HETATM   18  H   UNL     1     -42.133 -45.494   9.356  1.00  0.00     0.210 HD
ENDBRANCH  14  17
BRANCH  14  19
HETATM   19  C   UNL     1     -39.961 -44.171  11.104  1.00  0.00     0.035 C 
HETATM   20  C   UNL     1     -39.189 -44.260  12.414  1.00  0.00     0.008 C 
ENDBRANCH  14  19
ENDBRANCH  13  14
ENDBRANCH   1  13
BRANCH   6  21
HETATM   21  N   UNL     1     -41.098 -51.851  11.380  1.00  0.00    -0.370 N 
HETATM   22  H   UNL     1     -40.554 -52.422  10.735  1.00  0.00     0.161 HD
BRANCH  21  23
HETATM   23  C   UNL     1     -41.602 -52.532  12.564  1.00  0.00     0.075 C 
HETATM   24  C   UNL     1     -43.091 -52.814  12.360  1.00  0.00     0.031 C 
HETATM   25  C   UNL     1     -40.842 -53.840  12.773  1.00  0.00     0.031 C 
ENDBRANCH  21  23
ENDBRANCH   6  21
TORSDOF 7
ENDMDL
MODEL 8
REMARK VINA RESULT:      -5.4      4.580      7.407
REMARK  7 active torsions:
REMARK  status: ('A' for Active; 'I' for Inactive)
REMARK    1  A    between atoms: C_2  and  C_3 
REMARK    2  A    between atoms: C_3  and  O_4 
REMARK    3  A    between atoms: C_3  and  C_5 
REMARK    4  A    between atoms: C_3  and  C_7 
REMARK    5  A    between atoms: C_7  and  N_8 
REMARK    6  A    between atoms: C_13  and  N_14 
REMARK    7  A    between atoms: N_14  and  C_15 
ROOT
HETATM    1  N   UNL     1     -41.770 -45.400  10.635  1.00  0.00    -0.324 N 
HETATM    2  C   UNL     1     -40.414 -45.416  10.434  1.00  0.00     0.185 C 
HETATM    3  N   UNL     1     -39.916 -46.631  10.468  1.00  0.00    -0.346 N 
ATOM      4  HN  UNL     1     -38.956 -46.918  10.272  1.00  0.00     0.167 HD
HETATM    5  C   UNL     1     -40.978 -47.430  10.827  1.00  0.00     0.122 A 
HETATM    6  C   UNL     1     -41.060 -48.815  11.069  1.00  0.00     0.133 A 
HETATM    7  N   UNL     1     -42.254 -49.303  11.497  1.00  0.00    -0.337 N 
ATOM      8  HN  UNL     1     -42.362 -50.293  11.716  1.00  0.00     0.168 HD
HETATM    9  C   UNL     1     -43.296 -48.451  11.627  1.00  0.00     0.183 A 
HETATM   10  N   UNL     1     -43.333 -47.125  11.372  1.00  0.00    -0.336 N 
ATOM     11  HN  UNL     1     -44.164 -46.541  11.466  1.00  0.00     0.168 HD
HETATM   12  C   UNL     1     -42.130 -46.679  10.978  1.00  0.00     0.140 A 
ENDROOT
BRANCH   1  13
HETATM   13  C   UNL     1     -42.643 -44.237  10.593  1.00  0.00     0.169 C 
BRANCH  13  14
HETATM   14  C   UNL     1     -42.182 -42.990  11.414  1.00  0.00     0.073 C 
BRANCH  14  15
HETATM   15  C   UNL     1     -43.392 -42.027  11.582  1.00  0.00     0.035 C 
HETATM   16  C   UNL     1     -43.453 -41.312  12.934  1.00  0.00     0.008 C 
ENDBRANCH  14  15
BRANCH  14  17
HETATM   17  O   UNL     1     -41.215 -42.257  10.643  1.00  0.00    -0.388 OA
HETATM   18  H   UNL     1     -40.433 -42.817  10.491  1.00  0.00     0.210 HD
ENDBRANCH  14  17
BRANCH  14  19
HETATM   19  C   UNL     1     -41.539 -43.326  12.781  1.00  0.00     0.035 C 
HETATM   20  C   UNL     1     -40.108 -42.838  12.965  1.00  0.00     0.008 C 
ENDBRANCH  14  19
ENDBRANCH  13  14
ENDBRANCH   1  13
BRANCH   6  21
HETATM   21  N   UNL     1     -39.971 -49.654  10.839  1.00  0.00    -0.370 N 
HETATM   22  H   UNL     1     -39.606 -49.519   9.898  1.00  0.00     0.161 HD
BRANCH  21  23
HETATM   23  C   UNL     1     -38.978 -49.813  11.892  1.00  0.00     0.075 C 
HETATM   24  C   UNL     1     -39.307 -51.083  12.676  1.00  0.00     0.031 C 
HETATM   25  C   UNL     1     -37.584 -49.920  11.276  1.00  0.00     0.031 C 
ENDBRANCH  21  23
ENDBRANCH   6  21
TORSDOF 7
ENDMDL
MODEL 9
REMARK VINA RESULT:      -5.4      2.876      4.151
REMARK  7 active torsions:
REMARK  status: ('A' for Active; 'I' for Inactive)
REMARK    1  A    between atoms: C_2  and  C_3 
REMARK    2  A    between atoms: C_3  and  O_4 
REMARK    3  A    between atoms: C_3  and  C_5 
REMARK    4  A    between atoms: C_3  and  C_7 
REMARK    5  A    between atoms: C_7  and  N_8 
REMARK    6  A    between atoms: C_13  and  N_14 
REMARK    7  A    between atoms: N_14  and  C_15 
ROOT
HETATM    1  N   UNL     1     -40.730 -49.651  11.656  1.00  0.00    -0.324 N 
HETATM    2  C   UNL     1     -39.467 -49.247  12.004  1.00  0.00     0.185 C 
HETATM    3  N   UNL     1     -39.267 -47.969  11.773  1.00  0.00    -0.346 N 
ATOM      4  HN  UNL     1     -38.447 -47.412  12.013  1.00  0.00     0.167 HD
HETATM    5  C   UNL     1     -40.412 -47.550  11.133  1.00  0.00     0.122 A 
HETATM    6  C   UNL     1     -40.775 -46.299  10.597  1.00  0.00     0.133 A 
HETATM    7  N   UNL     1     -41.962 -46.223   9.942  1.00  0.00    -0.337 N 
ATOM      8  HN  UNL     1     -42.261 -45.350   9.508  1.00  0.00     0.168 HD
HETATM    9  C   UNL     1     -42.741 -47.327   9.875  1.00  0.00     0.183 A 
HETATM   10  N   UNL     1     -42.509 -48.550  10.397  1.00  0.00    -0.336 N 
ATOM     11  HN  UNL     1     -43.154 -49.339  10.332  1.00  0.00     0.168 HD
HETATM   12  C   UNL     1     -41.317 -48.591  11.012  1.00  0.00     0.140 A 
ENDROOT
BRANCH   1  13
HETATM   13  C   UNL     1     -41.301 -50.976  11.841  1.00  0.00     0.169 C 
BRANCH  13  14
HETATM   14  C   UNL     1     -42.405 -51.112  12.938  1.00  0.00     0.073 C 
BRANCH  14  15
HETATM   15  C   UNL     1     -42.657 -52.623  13.209  1.00  0.00     0.035 C 
HETATM   16  C   UNL     1     -43.881 -53.202  12.495  1.00  0.00     0.008 C 
ENDBRANCH  14  15
BRANCH  14  17
HETATM   17  O   UNL     1     -43.645 -50.605  12.416  1.00  0.00    -0.388 OA
HETATM   18  H   UNL     1     -44.350 -51.260  12.568  1.00  0.00     0.210 HD
ENDBRANCH  14  17
BRANCH  14  19
HETATM   19  C   UNL     1     -42.099 -50.351  14.250  1.00  0.00     0.035 C 
HETATM   20  C   UNL     1     -42.964 -49.123  14.508  1.00  0.00     0.008 C 
ENDBRANCH  14  19
ENDBRANCH  13  14
ENDBRANCH   1  13
BRANCH   6  21
HETATM   21  N   UNL     1     -39.965 -45.178  10.770  1.00  0.00    -0.370 N 
HETATM   22  H   UNL     1     -39.804 -44.710   9.880  1.00  0.00     0.161 HD
BRANCH  21  23
HETATM   23  C   UNL     1     -40.213 -44.308  11.911  1.00  0.00     0.075 C 
HETATM   24  C   UNL     1     -38.953 -44.283  12.778  1.00  0.00     0.031 C 
HETATM   25  C   UNL     1     -40.546 -42.899  11.425  1.00  0.00     0.031 C 
ENDBRANCH  21  23
ENDBRANCH   6  21
TORSDOF 7
ENDMDL
