MODEL 1
REMARK VINA RESULT:      -6.4      0.000      0.000
REMARK  4 active torsions:
REMARK  status: ('A' for Active; 'I' for Inactive)
REMARK       I    between atoms: C_2  and  N_3 
REMARK       I    between atoms: C_2  and  N_13 
REMARK    1  A    between atoms: N_3  and  C_4 
REMARK    2  A    between atoms: C_8  and  C_10 
REMARK    3  A    between atoms: N_13  and  C_14 
REMARK    4  A    between atoms: C_18  and  C_22 
ROOT
HETATM    1  O   UNL     1     -42.464 -49.600  13.126  1.00  0.00    -0.247 OA
HETATM    2  C   UNL     1     -42.042 -49.746  11.987  1.00  0.00     0.321 C 
HETATM    3  N   UNL     1     -42.398 -48.909  10.949  1.00  0.00    -0.338 N 
HETATM    4  N   UNL     1     -41.149 -50.711  11.583  1.00  0.00    -0.306 N 
HETATM    5  H   UNL     1     -42.554 -49.403  10.082  1.00  0.00     0.164 HD
HETATM    6  H   UNL     1     -40.697 -50.559  10.691  1.00  0.00     0.171 HD
ENDROOT
BRANCH   3   7
HETATM    7  C   UNL     1     -43.300 -47.780  11.216  1.00  0.00     0.090 C 
HETATM    8  C   UNL     1     -44.148 -47.444   9.984  1.00  0.00     0.051 C 
HETATM    9  C   UNL     1     -43.327 -46.743   8.907  1.00  0.00     0.170 C 
HETATM   10  O   UNL     1     -42.640 -45.607   9.429  1.00  0.00    -0.385 OA
HETATM   11  C   UNL     1     -41.733 -45.971  10.476  1.00  0.00     0.127 C 
HETATM   12  C   UNL     1     -42.539 -46.517  11.651  1.00  0.00     0.057 C 
BRANCH  11  13
HETATM   13  C   UNL     1     -40.941 -44.758  10.876  1.00  0.00     0.015 A 
HETATM   14  C   UNL     1     -39.632 -44.441  10.200  1.00  0.00     0.007 A 
HETATM   15  C   UNL     1     -39.639 -44.927  11.622  1.00  0.00     0.007 A 
ENDBRANCH  11  13
ENDBRANCH   3   7
BRANCH   4  16
HETATM   16  C   UNL     1     -40.649 -51.736  12.414  1.00  0.00     0.067 A 
HETATM   17  C   UNL     1     -41.198 -52.995  12.542  1.00  0.00     0.120 A 
HETATM   18  N   UNL     1     -40.685 -53.969  13.324  1.00  0.00    -0.353 N 
HETATM   19  C   UNL     1     -39.564 -53.689  14.015  1.00  0.00     0.085 A 
ATOM     20  HN  UNL     1     -41.131 -54.884  13.390  1.00  0.00     0.166 HD
HETATM   21  N   UNL     1     -38.958 -52.485  13.971  1.00  0.00    -0.353 N 
HETATM   22  C   UNL     1     -39.512 -51.543  13.172  1.00  0.00     0.120 A 
ATOM     23  HN  UNL     1     -38.118 -52.292  14.516  1.00  0.00     0.166 HD
BRANCH  19  24
HETATM   24  C   UNL     1     -38.968 -54.786  14.858  1.00  0.00     0.053 A 
HETATM   25  C   UNL     1     -39.807 -55.477  15.908  1.00  0.00     0.013 A 
HETATM   26  C   UNL     1     -38.718 -54.540  16.332  1.00  0.00     0.013 A 
ENDBRANCH  19  24
ENDBRANCH   4  16
TORSDOF 4
ENDMDL
MODEL 2
REMARK VINA RESULT:      -5.9      3.638      8.153
REMARK  4 active torsions:
REMARK  status: ('A' for Active; 'I' for Inactive)
REMARK       I    between atoms: C_2  and  N_3 
REMARK       I    between atoms: C_2  and  N_13 
REMARK    1  A    between atoms: N_3  and  C_4 
REMARK    2  A    between atoms: C_8  and  C_10 
REMARK    3  A    between atoms: N_13  and  C_14 
REMARK    4  A    between atoms: C_18  and  C_22 
ROOT
HETATM    1  O   UNL     1     -41.843 -50.424  13.909  1.00  0.00    -0.247 OA
HETATM    2  C   UNL     1     -42.738 -50.660  13.109  1.00  0.00     0.321 C 
HETATM    3  N   UNL     1     -43.503 -51.807  13.166  1.00  0.00    -0.338 N 
HETATM    4  N   UNL     1     -43.134 -49.831  12.086  1.00  0.00    -0.306 N 
HETATM    5  H   UNL     1     -43.697 -52.196  12.255  1.00  0.00     0.164 HD
HETATM    6  H   UNL     1     -44.036 -50.027  11.673  1.00  0.00     0.171 HD
ENDROOT
BRANCH   3   7
HETATM    7  C   UNL     1     -43.257 -52.780  14.241  1.00  0.00     0.090 C 
HETATM    8  C   UNL     1     -43.658 -54.196  13.809  1.00  0.00     0.051 C 
HETATM    9  C   UNL     1     -45.172 -54.369  13.778  1.00  0.00     0.170 C 
HETATM   10  O   UNL     1     -45.770 -53.981  15.014  1.00  0.00    -0.385 OA
HETATM   11  C   UNL     1     -45.512 -52.605  15.318  1.00  0.00     0.127 C 
HETATM   12  C   UNL     1     -44.012 -52.425  15.532  1.00  0.00     0.057 C 
BRANCH  11  13
HETATM   13  C   UNL     1     -46.287 -52.225  16.548  1.00  0.00     0.015 A 
HETATM   14  C   UNL     1     -47.621 -51.534  16.430  1.00  0.00     0.007 A 
HETATM   15  C   UNL     1     -46.425 -50.770  16.926  1.00  0.00     0.007 A 
ENDBRANCH  11  13
ENDBRANCH   3   7
BRANCH   4  16
HETATM   16  C   UNL     1     -42.504 -48.613  11.753  1.00  0.00     0.067 A 
HETATM   17  C   UNL     1     -41.502 -48.467  10.816  1.00  0.00     0.120 A 
HETATM   18  N   UNL     1     -40.932 -47.285  10.496  1.00  0.00    -0.353 N 
HETATM   19  C   UNL     1     -41.378 -46.185  11.129  1.00  0.00     0.085 A 
ATOM     20  HN  UNL     1     -40.189 -47.229   9.799  1.00  0.00     0.166 HD
HETATM   21  N   UNL     1     -42.343 -46.223  12.072  1.00  0.00    -0.353 N 
HETATM   22  C   UNL     1     -42.881 -47.431  12.357  1.00  0.00     0.120 A 
ATOM     23  HN  UNL     1     -42.653 -45.377  12.549  1.00  0.00     0.166 HD
BRANCH  19  24
HETATM   24  C   UNL     1     -40.771 -44.861  10.746  1.00  0.00     0.053 A 
HETATM   25  C   UNL     1     -39.444 -44.815  10.024  1.00  0.00     0.013 A 
HETATM   26  C   UNL     1     -39.523 -44.380  11.456  1.00  0.00     0.013 A 
ENDBRANCH  19  24
ENDBRANCH   4  16
TORSDOF 4
ENDMDL
MODEL 3
REMARK VINA RESULT:      -5.9      2.353      8.778
REMARK  4 active torsions:
REMARK  status: ('A' for Active; 'I' for Inactive)
REMARK       I    between atoms: C_2  and  N_3 
REMARK       I    between atoms: C_2  and  N_13 
REMARK    1  A    between atoms: N_3  and  C_4 
REMARK    2  A    between atoms: C_8  and  C_10 
REMARK    3  A    between atoms: N_13  and  C_14 
REMARK    4  A    between atoms: C_18  and  C_22 
ROOT
HETATM    1  O   UNL     1     -40.874 -51.733  11.845  1.00  0.00    -0.247 OA
HETATM    2  C   UNL     1     -40.478 -51.475  12.973  1.00  0.00     0.321 C 
HETATM    3  N   UNL     1     -40.254 -52.450  13.924  1.00  0.00    -0.338 N 
HETATM    4  N   UNL     1     -40.167 -50.221  13.443  1.00  0.00    -0.306 N 
HETATM    5  H   UNL     1     -40.554 -52.174  14.848  1.00  0.00     0.164 HD
HETATM    6  H   UNL     1     -39.616 -50.182  14.290  1.00  0.00     0.171 HD
ENDROOT
BRANCH   3   7
HETATM    7  C   UNL     1     -40.474 -53.860  13.570  1.00  0.00     0.090 C 
HETATM    8  C   UNL     1     -41.798 -54.375  14.146  1.00  0.00     0.051 C 
HETATM    9  C   UNL     1     -41.710 -54.598  15.652  1.00  0.00     0.170 C 
HETATM   10  O   UNL     1     -40.600 -55.428  15.995  1.00  0.00    -0.385 OA
HETATM   11  C   UNL     1     -39.357 -54.846  15.584  1.00  0.00     0.127 C 
HETATM   12  C   UNL     1     -39.335 -54.768  14.060  1.00  0.00     0.057 C 
BRANCH  11  13
HETATM   13  C   UNL     1     -38.230 -55.692  16.104  1.00  0.00     0.015 A 
HETATM   14  C   UNL     1     -38.397 -56.502  17.364  1.00  0.00     0.007 A 
HETATM   15  C   UNL     1     -37.510 -55.287  17.368  1.00  0.00     0.007 A 
ENDBRANCH  11  13
ENDBRANCH   3   7
BRANCH   4  16
HETATM   16  C   UNL     1     -40.344 -49.026  12.713  1.00  0.00     0.067 A 
HETATM   17  C   UNL     1     -41.386 -48.138  12.881  1.00  0.00     0.120 A 
HETATM   18  N   UNL     1     -41.520 -46.987  12.187  1.00  0.00    -0.353 N 
HETATM   19  C   UNL     1     -40.569 -46.690  11.282  1.00  0.00     0.085 A 
ATOM     20  HN  UNL     1     -42.312 -46.364  12.344  1.00  0.00     0.166 HD
HETATM   21  N   UNL     1     -39.519 -47.499  11.031  1.00  0.00    -0.353 N 
HETATM   22  C   UNL     1     -39.432 -48.641  11.752  1.00  0.00     0.120 A 
ATOM     23  HN  UNL     1     -38.820 -47.260  10.328  1.00  0.00     0.166 HD
BRANCH  19  24
HETATM   24  C   UNL     1     -40.695 -45.389  10.535  1.00  0.00     0.053 A 
HETATM   25  C   UNL     1     -39.475 -44.749   9.913  1.00  0.00     0.013 A 
HETATM   26  C   UNL     1     -40.097 -44.129  11.127  1.00  0.00     0.013 A 
ENDBRANCH  19  24
ENDBRANCH   4  16
TORSDOF 4
ENDMDL
MODEL 4
REMARK VINA RESULT:      -5.5      4.997      7.929
REMARK  4 active torsions:
REMARK  status: ('A' for Active; 'I' for Inactive)
REMARK       I    between atoms: C_2  and  N_3 
REMARK       I    between atoms: C_2  and  N_13 
REMARK    1  A    between atoms: N_3  and  C_4 
REMARK    2  A    between atoms: C_8  and  C_10 
REMARK    3  A    between atoms: N_13  and  C_14 
REMARK    4  A    between atoms: C_18  and  C_22 
ROOT
HETATM    1  O   UNL     1     -38.781 -55.650  14.850  1.00  0.00    -0.247 OA
HETATM    2  C   UNL     1     -39.589 -55.167  15.631  1.00  0.00     0.321 C 
HETATM    3  N   UNL     1     -40.457 -54.156  15.273  1.00  0.00    -0.338 N 
HETATM    4  N   UNL     1     -39.780 -55.569  16.932  1.00  0.00    -0.306 N 
HETATM    5  H   UNL     1     -40.573 -53.462  15.998  1.00  0.00     0.164 HD
HETATM    6  H   UNL     1     -40.639 -55.268  17.374  1.00  0.00     0.171 HD
ENDROOT
BRANCH   3   7
HETATM    7  C   UNL     1     -40.435 -53.646  13.894  1.00  0.00     0.090 C 
HETATM    8  C   UNL     1     -40.415 -52.113  13.870  1.00  0.00     0.051 C 
HETATM    9  C   UNL     1     -41.774 -51.526  14.237  1.00  0.00     0.170 C 
HETATM   10  O   UNL     1     -42.817 -52.076  13.434  1.00  0.00    -0.385 OA
HETATM   11  C   UNL     1     -42.917 -53.496  13.596  1.00  0.00     0.127 C 
HETATM   12  C   UNL     1     -41.636 -54.139  13.072  1.00  0.00     0.057 C 
BRANCH  11  13
HETATM   13  C   UNL     1     -44.121 -53.987  12.842  1.00  0.00     0.015 A 
HETATM   14  C   UNL     1     -45.477 -53.372  13.080  1.00  0.00     0.007 A 
HETATM   15  C   UNL     1     -45.193 -54.766  13.568  1.00  0.00     0.007 A 
ENDBRANCH  11  13
ENDBRANCH   3   7
BRANCH   4  16
HETATM   16  C   UNL     1     -39.005 -56.548  17.590  1.00  0.00     0.067 A 
HETATM   17  C   UNL     1     -37.784 -56.323  18.191  1.00  0.00     0.120 A 
HETATM   18  N   UNL     1     -37.073 -57.272  18.838  1.00  0.00    -0.353 N 
HETATM   19  C   UNL     1     -37.596 -58.511  18.900  1.00  0.00     0.085 A 
ATOM     20  HN  UNL     1     -36.171 -57.059  19.263  1.00  0.00     0.166 HD
HETATM   21  N   UNL     1     -38.775 -58.837  18.331  1.00  0.00    -0.353 N 
HETATM   22  C   UNL     1     -39.448 -57.850  17.695  1.00  0.00     0.120 A 
ATOM     23  HN  UNL     1     -39.144 -59.787  18.378  1.00  0.00     0.166 HD
BRANCH  19  24
HETATM   24  C   UNL     1     -36.823 -59.561  19.654  1.00  0.00     0.053 A 
HETATM   25  C   UNL     1     -35.357 -59.354  19.957  1.00  0.00     0.013 A 
HETATM   26  C   UNL     1     -35.764 -60.368  18.931  1.00  0.00     0.013 A 
ENDBRANCH  19  24
ENDBRANCH   4  16
TORSDOF 4
ENDMDL
MODEL 5
REMARK VINA RESULT:      -5.4      3.175      9.049
REMARK  4 active torsions:
REMARK  status: ('A' for Active; 'I' for Inactive)
REMARK       I    between atoms: C_2  and  N_3 
REMARK       I    between atoms: C_2  and  N_13 
REMARK    1  A    between atoms: N_3  and  C_4 
REMARK    2  A    between atoms: C_8  and  C_10 
REMARK    3  A    between atoms: N_13  and  C_14 
REMARK    4  A    between atoms: C_18  and  C_22 
ROOT
HETATM    1  O   UNL     1     -40.014 -46.621  13.991  1.00  0.00    -0.247 OA
HETATM    2  C   UNL     1     -39.806 -47.101  12.885  1.00  0.00     0.321 C 
HETATM    3  N   UNL     1     -39.215 -48.336  12.711  1.00  0.00    -0.338 N 
HETATM    4  N   UNL     1     -40.150 -46.524  11.686  1.00  0.00    -0.306 N 
HETATM    5  H   UNL     1     -38.561 -48.354  11.941  1.00  0.00     0.164 HD
HETATM    6  H   UNL     1     -40.154 -47.134  10.879  1.00  0.00     0.171 HD
ENDROOT
BRANCH   3   7
HETATM    7  C   UNL     1     -38.839 -49.125  13.893  1.00  0.00     0.090 C 
HETATM    8  C   UNL     1     -37.475 -49.798  13.699  1.00  0.00     0.051 C 
HETATM    9  C   UNL     1     -37.560 -50.979  12.738  1.00  0.00     0.170 C 
HETATM   10  O   UNL     1     -38.578 -51.900  13.128  1.00  0.00    -0.385 OA
HETATM   11  C   UNL     1     -39.870 -51.283  13.148  1.00  0.00     0.127 C 
HETATM   12  C   UNL     1     -39.880 -50.204  14.228  1.00  0.00     0.057 C 
BRANCH  11  13
HETATM   13  C   UNL     1     -40.907 -52.336  13.420  1.00  0.00     0.015 A 
HETATM   14  C   UNL     1     -40.880 -53.648  12.679  1.00  0.00     0.007 A 
HETATM   15  C   UNL     1     -41.956 -52.642  12.377  1.00  0.00     0.007 A 
ENDBRANCH  11  13
ENDBRANCH   3   7
BRANCH   4  16
HETATM   16  C   UNL     1     -40.722 -45.241  11.550  1.00  0.00     0.067 A 
HETATM   17  C   UNL     1     -40.037 -44.099  11.191  1.00  0.00     0.120 A 
HETATM   18  N   UNL     1     -40.613 -42.886  11.042  1.00  0.00    -0.353 N 
HETATM   19  C   UNL     1     -41.939 -42.795  11.252  1.00  0.00     0.085 A 
ATOM     20  HN  UNL     1     -40.062 -42.069  10.780  1.00  0.00     0.166 HD
HETATM   21  N   UNL     1     -42.697 -43.849  11.621  1.00  0.00    -0.353 N 
HETATM   22  C   UNL     1     -42.072 -45.041  11.758  1.00  0.00     0.120 A 
ATOM     23  HN  UNL     1     -43.697 -43.751  11.790  1.00  0.00     0.166 HD
BRANCH  19  24
HETATM   24  C   UNL     1     -42.590 -41.452  11.048  1.00  0.00     0.053 A 
HETATM   25  C   UNL     1     -41.784 -40.185  11.217  1.00  0.00     0.013 A 
HETATM   26  C   UNL     1     -42.817 -40.546  12.241  1.00  0.00     0.013 A 
ENDBRANCH  19  24
ENDBRANCH   4  16
TORSDOF 4
ENDMDL
MODEL 6
REMARK VINA RESULT:      -5.4      2.803      8.252
REMARK  4 active torsions:
REMARK  status: ('A' for Active; 'I' for Inactive)
REMARK       I    between atoms: C_2  and  N_3 
REMARK       I    between atoms: C_2  and  N_13 
REMARK    1  A    between atoms: N_3  and  C_4 
REMARK    2  A    between atoms: C_8  and  C_10 
REMARK    3  A    between atoms: N_13  and  C_14 
REMARK    4  A    between atoms: C_18  and  C_22 
ROOT
HETATM    1  O   UNL     1     -41.235 -51.431  11.920  1.00  0.00    -0.247 OA
HETATM    2  C   UNL     1     -42.338 -51.059  12.294  1.00  0.00     0.321 C 
HETATM    3  N   UNL     1     -43.311 -51.937  12.728  1.00  0.00    -0.338 N 
HETATM    4  N   UNL     1     -42.755 -49.752  12.376  1.00  0.00    -0.306 N 
HETATM    5  H   UNL     1     -44.237 -51.686  12.409  1.00  0.00     0.164 HD
HETATM    6  H   UNL     1     -43.580 -49.577  12.935  1.00  0.00     0.171 HD
ENDROOT
BRANCH   3   7
HETATM    7  C   UNL     1     -43.013 -53.376  12.768  1.00  0.00     0.090 C 
HETATM    8  C   UNL     1     -44.293 -54.211  12.648  1.00  0.00     0.051 C 
HETATM    9  C   UNL     1     -45.110 -54.180  13.936  1.00  0.00     0.170 C 
HETATM   10  O   UNL     1     -44.319 -54.543  15.067  1.00  0.00    -0.385 OA
HETATM   11  C   UNL     1     -43.214 -53.649  15.250  1.00  0.00     0.127 C 
HETATM   12  C   UNL     1     -42.276 -53.782  14.053  1.00  0.00     0.057 C 
BRANCH  11  13
HETATM   13  C   UNL     1     -42.514 -53.998  16.533  1.00  0.00     0.015 A 
HETATM   14  C   UNL     1     -42.472 -55.424  17.019  1.00  0.00     0.007 A 
HETATM   15  C   UNL     1     -43.324 -54.415  17.738  1.00  0.00     0.007 A 
ENDBRANCH  11  13
ENDBRANCH   3   7
BRANCH   4  16
HETATM   16  C   UNL     1     -41.994 -48.641  11.954  1.00  0.00     0.067 A 
HETATM   17  C   UNL     1     -41.888 -48.198  10.652  1.00  0.00     0.120 A 
HETATM   18  N   UNL     1     -41.172 -47.115  10.277  1.00  0.00    -0.353 N 
HETATM   19  C   UNL     1     -40.530 -46.427  11.239  1.00  0.00     0.085 A 
ATOM     20  HN  UNL     1     -41.120 -46.829   9.299  1.00  0.00     0.166 HD
HETATM   21  N   UNL     1     -40.558 -46.787  12.539  1.00  0.00    -0.353 N 
HETATM   22  C   UNL     1     -41.288 -47.879  12.863  1.00  0.00     0.120 A 
ATOM     23  HN  UNL     1     -40.050 -46.258  13.248  1.00  0.00     0.166 HD
BRANCH  19  24
HETATM   24  C   UNL     1     -39.764 -45.197  10.829  1.00  0.00     0.053 A 
HETATM   25  C   UNL     1     -39.293 -44.212  11.874  1.00  0.00     0.013 A 
HETATM   26  C   UNL     1     -40.417 -43.836  10.955  1.00  0.00     0.013 A 
ENDBRANCH  19  24
ENDBRANCH   4  16
TORSDOF 4
ENDMDL
MODEL 7
REMARK VINA RESULT:      -5.3      5.625      6.834
REMARK  4 active torsions:
REMARK  status: ('A' for Active; 'I' for Inactive)
REMARK       I    between atoms: C_2  and  N_3 
REMARK       I    between atoms: C_2  and  N_13 
REMARK    1  A    between atoms: N_3  and  C_4 
REMARK    2  A    between atoms: C_8  and  C_10 
REMARK    3  A    between atoms: N_13  and  C_14 
REMARK    4  A    between atoms: C_18  and  C_22 
ROOT
HETATM    1  O   UNL     1     -43.296 -55.293  15.112  1.00  0.00    -0.247 OA
HETATM    2  C   UNL     1     -42.933 -54.184  14.744  1.00  0.00     0.321 C 
HETATM    3  N   UNL     1     -43.762 -53.320  14.058  1.00  0.00    -0.338 N 
HETATM    4  N   UNL     1     -41.697 -53.630  14.979  1.00  0.00    -0.306 N 
HETATM    5  H   UNL     1     -43.286 -52.824  13.317  1.00  0.00     0.164 HD
HETATM    6  H   UNL     1     -41.620 -52.630  14.848  1.00  0.00     0.171 HD
ENDROOT
BRANCH   3   7
HETATM    7  C   UNL     1     -45.146 -53.726  13.775  1.00  0.00     0.090 C 
HETATM    8  C   UNL     1     -45.766 -52.855  12.677  1.00  0.00     0.051 C 
HETATM    9  C   UNL     1     -46.109 -51.460  13.189  1.00  0.00     0.170 C 
HETATM   10  O   UNL     1     -46.914 -51.518  14.366  1.00  0.00    -0.385 OA
HETATM   11  C   UNL     1     -46.245 -52.202  15.432  1.00  0.00     0.127 C 
HETATM   12  C   UNL     1     -46.039 -53.658  15.024  1.00  0.00     0.057 C 
BRANCH  11  13
HETATM   13  C   UNL     1     -47.080 -52.098  16.676  1.00  0.00     0.015 A 
HETATM   14  C   UNL     1     -48.056 -50.962  16.851  1.00  0.00     0.007 A 
HETATM   15  C   UNL     1     -46.800 -51.001  17.677  1.00  0.00     0.007 A 
ENDBRANCH  11  13
ENDBRANCH   3   7
BRANCH   4  16
HETATM   16  C   UNL     1     -40.627 -54.298  15.612  1.00  0.00     0.067 A 
HETATM   17  C   UNL     1     -40.568 -54.612  16.954  1.00  0.00     0.120 A 
HETATM   18  N   UNL     1     -39.543 -55.275  17.532  1.00  0.00    -0.353 N 
HETATM   19  C   UNL     1     -38.521 -55.655  16.743  1.00  0.00     0.085 A 
ATOM     20  HN  UNL     1     -39.544 -55.480  18.531  1.00  0.00     0.166 HD
HETATM   21  N   UNL     1     -38.475 -55.383  15.423  1.00  0.00    -0.353 N 
HETATM   22  C   UNL     1     -39.526 -54.715  14.892  1.00  0.00     0.120 A 
ATOM     23  HN  UNL     1     -37.682 -55.667  14.849  1.00  0.00     0.166 HD
BRANCH  19  24
HETATM   24  C   UNL     1     -37.396 -56.428  17.378  1.00  0.00     0.053 A 
HETATM   25  C   UNL     1     -36.993 -56.147  18.807  1.00  0.00     0.013 A 
HETATM   26  C   UNL     1     -36.091 -55.725  17.688  1.00  0.00     0.013 A 
ENDBRANCH  19  24
ENDBRANCH   4  16
TORSDOF 4
ENDMDL
MODEL 8
REMARK VINA RESULT:      -5.3      3.607      4.654
REMARK  4 active torsions:
REMARK  status: ('A' for Active; 'I' for Inactive)
REMARK       I    between atoms: C_2  and  N_3 
REMARK       I    between atoms: C_2  and  N_13 
REMARK    1  A    between atoms: N_3  and  C_4 
REMARK    2  A    between atoms: C_8  and  C_10 
REMARK    3  A    between atoms: N_13  and  C_14 
REMARK    4  A    between atoms: C_18  and  C_22 
ROOT
HETATM    1  O   UNL     1     -39.979 -49.015  13.931  1.00  0.00    -0.247 OA
HETATM    2  C   UNL     1     -40.806 -48.236  13.478  1.00  0.00     0.321 C 
HETATM    3  N   UNL     1     -40.612 -46.870  13.464  1.00  0.00    -0.338 N 
HETATM    4  N   UNL     1     -42.001 -48.590  12.897  1.00  0.00    -0.306 N 
HETATM    5  H   UNL     1     -41.450 -46.352  13.688  1.00  0.00     0.164 HD
HETATM    6  H   UNL     1     -42.460 -47.878  12.343  1.00  0.00     0.171 HD
ENDROOT
BRANCH   3   7
HETATM    7  C   UNL     1     -39.355 -46.319  13.990  1.00  0.00     0.090 C 
HETATM    8  C   UNL     1     -39.466 -46.019  15.490  1.00  0.00     0.051 C 
HETATM    9  C   UNL     1     -40.311 -44.778  15.756  1.00  0.00     0.170 C 
HETATM   10  O   UNL     1     -39.848 -43.657  15.004  1.00  0.00    -0.385 OA
HETATM   11  C   UNL     1     -39.903 -43.907  13.595  1.00  0.00     0.127 C 
HETATM   12  C   UNL     1     -38.932 -45.035  13.260  1.00  0.00     0.057 C 
BRANCH  11  13
HETATM   13  C   UNL     1     -39.545 -42.643  12.863  1.00  0.00     0.015 A 
HETATM   14  C   UNL     1     -40.085 -41.313  13.322  1.00  0.00     0.007 A 
HETATM   15  C   UNL     1     -40.595 -41.927  12.048  1.00  0.00     0.007 A 
ENDBRANCH  11  13
ENDBRANCH   3   7
BRANCH   4  16
HETATM   16  C   UNL     1     -42.492 -49.911  12.814  1.00  0.00     0.067 A 
HETATM   17  C   UNL     1     -41.905 -50.933  12.099  1.00  0.00     0.120 A 
HETATM   18  N   UNL     1     -42.380 -52.197  12.056  1.00  0.00    -0.353 N 
HETATM   19  C   UNL     1     -43.493 -52.470  12.763  1.00  0.00     0.085 A 
ATOM     20  HN  UNL     1     -41.913 -52.919  11.507  1.00  0.00     0.166 HD
HETATM   21  N   UNL     1     -44.150 -51.537  13.482  1.00  0.00    -0.353 N 
HETATM   22  C   UNL     1     -43.634 -50.286  13.491  1.00  0.00     0.120 A 
ATOM     23  HN  UNL     1     -45.001 -51.764  13.996  1.00  0.00     0.166 HD
BRANCH  19  24
HETATM   24  C   UNL     1     -44.003 -53.887  12.748  1.00  0.00     0.053 A 
HETATM   25  C   UNL     1     -45.265 -54.247  13.497  1.00  0.00     0.013 A 
HETATM   26  C   UNL     1     -43.938 -54.715  14.015  1.00  0.00     0.013 A 
ENDBRANCH  19  24
ENDBRANCH   4  16
TORSDOF 4
ENDMDL
MODEL 9
REMARK VINA RESULT:      -5.1      2.980      8.404
REMARK  4 active torsions:
REMARK  status: ('A' for Active; 'I' for Inactive)
REMARK       I    between atoms: C_2  and  N_3 
REMARK       I    between atoms: C_2  and  N_13 
REMARK    1  A    between atoms: N_3  and  C_4 
REMARK    2  A    between atoms: C_8  and  C_10 
REMARK    3  A    between atoms: N_13  and  C_14 
REMARK    4  A    between atoms: C_18  and  C_22 
ROOT
HETATM    1  O   UNL     1     -41.474 -49.787  14.967  1.00  0.00    -0.247 OA
HETATM    2  C   UNL     1     -41.070 -50.628  14.176  1.00  0.00     0.321 C 
HETATM    3  N   UNL     1     -41.062 -51.978  14.466  1.00  0.00    -0.338 N 
HETATM    4  N   UNL     1     -40.612 -50.375  12.905  1.00  0.00    -0.306 N 
HETATM    5  H   UNL     1     -40.232 -52.447  14.131  1.00  0.00     0.164 HD
HETATM    6  H   UNL     1     -40.555 -51.169  12.281  1.00  0.00     0.171 HD
ENDROOT
BRANCH   3   7
HETATM    7  C   UNL     1     -41.579 -52.436  15.763  1.00  0.00     0.090 C 
HETATM    8  C   UNL     1     -40.867 -53.713  16.224  1.00  0.00     0.051 C 
HETATM    9  C   UNL     1     -41.324 -54.932  15.429  1.00  0.00     0.170 C 
HETATM   10  O   UNL     1     -42.746 -55.060  15.437  1.00  0.00    -0.385 OA
HETATM   11  C   UNL     1     -43.383 -53.917  14.855  1.00  0.00     0.127 C 
HETATM   12  C   UNL     1     -43.093 -52.699  15.727  1.00  0.00     0.057 C 
BRANCH  11  13
HETATM   13  C   UNL     1     -44.860 -54.180  14.760  1.00  0.00     0.015 A 
HETATM   14  C   UNL     1     -45.389 -55.255  13.846  1.00  0.00     0.007 A 
HETATM   15  C   UNL     1     -45.608 -53.807  13.502  1.00  0.00     0.007 A 
ENDBRANCH  11  13
ENDBRANCH   3   7
BRANCH   4  16
HETATM   16  C   UNL     1     -40.459 -49.086  12.351  1.00  0.00     0.067 A 
HETATM   17  C   UNL     1     -39.680 -48.079  12.883  1.00  0.00     0.120 A 
HETATM   18  N   UNL     1     -39.530 -46.861  12.320  1.00  0.00    -0.353 N 
HETATM   19  C   UNL     1     -40.177 -46.623  11.164  1.00  0.00     0.085 A 
ATOM     20  HN  UNL     1     -38.946 -46.146  12.754  1.00  0.00     0.166 HD
HETATM   21  N   UNL     1     -40.975 -47.535  10.571  1.00  0.00    -0.353 N 
HETATM   22  C   UNL     1     -41.094 -48.740  11.176  1.00  0.00     0.120 A 
ATOM     23  HN  UNL     1     -41.469 -47.325   9.703  1.00  0.00     0.166 HD
BRANCH  19  24
HETATM   24  C   UNL     1     -39.980 -45.279  10.514  1.00  0.00     0.053 A 
HETATM   25  C   UNL     1     -39.487 -44.106  11.329  1.00  0.00     0.013 A 
HETATM   26  C   UNL     1     -40.912 -44.137  10.865  1.00  0.00     0.013 A 
ENDBRANCH  19  24
ENDBRANCH   4  16
TORSDOF 4
ENDMDL
