MODEL 1
REMARK VINA RESULT:      -6.4      0.000      0.000
REMARK  7 active torsions:
REMARK  status: ('A' for Active; 'I' for Inactive)
REMARK       I    between atoms: C_2  and  N_4 
REMARK    1  A    between atoms: N_4  and  C_5 
REMARK    2  A    between atoms: C_5  and  C_6 
REMARK    3  A    between atoms: C_6  and  C_7 
REMARK    4  A    between atoms: N_16  and  C_17 
REMARK    5  A    between atoms: C_17  and  C_18 
REMARK    6  A    between atoms: C_18  and  O_19 
REMARK    7  A    between atoms: O_19  and  C_20 
ROOT
HETATM    1  C   UNL     1     -39.581 -52.683  13.828  1.00  0.00     0.086 A 
HETATM    2  N   UNL     1     -38.574 -52.375  14.618  1.00  0.00    -0.344 N 
ATOM      3  HN  UNL     1     -38.065 -53.006  15.237  1.00  0.00     0.167 HD
HETATM    4  C   UNL     1     -38.349 -51.041  14.442  1.00  0.00     0.060 A 
HETATM    5  C   UNL     1     -37.389 -50.226  15.067  1.00  0.00     0.032 A 
HETATM    6  C   UNL     1     -37.322 -48.870  14.740  1.00  0.00     0.002 A 
HETATM    7  C   UNL     1     -38.199 -48.331  13.807  1.00  0.00     0.002 A 
HETATM    8  C   UNL     1     -39.161 -49.129  13.176  1.00  0.00     0.032 A 
HETATM    9  C   UNL     1     -39.228 -50.495  13.503  1.00  0.00     0.062 A 
HETATM   10  N   UNL     1     -40.008 -51.572  13.109  1.00  0.00    -0.333 N 
ENDROOT
BRANCH  10  11
HETATM   11  C   UNL     1     -41.088 -51.621  12.128  1.00  0.00     0.157 C 
BRANCH  11  12
HETATM   12  C   UNL     1     -42.365 -50.880  12.500  1.00  0.00     0.196 C 
BRANCH  12  13
HETATM   13  O   UNL     1     -42.707 -51.049  13.876  1.00  0.00    -0.350 OA
BRANCH  13  14
HETATM   14  C   UNL     1     -44.061 -51.154  14.103  1.00  0.00     0.069 A 
HETATM   15  C   UNL     1     -44.677 -51.121  15.360  1.00  0.00     0.037 A 
HETATM   16  C   UNL     1     -46.060 -51.259  15.475  1.00  0.00     0.003 A 
HETATM   17  C   UNL     1     -46.842 -51.442  14.337  1.00  0.00     0.007 A 
HETATM   18  C   UNL     1     -46.243 -51.494  13.075  1.00  0.00    -0.059 A 
HETATM   19  C   UNL     1     -47.073 -51.698  11.844  1.00  0.00     0.048 C 
HETATM   20  C   UNL     1     -44.851 -51.343  12.968  1.00  0.00     0.043 A 
ENDBRANCH  13  14
ENDBRANCH  12  13
ENDBRANCH  11  12
ENDBRANCH  10  11
BRANCH   1  21
HETATM   21  C   UNL     1     -40.171 -54.053  13.705  1.00  0.00     0.096 C 
BRANCH  21  22
HETATM   22  C   UNL     1     -41.330 -54.260  14.689  1.00  0.00     0.130 C 
BRANCH  22  23
HETATM   23  N   UNL     1     -42.627 -54.348  14.031  1.00  0.00    -0.361 N 
HETATM   24  C   UNL     1     -43.733 -54.860  14.672  1.00  0.00     0.213 C 
HETATM   25  C   UNL     1     -44.958 -54.915  13.803  1.00  0.00     0.117 C 
HETATM   26  O   UNL     1     -43.741 -55.218  15.845  1.00  0.00    -0.274 OA
HETATM   27  H   UNL     1     -42.647 -54.277  13.021  1.00  0.00     0.162 HD
ENDBRANCH  22  23
ENDBRANCH  21  22
ENDBRANCH   1  21
TORSDOF 7
ENDMDL
MODEL 2
REMARK VINA RESULT:      -6.3      3.157      5.408
REMARK  7 active torsions:
REMARK  status: ('A' for Active; 'I' for Inactive)
REMARK       I    between atoms: C_2  and  N_4 
REMARK    1  A    between atoms: N_4  and  C_5 
REMARK    2  A    between atoms: C_5  and  C_6 
REMARK    3  A    between atoms: C_6  and  C_7 
REMARK    4  A    between atoms: N_16  and  C_17 
REMARK    5  A    between atoms: C_17  and  C_18 
REMARK    6  A    between atoms: C_18  and  O_19 
REMARK    7  A    between atoms: O_19  and  C_20 
ROOT
HETATM    1  C   UNL     1     -41.095 -48.371  11.744  1.00  0.00     0.086 A 
HETATM    2  N   UNL     1     -39.927 -48.367  11.138  1.00  0.00    -0.344 N 
ATOM      3  HN  UNL     1     -39.642 -47.774  10.360  1.00  0.00     0.167 HD
HETATM    4  C   UNL     1     -39.173 -49.318  11.762  1.00  0.00     0.060 A 
HETATM    5  C   UNL     1     -37.853 -49.711  11.481  1.00  0.00     0.032 A 
HETATM    6  C   UNL     1     -37.258 -50.714  12.249  1.00  0.00     0.002 A 
HETATM    7  C   UNL     1     -37.965 -51.319  13.280  1.00  0.00     0.002 A 
HETATM    8  C   UNL     1     -39.280 -50.939  13.573  1.00  0.00     0.032 A 
HETATM    9  C   UNL     1     -39.881 -49.928  12.801  1.00  0.00     0.062 A 
HETATM   10  N   UNL     1     -41.115 -49.296  12.782  1.00  0.00    -0.333 N 
ENDROOT
BRANCH  10  11
HETATM   11  C   UNL     1     -42.270 -49.497  13.652  1.00  0.00     0.157 C 
BRANCH  11  12
HETATM   12  C   UNL     1     -43.292 -50.521  13.183  1.00  0.00     0.196 C 
BRANCH  12  13
HETATM   13  O   UNL     1     -42.677 -51.680  12.618  1.00  0.00    -0.350 OA
BRANCH  13  14
HETATM   14  C   UNL     1     -42.828 -52.817  13.380  1.00  0.00     0.069 A 
HETATM   15  C   UNL     1     -41.845 -53.376  14.204  1.00  0.00     0.037 A 
HETATM   16  C   UNL     1     -42.100 -54.548  14.917  1.00  0.00     0.003 A 
HETATM   17  C   UNL     1     -43.336 -55.178  14.807  1.00  0.00     0.007 A 
HETATM   18  C   UNL     1     -44.326 -54.642  13.977  1.00  0.00    -0.059 A 
HETATM   19  C   UNL     1     -45.659 -55.316  13.845  1.00  0.00     0.048 C 
HETATM   20  C   UNL     1     -44.064 -53.457  13.272  1.00  0.00     0.043 A 
ENDBRANCH  13  14
ENDBRANCH  12  13
ENDBRANCH  11  12
ENDBRANCH  10  11
BRANCH   1  21
HETATM   21  C   UNL     1     -42.241 -47.481  11.377  1.00  0.00     0.096 C 
BRANCH  21  22
HETATM   22  C   UNL     1     -42.641 -47.651   9.906  1.00  0.00     0.130 C 
BRANCH  22  23
HETATM   23  N   UNL     1     -44.070 -47.873   9.725  1.00  0.00    -0.361 N 
HETATM   24  C   UNL     1     -44.890 -46.911   9.180  1.00  0.00     0.213 C 
HETATM   25  C   UNL     1     -46.337 -47.315   9.133  1.00  0.00     0.117 C 
HETATM   26  O   UNL     1     -44.492 -45.835   8.749  1.00  0.00    -0.274 OA
HETATM   27  H   UNL     1     -44.495 -48.632  10.244  1.00  0.00     0.162 HD
ENDBRANCH  22  23
ENDBRANCH  21  22
ENDBRANCH   1  21
TORSDOF 7
ENDMDL
MODEL 3
REMARK VINA RESULT:      -6.2      2.802      5.142
REMARK  7 active torsions:
REMARK  status: ('A' for Active; 'I' for Inactive)
REMARK       I    between atoms: C_2  and  N_4 
REMARK    1  A    between atoms: N_4  and  C_5 
REMARK    2  A    between atoms: C_5  and  C_6 
REMARK    3  A    between atoms: C_6  and  C_7 
REMARK    4  A    between atoms: N_16  and  C_17 
REMARK    5  A    between atoms: C_17  and  C_18 
REMARK    6  A    between atoms: C_18  and  O_19 
REMARK    7  A    between atoms: O_19  and  C_20 
ROOT
HETATM    1  C   UNL     1     -42.096 -49.988  12.489  1.00  0.00     0.086 A 
HETATM    2  N   UNL     1     -41.894 -51.087  11.793  1.00  0.00    -0.344 N 
ATOM      3  HN  UNL     1     -42.120 -51.239  10.810  1.00  0.00     0.167 HD
HETATM    4  C   UNL     1     -41.322 -51.980  12.651  1.00  0.00     0.060 A 
HETATM    5  C   UNL     1     -40.925 -53.304  12.398  1.00  0.00     0.032 A 
HETATM    6  C   UNL     1     -40.351 -54.056  13.424  1.00  0.00     0.002 A 
HETATM    7  C   UNL     1     -40.176 -53.500  14.685  1.00  0.00     0.002 A 
HETATM    8  C   UNL     1     -40.566 -52.183  14.954  1.00  0.00     0.032 A 
HETATM    9  C   UNL     1     -41.143 -51.424  13.920  1.00  0.00     0.062 A 
HETATM   10  N   UNL     1     -41.637 -50.134  13.793  1.00  0.00    -0.333 N 
ENDROOT
BRANCH  10  11
HETATM   11  C   UNL     1     -41.698 -49.066  14.787  1.00  0.00     0.157 C 
BRANCH  11  12
HETATM   12  C   UNL     1     -43.006 -48.938  15.554  1.00  0.00     0.196 C 
BRANCH  12  13
HETATM   13  O   UNL     1     -43.353 -50.143  16.237  1.00  0.00    -0.350 OA
BRANCH  13  14
HETATM   14  C   UNL     1     -44.639 -50.570  15.992  1.00  0.00     0.069 A 
HETATM   15  C   UNL     1     -45.643 -50.713  16.956  1.00  0.00     0.037 A 
HETATM   16  C   UNL     1     -46.909 -51.177  16.598  1.00  0.00     0.003 A 
HETATM   17  C   UNL     1     -47.182 -51.512  15.275  1.00  0.00     0.007 A 
HETATM   18  C   UNL     1     -46.188 -51.390  14.300  1.00  0.00    -0.059 A 
HETATM   19  C   UNL     1     -46.468 -51.755  12.873  1.00  0.00     0.048 C 
HETATM   20  C   UNL     1     -44.920 -50.912  14.668  1.00  0.00     0.043 A 
ENDBRANCH  13  14
ENDBRANCH  12  13
ENDBRANCH  11  12
ENDBRANCH  10  11
BRANCH   1  21
HETATM   21  C   UNL     1     -42.715 -48.740  11.941  1.00  0.00     0.096 C 
BRANCH  21  22
HETATM   22  C   UNL     1     -41.803 -48.062  10.910  1.00  0.00     0.130 C 
BRANCH  22  23
HETATM   23  N   UNL     1     -42.229 -48.289   9.535  1.00  0.00    -0.361 N 
HETATM   24  C   UNL     1     -43.226 -47.540   8.951  1.00  0.00     0.213 C 
HETATM   25  C   UNL     1     -43.554 -47.968   7.549  1.00  0.00     0.117 C 
HETATM   26  O   UNL     1     -43.784 -46.596   9.500  1.00  0.00    -0.274 OA
HETATM   27  H   UNL     1     -41.973 -49.169   9.105  1.00  0.00     0.162 HD
ENDBRANCH  22  23
ENDBRANCH  21  22
ENDBRANCH   1  21
TORSDOF 7
ENDMDL
MODEL 4
REMARK VINA RESULT:      -6.2      3.200      5.165
REMARK  7 active torsions:
REMARK  status: ('A' for Active; 'I' for Inactive)
REMARK       I    between atoms: C_2  and  N_4 
REMARK    1  A    between atoms: N_4  and  C_5 
REMARK    2  A    between atoms: C_5  and  C_6 
REMARK    3  A    between atoms: C_6  and  C_7 
REMARK    4  A    between atoms: N_16  and  C_17 
REMARK    5  A    between atoms: C_17  and  C_18 
REMARK    6  A    between atoms: C_18  and  O_19 
REMARK    7  A    between atoms: O_19  and  C_20 
ROOT
HETATM    1  C   UNL     1     -40.985 -47.968  11.637  1.00  0.00     0.086 A 
HETATM    2  N   UNL     1     -39.799 -48.097  11.082  1.00  0.00    -0.344 N 
ATOM      3  HN  UNL     1     -39.423 -47.553  10.306  1.00  0.00     0.167 HD
HETATM    4  C   UNL     1     -39.173 -49.106  11.754  1.00  0.00     0.060 A 
HETATM    5  C   UNL     1     -37.890 -49.638  11.537  1.00  0.00     0.032 A 
HETATM    6  C   UNL     1     -37.432 -50.678  12.348  1.00  0.00     0.002 A 
HETATM    7  C   UNL     1     -38.240 -51.185  13.359  1.00  0.00     0.002 A 
HETATM    8  C   UNL     1     -39.520 -50.667  13.588  1.00  0.00     0.032 A 
HETATM    9  C   UNL     1     -39.981 -49.617  12.773  1.00  0.00     0.062 A 
HETATM   10  N   UNL     1     -41.142 -48.863  12.691  1.00  0.00    -0.333 N 
ENDROOT
BRANCH  10  11
HETATM   11  C   UNL     1     -42.345 -48.925  13.514  1.00  0.00     0.157 C 
BRANCH  11  12
HETATM   12  C   UNL     1     -43.478 -49.791  12.982  1.00  0.00     0.196 C 
BRANCH  12  13
HETATM   13  O   UNL     1     -43.161 -51.183  13.025  1.00  0.00    -0.350 OA
BRANCH  13  14
HETATM   14  C   UNL     1     -44.205 -51.979  13.439  1.00  0.00     0.069 A 
HETATM   15  C   UNL     1     -44.418 -53.305  13.047  1.00  0.00     0.037 A 
HETATM   16  C   UNL     1     -45.527 -54.013  13.513  1.00  0.00     0.003 A 
HETATM   17  C   UNL     1     -46.439 -53.399  14.367  1.00  0.00     0.007 A 
HETATM   18  C   UNL     1     -46.251 -52.070  14.757  1.00  0.00    -0.059 A 
HETATM   19  C   UNL     1     -47.231 -51.397  15.671  1.00  0.00     0.048 C 
HETATM   20  C   UNL     1     -45.127 -51.370  14.292  1.00  0.00     0.043 A 
ENDBRANCH  13  14
ENDBRANCH  12  13
ENDBRANCH  11  12
ENDBRANCH  10  11
BRANCH   1  21
HETATM   21  C   UNL     1     -42.018 -46.974  11.206  1.00  0.00     0.096 C 
BRANCH  21  22
HETATM   22  C   UNL     1     -42.777 -47.451   9.961  1.00  0.00     0.130 C 
BRANCH  22  23
HETATM   23  N   UNL     1     -44.200 -47.141  10.008  1.00  0.00    -0.361 N 
HETATM   24  C   UNL     1     -45.049 -47.476   8.977  1.00  0.00     0.213 C 
HETATM   25  C   UNL     1     -46.464 -47.018   9.195  1.00  0.00     0.117 C 
HETATM   26  O   UNL     1     -44.706 -48.107   7.984  1.00  0.00    -0.274 OA
HETATM   27  H   UNL     1     -44.507 -46.447  10.678  1.00  0.00     0.162 HD
ENDBRANCH  22  23
ENDBRANCH  21  22
ENDBRANCH   1  21
TORSDOF 7
ENDMDL
MODEL 5
REMARK VINA RESULT:      -6.1      2.795      7.255
REMARK  7 active torsions:
REMARK  status: ('A' for Active; 'I' for Inactive)
REMARK       I    between atoms: C_2  and  N_4 
REMARK    1  A    between atoms: N_4  and  C_5 
REMARK    2  A    between atoms: C_5  and  C_6 
REMARK    3  A    between atoms: C_6  and  C_7 
REMARK    4  A    between atoms: N_16  and  C_17 
REMARK    5  A    between atoms: C_17  and  C_18 
REMARK    6  A    between atoms: C_18  and  O_19 
REMARK    7  A    between atoms: O_19  and  C_20 
ROOT
HETATM    1  C   UNL     1     -42.642 -50.506  12.492  1.00  0.00     0.086 A 
HETATM    2  N   UNL     1     -43.876 -50.165  12.799  1.00  0.00    -0.344 N 
ATOM      3  HN  UNL     1     -44.268 -49.224  12.806  1.00  0.00     0.167 HD
HETATM    4  C   UNL     1     -44.525 -51.326  13.106  1.00  0.00     0.060 A 
HETATM    5  C   UNL     1     -45.860 -51.501  13.509  1.00  0.00     0.032 A 
HETATM    6  C   UNL     1     -46.332 -52.788  13.776  1.00  0.00     0.002 A 
HETATM    7  C   UNL     1     -45.490 -53.884  13.645  1.00  0.00     0.002 A 
HETATM    8  C   UNL     1     -44.158 -53.727  13.244  1.00  0.00     0.032 A 
HETATM    9  C   UNL     1     -43.680 -52.431  12.973  1.00  0.00     0.062 A 
HETATM   10  N   UNL     1     -42.473 -51.884  12.565  1.00  0.00    -0.333 N 
ENDROOT
BRANCH  10  11
HETATM   11  C   UNL     1     -41.216 -52.554  12.246  1.00  0.00     0.157 C 
BRANCH  11  12
HETATM   12  C   UNL     1     -40.366 -52.984  13.432  1.00  0.00     0.196 C 
BRANCH  12  13
HETATM   13  O   UNL     1     -38.975 -52.736  13.218  1.00  0.00    -0.350 OA
BRANCH  13  14
HETATM   14  C   UNL     1     -38.634 -51.403  13.267  1.00  0.00     0.069 A 
HETATM   15  C   UNL     1     -38.017 -50.687  12.235  1.00  0.00     0.037 A 
HETATM   16  C   UNL     1     -37.695 -49.339  12.402  1.00  0.00     0.003 A 
HETATM   17  C   UNL     1     -37.978 -48.697  13.604  1.00  0.00     0.007 A 
HETATM   18  C   UNL     1     -38.581 -49.400  14.651  1.00  0.00    -0.059 A 
HETATM   19  C   UNL     1     -38.884 -48.720  15.953  1.00  0.00     0.048 C 
HETATM   20  C   UNL     1     -38.911 -50.753  14.470  1.00  0.00     0.043 A 
ENDBRANCH  13  14
ENDBRANCH  12  13
ENDBRANCH  11  12
ENDBRANCH  10  11
BRANCH   1  21
HETATM   21  C   UNL     1     -41.571 -49.538  12.095  1.00  0.00     0.096 C 
BRANCH  21  22
HETATM   22  C   UNL     1     -42.162 -48.254  11.500  1.00  0.00     0.130 C 
BRANCH  22  23
HETATM   23  N   UNL     1     -42.545 -48.397  10.102  1.00  0.00    -0.361 N 
HETATM   24  C   UNL     1     -43.103 -47.357   9.392  1.00  0.00     0.213 C 
HETATM   25  C   UNL     1     -43.478 -47.726   7.984  1.00  0.00     0.117 C 
HETATM   26  O   UNL     1     -43.262 -46.228   9.842  1.00  0.00    -0.274 OA
HETATM   27  H   UNL     1     -42.643 -49.336   9.736  1.00  0.00     0.162 HD
ENDBRANCH  22  23
ENDBRANCH  21  22
ENDBRANCH   1  21
TORSDOF 7
ENDMDL
MODEL 6
REMARK VINA RESULT:      -6.0      2.075      5.035
REMARK  7 active torsions:
REMARK  status: ('A' for Active; 'I' for Inactive)
REMARK       I    between atoms: C_2  and  N_4 
REMARK    1  A    between atoms: N_4  and  C_5 
REMARK    2  A    between atoms: C_5  and  C_6 
REMARK    3  A    between atoms: C_6  and  C_7 
REMARK    4  A    between atoms: N_16  and  C_17 
REMARK    5  A    between atoms: C_17  and  C_18 
REMARK    6  A    between atoms: C_18  and  O_19 
REMARK    7  A    between atoms: O_19  and  C_20 
ROOT
HETATM    1  C   UNL     1     -41.570 -53.016  12.890  1.00  0.00     0.086 A 
HETATM    2  N   UNL     1     -40.597 -53.140  13.768  1.00  0.00    -0.344 N 
ATOM      3  HN  UNL     1     -39.693 -52.669  13.752  1.00  0.00     0.167 HD
HETATM    4  C   UNL     1     -41.042 -54.028  14.704  1.00  0.00     0.060 A 
HETATM    5  C   UNL     1     -40.373 -54.507  15.843  1.00  0.00     0.032 A 
HETATM    6  C   UNL     1     -41.014 -55.420  16.683  1.00  0.00     0.002 A 
HETATM    7  C   UNL     1     -42.302 -55.851  16.393  1.00  0.00     0.002 A 
HETATM    8  C   UNL     1     -42.983 -55.384  15.263  1.00  0.00     0.032 A 
HETATM    9  C   UNL     1     -42.338 -54.463  14.417  1.00  0.00     0.062 A 
HETATM   10  N   UNL     1     -42.667 -53.791  13.249  1.00  0.00    -0.333 N 
ENDROOT
BRANCH  10  11
HETATM   11  C   UNL     1     -43.907 -53.827  12.480  1.00  0.00     0.157 C 
BRANCH  11  12
HETATM   12  C   UNL     1     -45.059 -52.995  13.026  1.00  0.00     0.196 C 
BRANCH  12  13
HETATM   13  O   UNL     1     -44.705 -51.620  13.187  1.00  0.00    -0.350 OA
BRANCH  13  14
HETATM   14  C   UNL     1     -44.930 -51.133  14.455  1.00  0.00     0.069 A 
HETATM   15  C   UNL     1     -44.002 -50.427  15.228  1.00  0.00     0.037 A 
HETATM   16  C   UNL     1     -44.331 -49.998  16.514  1.00  0.00     0.003 A 
HETATM   17  C   UNL     1     -45.587 -50.279  17.045  1.00  0.00     0.007 A 
HETATM   18  C   UNL     1     -46.522 -50.996  16.292  1.00  0.00    -0.059 A 
HETATM   19  C   UNL     1     -47.876 -51.311  16.856  1.00  0.00     0.048 C 
HETATM   20  C   UNL     1     -46.186 -51.414  14.995  1.00  0.00     0.043 A 
ENDBRANCH  13  14
ENDBRANCH  12  13
ENDBRANCH  11  12
ENDBRANCH  10  11
BRANCH   1  21
HETATM   21  C   UNL     1     -41.509 -52.139  11.679  1.00  0.00     0.096 C 
BRANCH  21  22
HETATM   22  C   UNL     1     -41.031 -50.724  12.029  1.00  0.00     0.130 C 
BRANCH  22  23
HETATM   23  N   UNL     1     -39.761 -50.380  11.403  1.00  0.00    -0.361 N 
HETATM   24  C   UNL     1     -38.563 -50.524  12.066  1.00  0.00     0.213 C 
HETATM   25  C   UNL     1     -37.377 -50.061  11.267  1.00  0.00     0.117 C 
HETATM   26  O   UNL     1     -38.454 -51.002  13.190  1.00  0.00    -0.274 OA
HETATM   27  H   UNL     1     -39.788 -49.790  10.580  1.00  0.00     0.162 HD
ENDBRANCH  22  23
ENDBRANCH  21  22
ENDBRANCH   1  21
TORSDOF 7
ENDMDL
MODEL 7
REMARK VINA RESULT:      -5.8      3.125      5.061
REMARK  7 active torsions:
REMARK  status: ('A' for Active; 'I' for Inactive)
REMARK       I    between atoms: C_2  and  N_4 
REMARK    1  A    between atoms: N_4  and  C_5 
REMARK    2  A    between atoms: C_5  and  C_6 
REMARK    3  A    between atoms: C_6  and  C_7 
REMARK    4  A    between atoms: N_16  and  C_17 
REMARK    5  A    between atoms: C_17  and  C_18 
REMARK    6  A    between atoms: C_18  and  O_19 
REMARK    7  A    between atoms: O_19  and  C_20 
ROOT
HETATM    1  C   UNL     1     -41.256 -48.308  12.039  1.00  0.00     0.086 A 
HETATM    2  N   UNL     1     -40.221 -48.382  11.228  1.00  0.00    -0.344 N 
ATOM      3  HN  UNL     1     -40.090 -47.873  10.355  1.00  0.00     0.167 HD
HETATM    4  C   UNL     1     -39.361 -49.278  11.793  1.00  0.00     0.060 A 
HETATM    5  C   UNL     1     -38.116 -49.717  11.311  1.00  0.00     0.032 A 
HETATM    6  C   UNL     1     -37.383 -50.648  12.051  1.00  0.00     0.002 A 
HETATM    7  C   UNL     1     -37.883 -51.137  13.251  1.00  0.00     0.002 A 
HETATM    8  C   UNL     1     -39.121 -50.710  13.745  1.00  0.00     0.032 A 
HETATM    9  C   UNL     1     -39.859 -49.771  13.002  1.00  0.00     0.062 A 
HETATM   10  N   UNL     1     -41.077 -49.124  13.151  1.00  0.00    -0.333 N 
ENDROOT
BRANCH  10  11
HETATM   11  C   UNL     1     -42.047 -49.220  14.237  1.00  0.00     0.157 C 
BRANCH  11  12
HETATM   12  C   UNL     1     -42.950 -50.445  14.224  1.00  0.00     0.196 C 
BRANCH  12  13
HETATM   13  O   UNL     1     -43.933 -50.403  15.259  1.00  0.00    -0.350 OA
BRANCH  13  14
HETATM   14  C   UNL     1     -44.942 -51.327  15.105  1.00  0.00     0.069 A 
HETATM   15  C   UNL     1     -46.256 -51.175  15.561  1.00  0.00     0.037 A 
HETATM   16  C   UNL     1     -47.195 -52.190  15.369  1.00  0.00     0.003 A 
HETATM   17  C   UNL     1     -46.828 -53.370  14.728  1.00  0.00     0.007 A 
HETATM   18  C   UNL     1     -45.515 -53.546  14.279  1.00  0.00    -0.059 A 
HETATM   19  C   UNL     1     -45.106 -54.815  13.594  1.00  0.00     0.048 C 
HETATM   20  C   UNL     1     -44.581 -52.515  14.467  1.00  0.00     0.043 A 
ENDBRANCH  13  14
ENDBRANCH  12  13
ENDBRANCH  11  12
ENDBRANCH  10  11
BRANCH   1  21
HETATM   21  C   UNL     1     -42.453 -47.441  11.806  1.00  0.00     0.096 C 
BRANCH  21  22
HETATM   22  C   UNL     1     -42.955 -47.548  10.360  1.00  0.00     0.130 C 
BRANCH  22  23
HETATM   23  N   UNL     1     -44.371 -47.231  10.224  1.00  0.00    -0.361 N 
HETATM   24  C   UNL     1     -45.063 -47.484   9.061  1.00  0.00     0.213 C 
HETATM   25  C   UNL     1     -46.495 -47.033   9.105  1.00  0.00     0.117 C 
HETATM   26  O   UNL     1     -44.578 -48.044   8.083  1.00  0.00    -0.274 OA
HETATM   27  H   UNL     1     -44.774 -46.585  10.892  1.00  0.00     0.162 HD
ENDBRANCH  22  23
ENDBRANCH  21  22
ENDBRANCH   1  21
TORSDOF 7
ENDMDL
MODEL 8
REMARK VINA RESULT:      -5.8      2.329      4.895
REMARK  7 active torsions:
REMARK  status: ('A' for Active; 'I' for Inactive)
REMARK       I    between atoms: C_2  and  N_4 
REMARK    1  A    between atoms: N_4  and  C_5 
REMARK    2  A    between atoms: C_5  and  C_6 
REMARK    3  A    between atoms: C_6  and  C_7 
REMARK    4  A    between atoms: N_16  and  C_17 
REMARK    5  A    between atoms: C_17  and  C_18 
REMARK    6  A    between atoms: C_18  and  O_19 
REMARK    7  A    between atoms: O_19  and  C_20 
ROOT
HETATM    1  C   UNL     1     -39.939 -50.300  12.256  1.00  0.00     0.086 A 
HETATM    2  N   UNL     1     -39.164 -49.676  13.118  1.00  0.00    -0.344 N 
ATOM      3  HN  UNL     1     -38.764 -48.743  13.019  1.00  0.00     0.167 HD
HETATM    4  C   UNL     1     -39.005 -50.528  14.171  1.00  0.00     0.060 A 
HETATM    5  C   UNL     1     -38.257 -50.337  15.346  1.00  0.00     0.032 A 
HETATM    6  C   UNL     1     -38.228 -51.345  16.312  1.00  0.00     0.002 A 
HETATM    7  C   UNL     1     -38.931 -52.526  16.112  1.00  0.00     0.002 A 
HETATM    8  C   UNL     1     -39.681 -52.732  14.949  1.00  0.00     0.032 A 
HETATM    9  C   UNL     1     -39.713 -51.717  13.975  1.00  0.00     0.062 A 
HETATM   10  N   UNL     1     -40.319 -51.547  12.740  1.00  0.00    -0.333 N 
ENDROOT
BRANCH  10  11
HETATM   11  C   UNL     1     -41.205 -52.450  12.013  1.00  0.00     0.157 C 
BRANCH  11  12
HETATM   12  C   UNL     1     -42.647 -52.509  12.497  1.00  0.00     0.196 C 
BRANCH  12  13
HETATM   13  O   UNL     1     -43.072 -51.276  13.080  1.00  0.00    -0.350 OA
BRANCH  13  14
HETATM   14  C   UNL     1     -44.331 -51.329  13.635  1.00  0.00     0.069 A 
HETATM   15  C   UNL     1     -45.509 -51.635  12.944  1.00  0.00     0.037 A 
HETATM   16  C   UNL     1     -46.738 -51.638  13.605  1.00  0.00     0.003 A 
HETATM   17  C   UNL     1     -46.804 -51.326  14.960  1.00  0.00     0.007 A 
HETATM   18  C   UNL     1     -45.639 -51.004  15.664  1.00  0.00    -0.059 A 
HETATM   19  C   UNL     1     -45.699 -50.660  17.122  1.00  0.00     0.048 C 
HETATM   20  C   UNL     1     -44.406 -51.014  14.993  1.00  0.00     0.043 A 
ENDBRANCH  13  14
ENDBRANCH  12  13
ENDBRANCH  11  12
ENDBRANCH  10  11
BRANCH   1  21
HETATM   21  C   UNL     1     -40.371 -49.730  10.941  1.00  0.00     0.096 C 
BRANCH  21  22
HETATM   22  C   UNL     1     -41.350 -48.564  11.124  1.00  0.00     0.130 C 
BRANCH  22  23
HETATM   23  N   UNL     1     -40.891 -47.331  10.497  1.00  0.00    -0.361 N 
HETATM   24  C   UNL     1     -40.083 -46.436  11.162  1.00  0.00     0.213 C 
HETATM   25  C   UNL     1     -39.768 -45.204  10.362  1.00  0.00     0.117 C 
HETATM   26  O   UNL     1     -39.636 -46.623  12.288  1.00  0.00    -0.274 OA
HETATM   27  H   UNL     1     -41.383 -47.013   9.671  1.00  0.00     0.162 HD
ENDBRANCH  22  23
ENDBRANCH  21  22
ENDBRANCH   1  21
TORSDOF 7
ENDMDL
MODEL 9
REMARK VINA RESULT:      -5.7      3.074      5.349
REMARK  7 active torsions:
REMARK  status: ('A' for Active; 'I' for Inactive)
REMARK       I    between atoms: C_2  and  N_4 
REMARK    1  A    between atoms: N_4  and  C_5 
REMARK    2  A    between atoms: C_5  and  C_6 
REMARK    3  A    between atoms: C_6  and  C_7 
REMARK    4  A    between atoms: N_16  and  C_17 
REMARK    5  A    between atoms: C_17  and  C_18 
REMARK    6  A    between atoms: C_18  and  O_19 
REMARK    7  A    between atoms: O_19  and  C_20 
ROOT
HETATM    1  C   UNL     1     -41.417 -48.589  12.470  1.00  0.00     0.086 A 
HETATM    2  N   UNL     1     -41.188 -47.471  13.127  1.00  0.00    -0.344 N 
ATOM      3  HN  UNL     1     -41.830 -46.688  13.246  1.00  0.00     0.167 HD
HETATM    4  C   UNL     1     -39.919 -47.571  13.616  1.00  0.00     0.060 A 
HETATM    5  C   UNL     1     -39.197 -46.634  14.376  1.00  0.00     0.032 A 
HETATM    6  C   UNL     1     -37.896 -46.937  14.783  1.00  0.00     0.002 A 
HETATM    7  C   UNL     1     -37.320 -48.152  14.437  1.00  0.00     0.002 A 
HETATM    8  C   UNL     1     -38.024 -49.096  13.681  1.00  0.00     0.032 A 
HETATM    9  C   UNL     1     -39.335 -48.793  13.272  1.00  0.00     0.062 A 
HETATM   10  N   UNL     1     -40.321 -49.442  12.543  1.00  0.00    -0.333 N 
ENDROOT
BRANCH  10  11
HETATM   11  C   UNL     1     -40.300 -50.769  11.936  1.00  0.00     0.157 C 
BRANCH  11  12
HETATM   12  C   UNL     1     -41.023 -51.868  12.701  1.00  0.00     0.196 C 
BRANCH  12  13
HETATM   13  O   UNL     1     -42.135 -52.392  11.973  1.00  0.00    -0.350 OA
BRANCH  13  14
HETATM   14  C   UNL     1     -42.946 -53.220  12.717  1.00  0.00     0.069 A 
HETATM   15  C   UNL     1     -44.313 -53.425  12.499  1.00  0.00     0.037 A 
HETATM   16  C   UNL     1     -45.044 -54.272  13.331  1.00  0.00     0.003 A 
HETATM   17  C   UNL     1     -44.420 -54.916  14.396  1.00  0.00     0.007 A 
HETATM   18  C   UNL     1     -43.058 -54.712  14.639  1.00  0.00    -0.059 A 
HETATM   19  C   UNL     1     -42.377 -55.395  15.787  1.00  0.00     0.048 C 
HETATM   20  C   UNL     1     -42.328 -53.866  13.789  1.00  0.00     0.043 A 
ENDBRANCH  13  14
ENDBRANCH  12  13
ENDBRANCH  11  12
ENDBRANCH  10  11
BRANCH   1  21
HETATM   21  C   UNL     1     -42.696 -48.907  11.761  1.00  0.00     0.096 C 
BRANCH  21  22
HETATM   22  C   UNL     1     -43.033 -47.850  10.702  1.00  0.00     0.130 C 
BRANCH  22  23
HETATM   23  N   UNL     1     -44.434 -47.873  10.300  1.00  0.00    -0.361 N 
HETATM   24  C   UNL     1     -44.914 -47.058   9.299  1.00  0.00     0.213 C 
HETATM   25  C   UNL     1     -46.394 -47.194   9.075  1.00  0.00     0.117 C 
HETATM   26  O   UNL     1     -44.213 -46.306   8.631  1.00  0.00    -0.274 OA
HETATM   27  H   UNL     1     -45.097 -48.297  10.936  1.00  0.00     0.162 HD
ENDBRANCH  22  23
ENDBRANCH  21  22
ENDBRANCH   1  21
TORSDOF 7
ENDMDL
