MODEL 1
REMARK VINA RESULT:      -5.7      0.000      0.000
REMARK  6 active torsions:
REMARK  status: ('A' for Active; 'I' for Inactive)
REMARK    1  A    between atoms: C_2  and  C_4 
REMARK    2  A    between atoms: C_4  and  N_5 
REMARK    3  A    between atoms: C_10  and  C_11 
REMARK    4  A    between atoms: C_11  and  C_12 
REMARK       I    between atoms: C_12  and  N_14 
REMARK    5  A    between atoms: N_14  and  C_15 
REMARK    6  A    between atoms: C_15  and  C_16 
ROOT
HETATM    1  N   UNL     1     -44.099 -53.167  14.905  1.00  0.00    -0.296 N 
HETATM    2  N   UNL     1     -43.224 -52.864  15.873  1.00  0.00    -0.302 N 
ATOM      3  HN  UNL     1     -43.422 -52.691  16.859  1.00  0.00     0.186 HD
HETATM    4  C   UNL     1     -42.035 -52.839  15.268  1.00  0.00     0.030 A 
HETATM    5  C   UNL     1     -40.852 -52.459  16.081  1.00  0.00     0.070 C 
HETATM    6  C   UNL     1     -42.135 -53.204  13.894  1.00  0.00    -0.002 A 
HETATM    7  C   UNL     1     -43.493 -53.455  13.708  1.00  0.00     0.033 A 
HETATM    8  C   UNL     1     -44.242 -53.938  12.519  1.00  0.00     0.070 C 
ENDROOT
BRANCH   6   9
HETATM    9  C   UNL     1     -41.065 -53.374  12.858  1.00  0.00     0.145 C 
BRANCH   9  10
HETATM   10  C   UNL     1     -40.324 -52.120  12.440  1.00  0.00     0.222 C 
HETATM   11  O   UNL     1     -39.198 -51.867  12.871  1.00  0.00    -0.273 OA
HETATM   12  N   UNL     1     -40.957 -51.307  11.519  1.00  0.00    -0.358 N 
HETATM   13  H   UNL     1     -41.971 -51.328  11.484  1.00  0.00     0.162 HD
BRANCH  12  14
HETATM   14  C   UNL     1     -40.302 -50.059  11.150  1.00  0.00     0.154 C 
BRANCH  14  15
HETATM   15  C   UNL     1     -41.116 -48.789  11.410  1.00  0.00     0.139 C 
HETATM   16  C   UNL     1     -42.345 -49.082  12.268  1.00  0.00     0.035 C 
HETATM   17  C   UNL     1     -43.470 -48.290  11.638  1.00  0.00     0.029 C 
HETATM   18  C   UNL     1     -42.808 -47.508  10.526  1.00  0.00     0.168 C 
HETATM   19  O   UNL     1     -41.623 -48.238  10.182  1.00  0.00    -0.384 OA
ENDBRANCH  14  15
ENDBRANCH  12  14
ENDBRANCH   9  10
ENDBRANCH   6   9
BRANCH   1  20
HETATM   20  C   UNL     1     -45.518 -53.101  15.226  1.00  0.00     0.152 C 
BRANCH  20  21
HETATM   21  C   UNL     1     -46.100 -51.680  15.074  1.00  0.00    -0.003 C 
HETATM   22  C   UNL     1     -46.598 -51.425  13.648  1.00  0.00     0.011 C 
HETATM   23  C   UNL     1     -47.228 -51.439  16.075  1.00  0.00     0.011 C 
ENDBRANCH  20  21
ENDBRANCH   1  20
TORSDOF 6
ENDMDL
MODEL 2
REMARK VINA RESULT:      -5.7      2.647      3.542
REMARK  6 active torsions:
REMARK  status: ('A' for Active; 'I' for Inactive)
REMARK    1  A    between atoms: C_2  and  C_4 
REMARK    2  A    between atoms: C_4  and  N_5 
REMARK    3  A    between atoms: C_10  and  C_11 
REMARK    4  A    between atoms: C_11  and  C_12 
REMARK       I    between atoms: C_12  and  N_14 
REMARK    5  A    between atoms: N_14  and  C_15 
REMARK    6  A    between atoms: C_15  and  C_16 
ROOT
HETATM    1  N   UNL     1     -44.152 -53.148  13.043  1.00  0.00    -0.296 N 
HETATM    2  N   UNL     1     -43.389 -52.472  12.173  1.00  0.00    -0.302 N 
ATOM      3  HN  UNL     1     -43.700 -51.873  11.409  1.00  0.00     0.186 HD
HETATM    4  C   UNL     1     -42.133 -52.754  12.525  1.00  0.00     0.030 A 
HETATM    5  C   UNL     1     -41.039 -52.196  11.691  1.00  0.00     0.070 C 
HETATM    6  C   UNL     1     -42.082 -53.571  13.691  1.00  0.00    -0.002 A 
HETATM    7  C   UNL     1     -43.421 -53.768  14.025  1.00  0.00     0.033 A 
HETATM    8  C   UNL     1     -44.047 -54.474  15.173  1.00  0.00     0.070 C 
ENDROOT
BRANCH   6   9
HETATM    9  C   UNL     1     -40.904 -54.072  14.472  1.00  0.00     0.145 C 
BRANCH   9  10
HETATM   10  C   UNL     1     -39.986 -53.019  15.058  1.00  0.00     0.222 C 
HETATM   11  O   UNL     1     -40.119 -52.627  16.218  1.00  0.00    -0.273 OA
HETATM   12  N   UNL     1     -38.969 -52.562  14.241  1.00  0.00    -0.358 N 
HETATM   13  H   UNL     1     -39.111 -52.603  13.237  1.00  0.00     0.162 HD
BRANCH  12  14
HETATM   14  C   UNL     1     -38.113 -51.500  14.751  1.00  0.00     0.154 C 
BRANCH  14  15
HETATM   15  C   UNL     1     -37.523 -50.566  13.691  1.00  0.00     0.139 C 
HETATM   16  C   UNL     1     -38.493 -49.440  13.340  1.00  0.00     0.035 C 
HETATM   17  C   UNL     1     -38.426 -49.309  11.834  1.00  0.00     0.029 C 
HETATM   18  C   UNL     1     -37.350 -50.286  11.416  1.00  0.00     0.168 C 
HETATM   19  O   UNL     1     -37.280 -51.267  12.459  1.00  0.00    -0.384 OA
ENDBRANCH  14  15
ENDBRANCH  12  14
ENDBRANCH   9  10
ENDBRANCH   6   9
BRANCH   1  20
HETATM   20  C   UNL     1     -45.589 -53.175  12.810  1.00  0.00     0.152 C 
BRANCH  20  21
HETATM   21  C   UNL     1     -46.214 -51.764  12.765  1.00  0.00    -0.003 C 
HETATM   22  C   UNL     1     -47.271 -51.651  11.662  1.00  0.00     0.011 C 
HETATM   23  C   UNL     1     -46.823 -51.391  14.116  1.00  0.00     0.011 C 
ENDBRANCH  20  21
ENDBRANCH   1  20
TORSDOF 6
ENDMDL
MODEL 3
REMARK VINA RESULT:      -5.5      1.693      2.137
REMARK  6 active torsions:
REMARK  status: ('A' for Active; 'I' for Inactive)
REMARK    1  A    between atoms: C_2  and  C_4 
REMARK    2  A    between atoms: C_4  and  N_5 
REMARK    3  A    between atoms: C_10  and  C_11 
REMARK    4  A    between atoms: C_11  and  C_12 
REMARK       I    between atoms: C_12  and  N_14 
REMARK    5  A    between atoms: N_14  and  C_15 
REMARK    6  A    between atoms: C_15  and  C_16 
ROOT
HETATM    1  N   UNL     1     -46.084 -52.890  14.828  1.00  0.00    -0.296 N 
HETATM    2  N   UNL     1     -45.394 -53.861  15.440  1.00  0.00    -0.302 N 
ATOM      3  HN  UNL     1     -45.621 -54.324  16.321  1.00  0.00     0.186 HD
HETATM    4  C   UNL     1     -44.347 -54.093  14.647  1.00  0.00     0.030 A 
HETATM    5  C   UNL     1     -43.343 -55.089  15.099  1.00  0.00     0.070 C 
HETATM    6  C   UNL     1     -44.398 -53.305  13.461  1.00  0.00    -0.002 A 
HETATM    7  C   UNL     1     -45.573 -52.566  13.597  1.00  0.00     0.033 A 
HETATM    8  C   UNL     1     -46.234 -51.607  12.674  1.00  0.00     0.070 C 
ENDROOT
BRANCH   6   9
HETATM    9  C   UNL     1     -43.484 -53.282  12.274  1.00  0.00     0.145 C 
BRANCH   9  10
HETATM   10  C   UNL     1     -42.297 -52.343  12.354  1.00  0.00     0.222 C 
HETATM   11  O   UNL     1     -41.158 -52.766  12.561  1.00  0.00    -0.273 OA
HETATM   12  N   UNL     1     -42.553 -51.003  12.135  1.00  0.00    -0.358 N 
HETATM   13  H   UNL     1     -43.483 -50.656  12.345  1.00  0.00     0.162 HD
BRANCH  12  14
HETATM   14  C   UNL     1     -41.445 -50.068  12.275  1.00  0.00     0.154 C 
BRANCH  14  15
HETATM   15  C   UNL     1     -41.713 -48.651  11.760  1.00  0.00     0.139 C 
HETATM   16  C   UNL     1     -43.146 -48.213  12.058  1.00  0.00     0.035 C 
HETATM   17  C   UNL     1     -43.622 -47.519  10.800  1.00  0.00     0.029 C 
HETATM   18  C   UNL     1     -42.410 -47.501   9.896  1.00  0.00     0.168 C 
HETATM   19  O   UNL     1     -41.577 -48.583  10.331  1.00  0.00    -0.384 OA
ENDBRANCH  14  15
ENDBRANCH  12  14
ENDBRANCH   9  10
ENDBRANCH   6   9
BRANCH   1  20
HETATM   20  C   UNL     1     -47.205 -52.297  15.543  1.00  0.00     0.152 C 
BRANCH  20  21
HETATM   21  C   UNL     1     -46.774 -51.576  16.838  1.00  0.00    -0.003 C 
HETATM   22  C   UNL     1     -45.628 -50.593  16.581  1.00  0.00     0.011 C 
HETATM   23  C   UNL     1     -47.955 -50.850  17.480  1.00  0.00     0.011 C 
ENDBRANCH  20  21
ENDBRANCH   1  20
TORSDOF 6
ENDMDL
MODEL 4
REMARK VINA RESULT:      -5.4      2.604      3.001
REMARK  6 active torsions:
REMARK  status: ('A' for Active; 'I' for Inactive)
REMARK    1  A    between atoms: C_2  and  C_4 
REMARK    2  A    between atoms: C_4  and  N_5 
REMARK    3  A    between atoms: C_10  and  C_11 
REMARK    4  A    between atoms: C_11  and  C_12 
REMARK       I    between atoms: C_12  and  N_14 
REMARK    5  A    between atoms: N_14  and  C_15 
REMARK    6  A    between atoms: C_15  and  C_16 
ROOT
HETATM    1  N   UNL     1     -44.546 -53.831  14.711  1.00  0.00    -0.296 N 
HETATM    2  N   UNL     1     -43.939 -54.449  15.732  1.00  0.00    -0.302 N 
ATOM      3  HN  UNL     1     -44.344 -54.709  16.631  1.00  0.00     0.186 HD
HETATM    4  C   UNL     1     -42.687 -54.653  15.317  1.00  0.00     0.030 A 
HETATM    5  C   UNL     1     -41.733 -55.271  16.272  1.00  0.00     0.070 C 
HETATM    6  C   UNL     1     -42.501 -54.222  13.972  1.00  0.00    -0.002 A 
HETATM    7  C   UNL     1     -43.751 -53.732  13.597  1.00  0.00     0.033 A 
HETATM    8  C   UNL     1     -44.241 -53.199  12.299  1.00  0.00     0.070 C 
ENDROOT
BRANCH   6   9
HETATM    9  C   UNL     1     -41.296 -54.313  13.084  1.00  0.00     0.145 C 
BRANCH   9  10
HETATM   10  C   UNL     1     -39.996 -53.784  13.654  1.00  0.00     0.222 C 
HETATM   11  O   UNL     1     -39.079 -54.543  13.970  1.00  0.00    -0.273 OA
HETATM   12  N   UNL     1     -39.878 -52.410  13.753  1.00  0.00    -0.358 N 
HETATM   13  H   UNL     1     -40.729 -51.867  13.852  1.00  0.00     0.162 HD
BRANCH  12  14
HETATM   14  C   UNL     1     -38.669 -51.874  14.361  1.00  0.00     0.154 C 
BRANCH  14  15
HETATM   15  C   UNL     1     -37.943 -50.801  13.545  1.00  0.00     0.139 C 
HETATM   16  C   UNL     1     -38.896 -49.682  13.127  1.00  0.00     0.035 C 
HETATM   17  C   UNL     1     -38.545 -49.377  11.687  1.00  0.00     0.029 C 
HETATM   18  C   UNL     1     -37.349 -50.253  11.394  1.00  0.00     0.168 C 
HETATM   19  O   UNL     1     -37.422 -51.344  12.321  1.00  0.00    -0.384 OA
ENDBRANCH  14  15
ENDBRANCH  12  14
ENDBRANCH   9  10
ENDBRANCH   6   9
BRANCH   1  20
HETATM   20  C   UNL     1     -45.893 -53.320  14.928  1.00  0.00     0.152 C 
BRANCH  20  21
HETATM   21  C   UNL     1     -45.922 -52.086  15.854  1.00  0.00    -0.003 C 
HETATM   22  C   UNL     1     -45.022 -50.965  15.326  1.00  0.00     0.011 C 
HETATM   23  C   UNL     1     -47.348 -51.572  16.038  1.00  0.00     0.011 C 
ENDBRANCH  20  21
ENDBRANCH   1  20
TORSDOF 6
ENDMDL
MODEL 5
REMARK VINA RESULT:      -5.4      1.782      3.042
REMARK  6 active torsions:
REMARK  status: ('A' for Active; 'I' for Inactive)
REMARK    1  A    between atoms: C_2  and  C_4 
REMARK    2  A    between atoms: C_4  and  N_5 
REMARK    3  A    between atoms: C_10  and  C_11 
REMARK    4  A    between atoms: C_11  and  C_12 
REMARK       I    between atoms: C_12  and  N_14 
REMARK    5  A    between atoms: N_14  and  C_15 
REMARK    6  A    between atoms: C_15  and  C_16 
ROOT
HETATM    1  N   UNL     1     -46.227 -52.338  15.215  1.00  0.00    -0.296 N 
HETATM    2  N   UNL     1     -46.889 -51.750  14.210  1.00  0.00    -0.302 N 
ATOM      3  HN  UNL     1     -47.709 -51.146  14.275  1.00  0.00     0.186 HD
HETATM    4  C   UNL     1     -46.243 -52.124  13.105  1.00  0.00     0.030 A 
HETATM    5  C   UNL     1     -46.789 -51.679  11.798  1.00  0.00     0.070 C 
HETATM    6  C   UNL     1     -45.095 -52.913  13.407  1.00  0.00    -0.002 A 
HETATM    7  C   UNL     1     -45.095 -52.991  14.799  1.00  0.00     0.033 A 
HETATM    8  C   UNL     1     -44.129 -53.614  15.741  1.00  0.00     0.070 C 
ENDROOT
BRANCH   6   9
HETATM    9  C   UNL     1     -44.050 -53.489  12.499  1.00  0.00     0.145 C 
BRANCH   9  10
HETATM   10  C   UNL     1     -42.718 -52.769  12.462  1.00  0.00     0.222 C 
HETATM   11  O   UNL     1     -41.662 -53.360  12.690  1.00  0.00    -0.273 OA
HETATM   12  N   UNL     1     -42.748 -51.432  12.110  1.00  0.00    -0.358 N 
HETATM   13  H   UNL     1     -43.597 -50.910  12.300  1.00  0.00     0.162 HD
BRANCH  12  14
HETATM   14  C   UNL     1     -41.493 -50.695  12.132  1.00  0.00     0.154 C 
BRANCH  14  15
HETATM   15  C   UNL     1     -41.615 -49.183  11.926  1.00  0.00     0.139 C 
HETATM   16  C   UNL     1     -43.029 -48.693  12.233  1.00  0.00     0.035 C 
HETATM   17  C   UNL     1     -43.358 -47.707  11.133  1.00  0.00     0.029 C 
HETATM   18  C   UNL     1     -42.085 -47.604  10.324  1.00  0.00     0.168 C 
HETATM   19  O   UNL     1     -41.369 -48.824  10.556  1.00  0.00    -0.384 OA
ENDBRANCH  14  15
ENDBRANCH  12  14
ENDBRANCH   9  10
ENDBRANCH   6   9
BRANCH   1  20
HETATM   20  C   UNL     1     -46.802 -52.253  16.550  1.00  0.00     0.152 C 
BRANCH  20  21
HETATM   21  C   UNL     1     -47.063 -50.799  16.997  1.00  0.00    -0.003 C 
HETATM   22  C   UNL     1     -48.099 -50.733  18.123  1.00  0.00     0.011 C 
HETATM   23  C   UNL     1     -45.767 -50.119  17.436  1.00  0.00     0.011 C 
ENDBRANCH  20  21
ENDBRANCH   1  20
TORSDOF 6
ENDMDL
MODEL 6
REMARK VINA RESULT:      -5.2      3.300      6.341
REMARK  6 active torsions:
REMARK  status: ('A' for Active; 'I' for Inactive)
REMARK    1  A    between atoms: C_2  and  C_4 
REMARK    2  A    between atoms: C_4  and  N_5 
REMARK    3  A    between atoms: C_10  and  C_11 
REMARK    4  A    between atoms: C_11  and  C_12 
REMARK       I    between atoms: C_12  and  N_14 
REMARK    5  A    between atoms: N_14  and  C_15 
REMARK    6  A    between atoms: C_15  and  C_16 
ROOT
HETATM    1  N   UNL     1     -43.935 -53.107  13.134  1.00  0.00    -0.296 N 
HETATM    2  N   UNL     1     -43.328 -52.107  12.481  1.00  0.00    -0.302 N 
ATOM      3  HN  UNL     1     -43.765 -51.298  12.039  1.00  0.00     0.186 HD
HETATM    4  C   UNL     1     -42.027 -52.398  12.536  1.00  0.00     0.030 A 
HETATM    5  C   UNL     1     -41.085 -51.493  11.830  1.00  0.00     0.070 C 
HETATM    6  C   UNL     1     -41.782 -53.574  13.302  1.00  0.00    -0.002 A 
HETATM    7  C   UNL     1     -43.050 -53.982  13.713  1.00  0.00     0.033 A 
HETATM    8  C   UNL     1     -43.478 -55.101  14.592  1.00  0.00     0.070 C 
ENDROOT
BRANCH   6   9
HETATM    9  C   UNL     1     -40.488 -54.230  13.682  1.00  0.00     0.145 C 
BRANCH   9  10
HETATM   10  C   UNL     1     -39.911 -53.853  15.031  1.00  0.00     0.222 C 
HETATM   11  O   UNL     1     -39.291 -52.801  15.193  1.00  0.00    -0.273 OA
HETATM   12  N   UNL     1     -40.160 -54.726  16.074  1.00  0.00    -0.358 N 
HETATM   13  H   UNL     1     -40.318 -55.702  15.849  1.00  0.00     0.162 HD
BRANCH  12  14
HETATM   14  C   UNL     1     -39.560 -54.427  17.367  1.00  0.00     0.154 C 
BRANCH  14  15
HETATM   15  C   UNL     1     -39.213 -55.646  18.227  1.00  0.00     0.139 C 
HETATM   16  C   UNL     1     -38.689 -56.798  17.373  1.00  0.00     0.035 C 
HETATM   17  C   UNL     1     -39.354 -58.040  17.925  1.00  0.00     0.029 C 
HETATM   18  C   UNL     1     -40.132 -57.551  19.125  1.00  0.00     0.168 C 
HETATM   19  O   UNL     1     -40.378 -56.158  18.896  1.00  0.00    -0.384 OA
ENDBRANCH  14  15
ENDBRANCH  12  14
ENDBRANCH   9  10
ENDBRANCH   6   9
BRANCH   1  20
HETATM   20  C   UNL     1     -45.389 -53.160  13.097  1.00  0.00     0.152 C 
BRANCH  20  21
HETATM   21  C   UNL     1     -46.035 -51.763  12.983  1.00  0.00    -0.003 C 
HETATM   22  C   UNL     1     -47.007 -51.687  11.802  1.00  0.00     0.011 C 
HETATM   23  C   UNL     1     -46.751 -51.382  14.278  1.00  0.00     0.011 C 
ENDBRANCH  20  21
ENDBRANCH   1  20
TORSDOF 6
ENDMDL
MODEL 7
REMARK VINA RESULT:      -5.2      2.636      4.309
REMARK  6 active torsions:
REMARK  status: ('A' for Active; 'I' for Inactive)
REMARK    1  A    between atoms: C_2  and  C_4 
REMARK    2  A    between atoms: C_4  and  N_5 
REMARK    3  A    between atoms: C_10  and  C_11 
REMARK    4  A    between atoms: C_11  and  C_12 
REMARK       I    between atoms: C_12  and  N_14 
REMARK    5  A    between atoms: N_14  and  C_15 
REMARK    6  A    between atoms: C_15  and  C_16 
ROOT
HETATM    1  N   UNL     1     -46.230 -51.521  16.001  1.00  0.00    -0.296 N 
HETATM    2  N   UNL     1     -46.969 -51.914  14.955  1.00  0.00    -0.302 N 
ATOM      3  HN  UNL     1     -47.882 -52.369  14.974  1.00  0.00     0.186 HD
HETATM    4  C   UNL     1     -46.252 -51.579  13.881  1.00  0.00     0.030 A 
HETATM    5  C   UNL     1     -46.787 -51.953  12.547  1.00  0.00     0.070 C 
HETATM    6  C   UNL     1     -45.057 -50.891  14.238  1.00  0.00    -0.002 A 
HETATM    7  C   UNL     1     -45.103 -50.834  15.630  1.00  0.00     0.033 A 
HETATM    8  C   UNL     1     -44.189 -50.190  16.610  1.00  0.00     0.070 C 
ENDROOT
BRANCH   6   9
HETATM    9  C   UNL     1     -43.997 -50.279  13.373  1.00  0.00     0.145 C 
BRANCH   9  10
HETATM   10  C   UNL     1     -42.739 -51.098  13.165  1.00  0.00     0.222 C 
HETATM   11  O   UNL     1     -42.443 -52.022  13.924  1.00  0.00    -0.273 OA
HETATM   12  N   UNL     1     -41.974 -50.785  12.056  1.00  0.00    -0.358 N 
HETATM   13  H   UNL     1     -42.022 -49.837  11.698  1.00  0.00     0.162 HD
BRANCH  12  14
HETATM   14  C   UNL     1     -40.724 -51.508  11.868  1.00  0.00     0.154 C 
BRANCH  14  15
HETATM   15  C   UNL     1     -39.480 -50.830  12.448  1.00  0.00     0.139 C 
HETATM   16  C   UNL     1     -38.904 -49.801  11.478  1.00  0.00     0.035 C 
HETATM   17  C   UNL     1     -37.405 -50.001  11.527  1.00  0.00     0.029 C 
HETATM   18  C   UNL     1     -37.197 -51.052  12.593  1.00  0.00     0.168 C 
HETATM   19  O   UNL     1     -38.427 -51.784  12.672  1.00  0.00    -0.384 OA
ENDBRANCH  14  15
ENDBRANCH  12  14
ENDBRANCH   9  10
ENDBRANCH   6   9
BRANCH   1  20
HETATM   20  C   UNL     1     -46.677 -51.907  17.332  1.00  0.00     0.152 C 
BRANCH  20  21
HETATM   21  C   UNL     1     -47.889 -51.084  17.818  1.00  0.00    -0.003 C 
HETATM   22  C   UNL     1     -48.601 -51.767  18.988  1.00  0.00     0.011 C 
HETATM   23  C   UNL     1     -47.468 -49.669  18.212  1.00  0.00     0.011 C 
ENDBRANCH  20  21
ENDBRANCH   1  20
TORSDOF 6
ENDMDL
MODEL 8
REMARK VINA RESULT:      -5.1      2.443      4.635
REMARK  6 active torsions:
REMARK  status: ('A' for Active; 'I' for Inactive)
REMARK    1  A    between atoms: C_2  and  C_4 
REMARK    2  A    between atoms: C_4  and  N_5 
REMARK    3  A    between atoms: C_10  and  C_11 
REMARK    4  A    between atoms: C_11  and  C_12 
REMARK       I    between atoms: C_12  and  N_14 
REMARK    5  A    between atoms: N_14  and  C_15 
REMARK    6  A    between atoms: C_15  and  C_16 
ROOT
HETATM    1  N   UNL     1     -46.464 -51.964  16.991  1.00  0.00    -0.296 N 
HETATM    2  N   UNL     1     -46.634 -51.196  15.907  1.00  0.00    -0.302 N 
ATOM      3  HN  UNL     1     -46.860 -50.202  15.879  1.00  0.00     0.186 HD
HETATM    4  C   UNL     1     -46.444 -52.015  14.871  1.00  0.00     0.030 A 
HETATM    5  C   UNL     1     -46.635 -51.462  13.507  1.00  0.00     0.070 C 
HETATM    6  C   UNL     1     -46.072 -53.324  15.295  1.00  0.00    -0.002 A 
HETATM    7  C   UNL     1     -46.052 -53.236  16.686  1.00  0.00     0.033 A 
HETATM    8  C   UNL     1     -45.678 -54.235  17.721  1.00  0.00     0.070 C 
ENDROOT
BRANCH   6   9
HETATM    9  C   UNL     1     -45.701 -54.533  14.490  1.00  0.00     0.145 C 
BRANCH   9  10
HETATM   10  C   UNL     1     -44.494 -54.396  13.584  1.00  0.00     0.222 C 
HETATM   11  O   UNL     1     -44.606 -54.423  12.358  1.00  0.00    -0.273 OA
HETATM   12  N   UNL     1     -43.276 -54.192  14.205  1.00  0.00    -0.358 N 
HETATM   13  H   UNL     1     -43.159 -54.544  15.150  1.00  0.00     0.162 HD
BRANCH  12  14
HETATM   14  C   UNL     1     -42.088 -54.126  13.366  1.00  0.00     0.154 C 
BRANCH  14  15
HETATM   15  C   UNL     1     -41.313 -52.807  13.427  1.00  0.00     0.139 C 
HETATM   16  C   UNL     1     -42.237 -51.609  13.219  1.00  0.00     0.035 C 
HETATM   17  C   UNL     1     -41.482 -50.677  12.296  1.00  0.00     0.029 C 
HETATM   18  C   UNL     1     -40.134 -51.335  12.113  1.00  0.00     0.168 C 
HETATM   19  O   UNL     1     -40.336 -52.730  12.374  1.00  0.00    -0.384 OA
ENDBRANCH  14  15
ENDBRANCH  12  14
ENDBRANCH   9  10
ENDBRANCH   6   9
BRANCH   1  20
HETATM   20  C   UNL     1     -46.777 -51.385  18.291  1.00  0.00     0.152 C 
BRANCH  20  21
HETATM   21  C   UNL     1     -48.248 -50.935  18.406  1.00  0.00    -0.003 C 
HETATM   22  C   UNL     1     -48.976 -51.673  19.533  1.00  0.00     0.011 C 
HETATM   23  C   UNL     1     -48.345 -49.425  18.618  1.00  0.00     0.011 C 
ENDBRANCH  20  21
ENDBRANCH   1  20
TORSDOF 6
ENDMDL
MODEL 9
REMARK VINA RESULT:      -5.1      2.896      6.040
REMARK  6 active torsions:
REMARK  status: ('A' for Active; 'I' for Inactive)
REMARK    1  A    between atoms: C_2  and  C_4 
REMARK    2  A    between atoms: C_4  and  N_5 
REMARK    3  A    between atoms: C_10  and  C_11 
REMARK    4  A    between atoms: C_11  and  C_12 
REMARK       I    between atoms: C_12  and  N_14 
REMARK    5  A    between atoms: N_14  and  C_15 
REMARK    6  A    between atoms: C_15  and  C_16 
ROOT
HETATM    1  N   UNL     1     -39.641 -51.254  14.055  1.00  0.00    -0.296 N 
HETATM    2  N   UNL     1     -38.961 -52.238  14.659  1.00  0.00    -0.302 N 
ATOM      3  HN  UNL     1     -38.142 -52.150  15.260  1.00  0.00     0.186 HD
HETATM    4  C   UNL     1     -39.590 -53.359  14.304  1.00  0.00     0.030 A 
HETATM    5  C   UNL     1     -39.022 -54.649  14.770  1.00  0.00     0.070 C 
HETATM    6  C   UNL     1     -40.744 -53.089  13.512  1.00  0.00    -0.002 A 
HETATM    7  C   UNL     1     -40.767 -51.699  13.411  1.00  0.00     0.033 A 
HETATM    8  C   UNL     1     -41.749 -50.783  12.774  1.00  0.00     0.070 C 
ENDROOT
BRANCH   6   9
HETATM    9  C   UNL     1     -41.775 -54.023  12.953  1.00  0.00     0.145 C 
BRANCH   9  10
HETATM   10  C   UNL     1     -42.907 -54.412  13.882  1.00  0.00     0.222 C 
HETATM   11  O   UNL     1     -42.694 -54.748  15.048  1.00  0.00    -0.273 OA
HETATM   12  N   UNL     1     -44.187 -54.322  13.367  1.00  0.00    -0.358 N 
HETATM   13  H   UNL     1     -44.303 -54.419  12.364  1.00  0.00     0.162 HD
BRANCH  12  14
HETATM   14  C   UNL     1     -45.291 -54.756  14.212  1.00  0.00     0.154 C 
BRANCH  14  15
HETATM   15  C   UNL     1     -46.396 -53.719  14.432  1.00  0.00     0.139 C 
HETATM   16  C   UNL     1     -46.333 -52.609  13.385  1.00  0.00     0.035 C 
HETATM   17  C   UNL     1     -46.566 -51.324  14.149  1.00  0.00     0.029 C 
HETATM   18  C   UNL     1     -46.855 -51.772  15.564  1.00  0.00     0.168 C 
HETATM   19  O   UNL     1     -46.245 -53.062  15.702  1.00  0.00    -0.384 OA
ENDBRANCH  14  15
ENDBRANCH  12  14
ENDBRANCH   9  10
ENDBRANCH   6   9
BRANCH   1  20
HETATM   20  C   UNL     1     -39.087 -49.908  14.117  1.00  0.00     0.152 C 
BRANCH  20  21
HETATM   21  C   UNL     1     -38.131 -49.600  12.945  1.00  0.00    -0.003 C 
HETATM   22  C   UNL     1     -37.447 -50.869  12.429  1.00  0.00     0.011 C 
HETATM   23  C   UNL     1     -38.869 -48.900  11.805  1.00  0.00     0.011 C 
ENDBRANCH  20  21
ENDBRANCH   1  20
TORSDOF 6
ENDMDL
