MODEL 1
REMARK VINA RESULT:      -6.1      0.000      0.000
REMARK  7 active torsions:
REMARK  status: ('A' for Active; 'I' for Inactive)
REMARK    1  A    between atoms: C_2  and  C_3 
REMARK    2  A    between atoms: C_2  and  N_10 
REMARK    3  A    between atoms: C_3  and  N_4 
REMARK    4  A    between atoms: N_10  and  C_11 
REMARK    5  A    between atoms: C_11  and  C_12 
REMARK       I    between atoms: C_12  and  N_14 
REMARK    6  A    between atoms: N_14  and  C_15 
REMARK    7  A    between atoms: C_15  and  C_19 
ROOT
HETATM    1  C   UNL     1     -44.452 -47.236   9.001  1.00  0.00     0.122 C 
HETATM    2  C   UNL     1     -44.121 -45.743   9.122  1.00  0.00     0.055 C 
HETATM    3  C   UNL     1     -43.757 -47.845   7.834  1.00  0.00     0.091 C 
HETATM    4  N   UNL     1     -43.247 -48.333   6.906  1.00  0.00    -0.195 NA
ENDROOT
BRANCH   1   5
HETATM    5  N   UNL     1     -44.127 -47.936  10.245  1.00  0.00    -0.338 N 
HETATM    6  C   UNL     1     -42.842 -48.039  10.736  1.00  0.00     0.247 C 
HETATM    7  O   UNL     1     -41.860 -47.575  10.169  1.00  0.00    -0.272 OA
HETATM    8  H   UNL     1     -44.856 -48.362  10.809  1.00  0.00     0.164 HD
BRANCH   6   9
HETATM    9  C   UNL     1     -42.718 -48.846  12.030  1.00  0.00     0.372 C 
BRANCH   9  10
HETATM   10  N   UNL     1     -41.870 -50.042  11.817  1.00  0.00     0.098 N 
HETATM   11  H   UNL     1     -41.799 -50.184  10.805  1.00  0.00     0.317 HD
BRANCH  10  12
HETATM   12  C   UNL     1     -42.484 -51.269  12.396  1.00  0.00     0.236 C 
HETATM   13  C   UNL     1     -41.352 -52.300  12.505  1.00  0.00     0.044 C 
BRANCH  12  14
HETATM   14  C   UNL     1     -43.152 -51.011  13.764  1.00  0.00     0.183 C 
BRANCH  14  15
HETATM   15  N   UNL     1     -44.576 -51.279  13.811  1.00  0.00    -0.302 N 
HETATM   16  C   UNL     1     -45.378 -51.197  14.914  1.00  0.00     0.111 A 
HETATM   17  C   UNL     1     -46.660 -51.410  14.468  1.00  0.00     0.037 A 
HETATM   18  C   UNL     1     -46.526 -51.609  13.082  1.00  0.00     0.108 A 
HETATM   19  N   UNL     1     -45.254 -51.534  12.678  1.00  0.00    -0.310 N 
ATOM     20  HN  UNL     1     -44.886 -51.643  11.734  1.00  0.00     0.186 HD
ENDBRANCH  14  15
ENDBRANCH  12  14
ENDBRANCH  10  12
ENDBRANCH   9  10
ENDBRANCH   6   9
ENDBRANCH   1   5
BRANCH   1  21
HETATM   21  C   UNL     1     -45.930 -47.497   8.688  1.00  0.00     0.028 A 
HETATM   22  C   UNL     1     -46.767 -48.500   9.467  1.00  0.00     0.009 A 
HETATM   23  C   UNL     1     -46.432 -48.772   8.029  1.00  0.00     0.009 A 
ENDBRANCH   1  21
TORSDOF 7
ENDMDL
MODEL 2
REMARK VINA RESULT:      -5.9      2.611      6.228
REMARK  7 active torsions:
REMARK  status: ('A' for Active; 'I' for Inactive)
REMARK    1  A    between atoms: C_2  and  C_3 
REMARK    2  A    between atoms: C_2  and  N_10 
REMARK    3  A    between atoms: C_3  and  N_4 
REMARK    4  A    between atoms: N_10  and  C_11 
REMARK    5  A    between atoms: C_11  and  C_12 
REMARK       I    between atoms: C_12  and  N_14 
REMARK    6  A    between atoms: N_14  and  C_15 
REMARK    7  A    between atoms: C_15  and  C_19 
ROOT
HETATM    1  C   UNL     1     -46.001 -52.315  13.541  1.00  0.00     0.122 C 
HETATM    2  C   UNL     1     -46.783 -52.215  12.225  1.00  0.00     0.055 C 
HETATM    3  C   UNL     1     -46.286 -53.600  14.236  1.00  0.00     0.091 C 
HETATM    4  N   UNL     1     -46.520 -54.586  14.812  1.00  0.00    -0.195 NA
ENDROOT
BRANCH   1   5
HETATM    5  N   UNL     1     -44.567 -52.142  13.299  1.00  0.00    -0.338 N 
HETATM    6  C   UNL     1     -43.791 -53.091  12.666  1.00  0.00     0.247 C 
HETATM    7  O   UNL     1     -44.224 -54.168  12.271  1.00  0.00    -0.272 OA
HETATM    8  H   UNL     1     -44.090 -51.290  13.578  1.00  0.00     0.164 HD
BRANCH   6   9
HETATM    9  C   UNL     1     -42.309 -52.728  12.550  1.00  0.00     0.372 C 
BRANCH   9  10
HETATM   10  N   UNL     1     -42.145 -51.424  11.868  1.00  0.00     0.098 N 
HETATM   11  H   UNL     1     -41.806 -51.621  10.921  1.00  0.00     0.317 HD
BRANCH  10  12
HETATM   12  C   UNL     1     -41.125 -50.570  12.537  1.00  0.00     0.236 C 
HETATM   13  C   UNL     1     -39.929 -51.486  12.832  1.00  0.00     0.044 C 
BRANCH  12  14
HETATM   14  C   UNL     1     -40.712 -49.354  11.679  1.00  0.00     0.183 C 
BRANCH  14  15
HETATM   15  N   UNL     1     -41.809 -48.655  11.040  1.00  0.00    -0.302 N 
HETATM   16  C   UNL     1     -42.895 -48.110  11.666  1.00  0.00     0.111 A 
HETATM   17  C   UNL     1     -43.601 -47.445  10.692  1.00  0.00     0.037 A 
HETATM   18  C   UNL     1     -42.859 -47.648   9.514  1.00  0.00     0.108 A 
HETATM   19  N   UNL     1     -41.767 -48.389   9.722  1.00  0.00    -0.310 N 
ATOM     20  HN  UNL     1     -41.067 -48.684   9.042  1.00  0.00     0.186 HD
ENDBRANCH  14  15
ENDBRANCH  12  14
ENDBRANCH  10  12
ENDBRANCH   9  10
ENDBRANCH   6   9
ENDBRANCH   1   5
BRANCH   1  21
HETATM   21  C   UNL     1     -46.431 -51.268  14.574  1.00  0.00     0.028 A 
HETATM   22  C   UNL     1     -45.701 -51.071  15.894  1.00  0.00     0.009 A 
HETATM   23  C   UNL     1     -47.098 -51.622  15.894  1.00  0.00     0.009 A 
ENDBRANCH   1  21
TORSDOF 7
ENDMDL
MODEL 3
REMARK VINA RESULT:      -5.8      2.128      6.149
REMARK  7 active torsions:
REMARK  status: ('A' for Active; 'I' for Inactive)
REMARK    1  A    between atoms: C_2  and  C_3 
REMARK    2  A    between atoms: C_2  and  N_10 
REMARK    3  A    between atoms: C_3  and  N_4 
REMARK    4  A    between atoms: N_10  and  C_11 
REMARK    5  A    between atoms: C_11  and  C_12 
REMARK       I    between atoms: C_12  and  N_14 
REMARK    6  A    between atoms: N_14  and  C_15 
REMARK    7  A    between atoms: C_15  and  C_19 
ROOT
HETATM    1  C   UNL     1     -45.459 -52.341  13.232  1.00  0.00     0.122 C 
HETATM    2  C   UNL     1     -46.567 -51.845  12.295  1.00  0.00     0.055 C 
HETATM    3  C   UNL     1     -45.380 -53.828  13.227  1.00  0.00     0.091 C 
HETATM    4  N   UNL     1     -45.324 -54.991  13.263  1.00  0.00    -0.195 NA
ENDROOT
BRANCH   1   5
HETATM    5  N   UNL     1     -44.175 -51.735  12.873  1.00  0.00    -0.338 N 
HETATM    6  C   UNL     1     -43.000 -52.013  13.541  1.00  0.00     0.247 C 
HETATM    7  O   UNL     1     -42.928 -52.769  14.502  1.00  0.00    -0.272 OA
HETATM    8  H   UNL     1     -44.102 -51.092  12.090  1.00  0.00     0.164 HD
BRANCH   6   9
HETATM    9  C   UNL     1     -41.780 -51.243  13.029  1.00  0.00     0.372 C 
BRANCH   9  10
HETATM   10  N   UNL     1     -42.132 -50.446  11.832  1.00  0.00     0.098 N 
HETATM   11  H   UNL     1     -41.557 -50.795  11.059  1.00  0.00     0.317 HD
BRANCH  10  12
HETATM   12  C   UNL     1     -41.811 -49.003  12.008  1.00  0.00     0.236 C 
HETATM   13  C   UNL     1     -40.582 -48.949  12.926  1.00  0.00     0.044 C 
BRANCH  12  14
HETATM   14  C   UNL     1     -41.551 -48.284  10.667  1.00  0.00     0.183 C 
BRANCH  14  15
HETATM   15  N   UNL     1     -42.740 -47.955   9.907  1.00  0.00    -0.302 N 
HETATM   16  C   UNL     1     -43.917 -47.480  10.412  1.00  0.00     0.111 A 
HETATM   17  C   UNL     1     -44.709 -47.194   9.326  1.00  0.00     0.037 A 
HETATM   18  C   UNL     1     -43.919 -47.529   8.212  1.00  0.00     0.108 A 
HETATM   19  N   UNL     1     -42.718 -47.998   8.562  1.00  0.00    -0.310 N 
ATOM     20  HN  UNL     1     -41.963 -48.313   7.954  1.00  0.00     0.186 HD
ENDBRANCH  14  15
ENDBRANCH  12  14
ENDBRANCH  10  12
ENDBRANCH   9  10
ENDBRANCH   6   9
ENDBRANCH   1   5
BRANCH   1  21
HETATM   21  C   UNL     1     -45.732 -52.021  14.706  1.00  0.00     0.028 A 
HETATM   22  C   UNL     1     -46.872 -52.659  15.484  1.00  0.00     0.009 A 
HETATM   23  C   UNL     1     -46.915 -51.190  15.175  1.00  0.00     0.009 A 
ENDBRANCH   1  21
TORSDOF 7
ENDMDL
MODEL 4
REMARK VINA RESULT:      -5.7      2.828      6.687
REMARK  7 active torsions:
REMARK  status: ('A' for Active; 'I' for Inactive)
REMARK    1  A    between atoms: C_2  and  C_3 
REMARK    2  A    between atoms: C_2  and  N_10 
REMARK    3  A    between atoms: C_3  and  N_4 
REMARK    4  A    between atoms: N_10  and  C_11 
REMARK    5  A    between atoms: C_11  and  C_12 
REMARK       I    between atoms: C_12  and  N_14 
REMARK    6  A    between atoms: N_14  and  C_15 
REMARK    7  A    between atoms: C_15  and  C_19 
ROOT
HETATM    1  C   UNL     1     -45.326 -53.827  14.248  1.00  0.00     0.122 C 
HETATM    2  C   UNL     1     -45.594 -55.265  13.788  1.00  0.00     0.055 C 
HETATM    3  C   UNL     1     -45.129 -53.764  15.722  1.00  0.00     0.091 C 
HETATM    4  N   UNL     1     -45.004 -53.689  16.879  1.00  0.00    -0.195 NA
ENDROOT
BRANCH   1   5
HETATM    5  N   UNL     1     -44.182 -53.263  13.529  1.00  0.00    -0.338 N 
HETATM    6  C   UNL     1     -42.909 -53.788  13.612  1.00  0.00     0.247 C 
HETATM    7  O   UNL     1     -42.618 -54.754  14.307  1.00  0.00    -0.272 OA
HETATM    8  H   UNL     1     -44.295 -52.461  12.916  1.00  0.00     0.164 HD
BRANCH   6   9
HETATM    9  C   UNL     1     -41.852 -53.024  12.812  1.00  0.00     0.372 C 
BRANCH   9  10
HETATM   10  N   UNL     1     -42.405 -51.747  12.306  1.00  0.00     0.098 N 
HETATM   11  H   UNL     1     -42.373 -51.790  11.282  1.00  0.00     0.317 HD
BRANCH  10  12
HETATM   12  C   UNL     1     -41.584 -50.578  12.727  1.00  0.00     0.236 C 
HETATM   13  C   UNL     1     -40.436 -51.146  13.572  1.00  0.00     0.044 C 
BRANCH  12  14
HETATM   14  C   UNL     1     -41.057 -49.759  11.529  1.00  0.00     0.183 C 
BRANCH  14  15
HETATM   15  N   UNL     1     -41.991 -48.790  10.990  1.00  0.00    -0.302 N 
HETATM   16  C   UNL     1     -43.030 -48.209  11.661  1.00  0.00     0.111 A 
HETATM   17  C   UNL     1     -43.558 -47.272  10.805  1.00  0.00     0.037 A 
HETATM   18  C   UNL     1     -42.767 -47.364   9.645  1.00  0.00     0.108 A 
HETATM   19  N   UNL     1     -41.812 -48.292   9.753  1.00  0.00    -0.310 N 
ATOM     20  HN  UNL     1     -41.113 -48.560   9.061  1.00  0.00     0.186 HD
ENDBRANCH  14  15
ENDBRANCH  12  14
ENDBRANCH  10  12
ENDBRANCH   9  10
ENDBRANCH   6   9
ENDBRANCH   1   5
BRANCH   1  21
HETATM   21  C   UNL     1     -46.523 -52.895  14.027  1.00  0.00     0.028 A 
HETATM   22  C   UNL     1     -46.532 -51.810  12.962  1.00  0.00     0.009 A 
HETATM   23  C   UNL     1     -46.521 -51.425  14.413  1.00  0.00     0.009 A 
ENDBRANCH   1  21
TORSDOF 7
ENDMDL
MODEL 5
REMARK VINA RESULT:      -5.7      4.129      7.280
REMARK  7 active torsions:
REMARK  status: ('A' for Active; 'I' for Inactive)
REMARK    1  A    between atoms: C_2  and  C_3 
REMARK    2  A    between atoms: C_2  and  N_10 
REMARK    3  A    between atoms: C_3  and  N_4 
REMARK    4  A    between atoms: N_10  and  C_11 
REMARK    5  A    between atoms: C_11  and  C_12 
REMARK       I    between atoms: C_12  and  N_14 
REMARK    6  A    between atoms: N_14  and  C_15 
REMARK    7  A    between atoms: C_15  and  C_19 
ROOT
HETATM    1  C   UNL     1     -45.253 -53.885  14.313  1.00  0.00     0.122 C 
HETATM    2  C   UNL     1     -45.611 -55.250  13.713  1.00  0.00     0.055 C 
HETATM    3  C   UNL     1     -44.988 -53.996  15.775  1.00  0.00     0.091 C 
HETATM    4  N   UNL     1     -44.809 -54.056  16.925  1.00  0.00    -0.195 NA
ENDROOT
BRANCH   1   5
HETATM    5  N   UNL     1     -44.114 -53.296  13.606  1.00  0.00    -0.338 N 
HETATM    6  C   UNL     1     -42.840 -53.823  13.662  1.00  0.00     0.247 C 
HETATM    7  O   UNL     1     -42.543 -54.812  14.322  1.00  0.00    -0.272 OA
HETATM    8  H   UNL     1     -44.232 -52.475  13.020  1.00  0.00     0.164 HD
BRANCH   6   9
HETATM    9  C   UNL     1     -41.789 -53.032  12.880  1.00  0.00     0.372 C 
BRANCH   9  10
HETATM   10  N   UNL     1     -42.434 -51.990  12.049  1.00  0.00     0.098 N 
HETATM   11  H   UNL     1     -42.210 -52.203  11.072  1.00  0.00     0.317 HD
BRANCH  10  12
HETATM   12  C   UNL     1     -41.898 -50.632  12.342  1.00  0.00     0.236 C 
HETATM   13  C   UNL     1     -43.067 -49.829  12.930  1.00  0.00     0.044 C 
BRANCH  12  14
HETATM   14  C   UNL     1     -40.690 -50.665  13.304  1.00  0.00     0.183 C 
BRANCH  14  15
HETATM   15  N   UNL     1     -39.394 -50.565  12.664  1.00  0.00    -0.302 N 
HETATM   16  C   UNL     1     -39.062 -49.730  11.635  1.00  0.00     0.111 A 
HETATM   17  C   UNL     1     -37.711 -49.886  11.439  1.00  0.00     0.037 A 
HETATM   18  C   UNL     1     -37.319 -50.835  12.401  1.00  0.00     0.108 A 
HETATM   19  N   UNL     1     -38.345 -51.255  13.148  1.00  0.00    -0.310 N 
ATOM     20  HN  UNL     1     -38.334 -51.938  13.905  1.00  0.00     0.186 HD
ENDBRANCH  14  15
ENDBRANCH  12  14
ENDBRANCH  10  12
ENDBRANCH   9  10
ENDBRANCH   6   9
ENDBRANCH   1   5
BRANCH   1  21
HETATM   21  C   UNL     1     -46.410 -52.882  14.255  1.00  0.00     0.028 A 
HETATM   22  C   UNL     1     -46.466 -51.754  13.236  1.00  0.00     0.009 A 
HETATM   23  C   UNL     1     -46.282 -51.432  14.691  1.00  0.00     0.009 A 
ENDBRANCH   1  21
TORSDOF 7
ENDMDL
MODEL 6
REMARK VINA RESULT:      -5.6      4.805      7.565
REMARK  7 active torsions:
REMARK  status: ('A' for Active; 'I' for Inactive)
REMARK    1  A    between atoms: C_2  and  C_3 
REMARK    2  A    between atoms: C_2  and  N_10 
REMARK    3  A    between atoms: C_3  and  N_4 
REMARK    4  A    between atoms: N_10  and  C_11 
REMARK    5  A    between atoms: C_11  and  C_12 
REMARK       I    between atoms: C_12  and  N_14 
REMARK    6  A    between atoms: N_14  and  C_15 
REMARK    7  A    between atoms: C_15  and  C_19 
ROOT
HETATM    1  C   UNL     1     -45.403 -53.875  14.837  1.00  0.00     0.122 C 
HETATM    2  C   UNL     1     -45.993 -55.024  14.009  1.00  0.00     0.055 C 
HETATM    3  C   UNL     1     -45.542 -54.141  16.295  1.00  0.00     0.091 C 
HETATM    4  N   UNL     1     -45.669 -54.315  17.441  1.00  0.00    -0.195 NA
ENDROOT
BRANCH   1   5
HETATM    5  N   UNL     1     -44.007 -53.639  14.465  1.00  0.00    -0.338 N 
HETATM    6  C   UNL     1     -43.013 -54.581  14.638  1.00  0.00     0.247 C 
HETATM    7  O   UNL     1     -43.203 -55.684  15.136  1.00  0.00    -0.272 OA
HETATM    8  H   UNL     1     -43.722 -52.763  14.039  1.00  0.00     0.164 HD
BRANCH   6   9
HETATM    9  C   UNL     1     -41.617 -54.116  14.219  1.00  0.00     0.372 C 
BRANCH   9  10
HETATM   10  N   UNL     1     -41.542 -53.950  12.750  1.00  0.00     0.098 N 
HETATM   11  H   UNL     1     -40.914 -54.678  12.396  1.00  0.00     0.317 HD
BRANCH  10  12
HETATM   12  C   UNL     1     -40.958 -52.635  12.366  1.00  0.00     0.236 C 
HETATM   13  C   UNL     1     -42.133 -51.648  12.306  1.00  0.00     0.044 C 
BRANCH  12  14
HETATM   14  C   UNL     1     -39.866 -52.160  13.350  1.00  0.00     0.183 C 
BRANCH  14  15
HETATM   15  N   UNL     1     -39.144 -50.973  12.937  1.00  0.00    -0.302 N 
HETATM   16  C   UNL     1     -38.660 -49.994  13.758  1.00  0.00     0.111 A 
HETATM   17  C   UNL     1     -37.944 -49.142  12.952  1.00  0.00     0.037 A 
HETATM   18  C   UNL     1     -38.055 -49.694  11.663  1.00  0.00     0.108 A 
HETATM   19  N   UNL     1     -38.790 -50.810  11.649  1.00  0.00    -0.310 N 
ATOM     20  HN  UNL     1     -39.027 -51.398  10.851  1.00  0.00     0.186 HD
ENDBRANCH  14  15
ENDBRANCH  12  14
ENDBRANCH  10  12
ENDBRANCH   9  10
ENDBRANCH   6   9
ENDBRANCH   1   5
BRANCH   1  21
HETATM   21  C   UNL     1     -46.165 -52.557  14.659  1.00  0.00     0.028 A 
HETATM   22  C   UNL     1     -46.379 -51.911  13.299  1.00  0.00     0.009 A 
HETATM   23  C   UNL     1     -45.489 -51.242  14.306  1.00  0.00     0.009 A 
ENDBRANCH   1  21
TORSDOF 7
ENDMDL
MODEL 7
REMARK VINA RESULT:      -5.6      2.566      5.880
REMARK  7 active torsions:
REMARK  status: ('A' for Active; 'I' for Inactive)
REMARK    1  A    between atoms: C_2  and  C_3 
REMARK    2  A    between atoms: C_2  and  N_10 
REMARK    3  A    between atoms: C_3  and  N_4 
REMARK    4  A    between atoms: N_10  and  C_11 
REMARK    5  A    between atoms: C_11  and  C_12 
REMARK       I    between atoms: C_12  and  N_14 
REMARK    6  A    between atoms: N_14  and  C_15 
REMARK    7  A    between atoms: C_15  and  C_19 
ROOT
HETATM    1  C   UNL     1     -44.714 -52.265  13.222  1.00  0.00     0.122 C 
HETATM    2  C   UNL     1     -44.683 -50.938  13.991  1.00  0.00     0.055 C 
HETATM    3  C   UNL     1     -45.917 -52.349  12.349  1.00  0.00     0.091 C 
HETATM    4  N   UNL     1     -46.869 -52.449  11.683  1.00  0.00    -0.195 NA
ENDROOT
BRANCH   1   5
HETATM    5  N   UNL     1     -43.480 -52.441  12.454  1.00  0.00    -0.338 N 
HETATM    6  C   UNL     1     -42.236 -52.541  13.041  1.00  0.00     0.247 C 
HETATM    7  O   UNL     1     -42.049 -52.469  14.250  1.00  0.00    -0.272 OA
HETATM    8  H   UNL     1     -43.503 -52.519  11.441  1.00  0.00     0.164 HD
BRANCH   6   9
HETATM    9  C   UNL     1     -41.075 -52.682  12.054  1.00  0.00     0.372 C 
BRANCH   9  10
HETATM   10  N   UNL     1     -40.872 -51.421  11.306  1.00  0.00     0.098 N 
HETATM   11  H   UNL     1     -40.193 -51.618  10.564  1.00  0.00     0.317 HD
BRANCH  10  12
HETATM   12  C   UNL     1     -40.292 -50.351  12.165  1.00  0.00     0.236 C 
HETATM   13  C   UNL     1     -38.875 -50.816  12.528  1.00  0.00     0.044 C 
BRANCH  12  14
HETATM   14  C   UNL     1     -40.278 -48.973  11.469  1.00  0.00     0.183 C 
BRANCH  14  15
HETATM   15  N   UNL     1     -41.570 -48.509  11.002  1.00  0.00    -0.302 N 
HETATM   16  C   UNL     1     -42.644 -48.188  11.782  1.00  0.00     0.111 A 
HETATM   17  C   UNL     1     -43.596 -47.682  10.930  1.00  0.00     0.037 A 
HETATM   18  C   UNL     1     -42.998 -47.737   9.657  1.00  0.00     0.108 A 
HETATM   19  N   UNL     1     -41.763 -48.245   9.697  1.00  0.00    -0.310 N 
ATOM     20  HN  UNL     1     -41.119 -48.397   8.921  1.00  0.00     0.186 HD
ENDBRANCH  14  15
ENDBRANCH  12  14
ENDBRANCH  10  12
ENDBRANCH   9  10
ENDBRANCH   6   9
ENDBRANCH   1   5
BRANCH   1  21
HETATM   21  C   UNL     1     -44.874 -53.484  14.137  1.00  0.00     0.028 A 
HETATM   22  C   UNL     1     -45.122 -54.885  13.600  1.00  0.00     0.009 A 
HETATM   23  C   UNL     1     -46.203 -54.184  14.371  1.00  0.00     0.009 A 
ENDBRANCH   1  21
TORSDOF 7
ENDMDL
MODEL 8
REMARK VINA RESULT:      -5.6      2.547      3.184
REMARK  7 active torsions:
REMARK  status: ('A' for Active; 'I' for Inactive)
REMARK    1  A    between atoms: C_2  and  C_3 
REMARK    2  A    between atoms: C_2  and  N_10 
REMARK    3  A    between atoms: C_3  and  N_4 
REMARK    4  A    between atoms: N_10  and  C_11 
REMARK    5  A    between atoms: C_11  and  C_12 
REMARK       I    between atoms: C_12  and  N_14 
REMARK    6  A    between atoms: N_14  and  C_15 
REMARK    7  A    between atoms: C_15  and  C_19 
ROOT
HETATM    1  C   UNL     1     -41.819 -46.430  11.059  1.00  0.00     0.122 C 
HETATM    2  C   UNL     1     -42.290 -46.029  12.463  1.00  0.00     0.055 C 
HETATM    3  C   UNL     1     -40.916 -45.396  10.482  1.00  0.00     0.091 C 
HETATM    4  N   UNL     1     -40.232 -44.584  10.000  1.00  0.00    -0.195 NA
ENDROOT
BRANCH   1   5
HETATM    5  N   UNL     1     -41.178 -47.746  11.089  1.00  0.00    -0.338 N 
HETATM    6  C   UNL     1     -40.009 -47.997  11.776  1.00  0.00     0.247 C 
HETATM    7  O   UNL     1     -39.392 -47.142  12.401  1.00  0.00    -0.272 OA
HETATM    8  H   UNL     1     -41.595 -48.539  10.611  1.00  0.00     0.164 HD
BRANCH   6   9
HETATM    9  C   UNL     1     -39.489 -49.430  11.645  1.00  0.00     0.372 C 
BRANCH   9  10
HETATM   10  N   UNL     1     -40.503 -50.295  11.000  1.00  0.00     0.098 N 
HETATM   11  H   UNL     1     -41.324 -49.709  10.814  1.00  0.00     0.317 HD
BRANCH  10  12
HETATM   12  C   UNL     1     -40.941 -51.402  11.894  1.00  0.00     0.236 C 
HETATM   13  C   UNL     1     -39.807 -51.605  12.909  1.00  0.00     0.044 C 
BRANCH  12  14
HETATM   14  C   UNL     1     -42.284 -51.104  12.595  1.00  0.00     0.183 C 
BRANCH  14  15
HETATM   15  N   UNL     1     -43.058 -52.275  12.959  1.00  0.00    -0.302 N 
HETATM   16  C   UNL     1     -43.491 -52.600  14.213  1.00  0.00     0.111 A 
HETATM   17  C   UNL     1     -44.285 -53.712  14.065  1.00  0.00     0.037 A 
HETATM   18  C   UNL     1     -44.269 -53.978  12.683  1.00  0.00     0.108 A 
HETATM   19  N   UNL     1     -43.518 -53.106  12.006  1.00  0.00    -0.310 N 
ATOM     20  HN  UNL     1     -43.336 -53.076  11.003  1.00  0.00     0.186 HD
ENDBRANCH  14  15
ENDBRANCH  12  14
ENDBRANCH  10  12
ENDBRANCH   9  10
ENDBRANCH   6   9
ENDBRANCH   1   5
BRANCH   1  21
HETATM   21  C   UNL     1     -42.961 -46.488  10.038  1.00  0.00     0.028 A 
HETATM   22  C   UNL     1     -44.124 -47.461  10.164  1.00  0.00     0.009 A 
HETATM   23  C   UNL     1     -43.137 -47.624   9.044  1.00  0.00     0.009 A 
ENDBRANCH   1  21
TORSDOF 7
ENDMDL
MODEL 9
REMARK VINA RESULT:      -5.5      3.889      7.115
REMARK  7 active torsions:
REMARK  status: ('A' for Active; 'I' for Inactive)
REMARK    1  A    between atoms: C_2  and  C_3 
REMARK    2  A    between atoms: C_2  and  N_10 
REMARK    3  A    between atoms: C_3  and  N_4 
REMARK    4  A    between atoms: N_10  and  C_11 
REMARK    5  A    between atoms: C_11  and  C_12 
REMARK       I    between atoms: C_12  and  N_14 
REMARK    6  A    between atoms: N_14  and  C_15 
REMARK    7  A    between atoms: C_15  and  C_19 
ROOT
HETATM    1  C   UNL     1     -45.501 -53.826  14.866  1.00  0.00     0.122 C 
HETATM    2  C   UNL     1     -46.072 -54.966  14.013  1.00  0.00     0.055 C 
HETATM    3  C   UNL     1     -45.704 -54.090  16.317  1.00  0.00     0.091 C 
HETATM    4  N   UNL     1     -45.881 -54.263  17.456  1.00  0.00    -0.195 NA
ENDROOT
BRANCH   1   5
HETATM    5  N   UNL     1     -44.087 -53.609  14.552  1.00  0.00    -0.338 N 
HETATM    6  C   UNL     1     -43.125 -54.586  14.706  1.00  0.00     0.247 C 
HETATM    7  O   UNL     1     -43.360 -55.708  15.138  1.00  0.00    -0.272 OA
HETATM    8  H   UNL     1     -43.766 -52.720  14.183  1.00  0.00     0.164 HD
BRANCH   6   9
HETATM    9  C   UNL     1     -41.704 -54.139  14.358  1.00  0.00     0.372 C 
BRANCH   9  10
HETATM   10  N   UNL     1     -41.581 -52.667  14.461  1.00  0.00     0.098 N 
HETATM   11  H   UNL     1     -42.416 -52.263  14.023  1.00  0.00     0.317 HD
BRANCH  10  12
HETATM   12  C   UNL     1     -40.398 -52.153  13.717  1.00  0.00     0.236 C 
HETATM   13  C   UNL     1     -39.251 -53.129  14.012  1.00  0.00     0.044 C 
BRANCH  12  14
HETATM   14  C   UNL     1     -40.659 -52.023  12.201  1.00  0.00     0.183 C 
BRANCH  14  15
HETATM   15  N   UNL     1     -41.081 -50.708  11.761  1.00  0.00    -0.302 N 
HETATM   16  C   UNL     1     -42.021 -49.918  12.360  1.00  0.00     0.111 A 
HETATM   17  C   UNL     1     -42.002 -48.723  11.681  1.00  0.00     0.037 A 
HETATM   18  C   UNL     1     -41.015 -48.892  10.692  1.00  0.00     0.108 A 
HETATM   19  N   UNL     1     -40.454 -50.104  10.735  1.00  0.00    -0.310 N 
ATOM     20  HN  UNL     1     -39.724 -50.481  10.133  1.00  0.00     0.186 HD
ENDBRANCH  14  15
ENDBRANCH  12  14
ENDBRANCH  10  12
ENDBRANCH   9  10
ENDBRANCH   6   9
ENDBRANCH   1   5
BRANCH   1  21
HETATM   21  C   UNL     1     -46.236 -52.497  14.659  1.00  0.00     0.028 A 
HETATM   22  C   UNL     1     -46.455 -51.887  13.283  1.00  0.00     0.009 A 
HETATM   23  C   UNL     1     -45.537 -51.208  14.258  1.00  0.00     0.009 A 
ENDBRANCH   1  21
TORSDOF 7
ENDMDL
