MODEL 1
REMARK VINA RESULT:      -5.3      0.000      0.000
REMARK  4 active torsions:
REMARK  status: ('A' for Active; 'I' for Inactive)
REMARK    1  A    between atoms: C_5  and  C_6 
REMARK    2  A    between atoms: C_6  and  C_7 
REMARK    3  A    between atoms: C_7  and  N_8 
REMARK       I    between atoms: N_8  and  C_9 
REMARK    4  A    between atoms: C_9  and  C_11 
ROOT
HETATM    1  C   UNL     1     -41.447 -49.448  11.493  1.00  0.00     0.128 C 
ENDROOT
BRANCH   1   2
HETATM    2  C   UNL     1     -42.378 -48.312  11.932  1.00  0.00     0.077 C 
BRANCH   2   3
HETATM    3  C   UNL     1     -43.098 -47.683  10.783  1.00  0.00     0.018 A 
HETATM    4  N   UNL     1     -44.409 -48.051  10.533  1.00  0.00    -0.357 N 
HETATM    5  C   UNL     1     -44.875 -47.383   9.498  1.00  0.00     0.046 A 
ATOM      6  HN  UNL     1     -44.937 -48.738  11.070  1.00  0.00     0.166 HD
HETATM    7  C   UNL     1     -46.250 -47.530   8.952  1.00  0.00     0.076 C 
HETATM    8  S   UNL     1     -43.777 -46.279   8.773  1.00  0.00    -0.087 SA
HETATM    9  C   UNL     1     -42.590 -46.728   9.922  1.00  0.00     0.076 A 
ENDBRANCH   2   3
ENDBRANCH   1   2
BRANCH   1  10
HETATM   10  N   UNL     1     -41.920 -50.761  11.903  1.00  0.00    -0.359 N 
HETATM   11  C   UNL     1     -41.031 -51.769  12.204  1.00  0.00     0.246 C 
HETATM   12  O   UNL     1     -39.814 -51.594  12.254  1.00  0.00    -0.271 OA
HETATM   13  H   UNL     1     -42.852 -51.061  11.630  1.00  0.00     0.162 HD
BRANCH  11  14
HETATM   14  C   UNL     1     -41.688 -53.104  12.585  1.00  0.00     0.213 C 
HETATM   15  C   UNL     1     -43.207 -53.019  12.499  1.00  0.00     0.043 C 
HETATM   16  C   UNL     1     -43.708 -53.910  13.610  1.00  0.00     0.029 C 
HETATM   17  C   UNL     1     -42.455 -54.489  14.228  1.00  0.00     0.168 C 
HETATM   18  O   UNL     1     -41.398 -53.573  13.904  1.00  0.00    -0.376 OA
ENDBRANCH  11  14
ENDBRANCH   1  10
TORSDOF 4
ENDMDL
MODEL 2
REMARK VINA RESULT:      -5.2      4.551      5.739
REMARK  4 active torsions:
REMARK  status: ('A' for Active; 'I' for Inactive)
REMARK    1  A    between atoms: C_5  and  C_6 
REMARK    2  A    between atoms: C_6  and  C_7 
REMARK    3  A    between atoms: C_7  and  N_8 
REMARK       I    between atoms: N_8  and  C_9 
REMARK    4  A    between atoms: C_9  and  C_11 
ROOT
HETATM    1  C   UNL     1     -42.332 -53.386  13.050  1.00  0.00     0.128 C 
ENDROOT
BRANCH   1   2
HETATM    2  C   UNL     1     -41.865 -52.229  12.160  1.00  0.00     0.077 C 
BRANCH   2   3
HETATM    3  C   UNL     1     -40.515 -51.717  12.545  1.00  0.00     0.018 A 
HETATM    4  N   UNL     1     -39.796 -50.968  11.628  1.00  0.00    -0.357 N 
HETATM    5  C   UNL     1     -38.647 -50.596  12.152  1.00  0.00     0.046 A 
ATOM      6  HN  UNL     1     -40.111 -50.738  10.686  1.00  0.00     0.166 HD
HETATM    7  C   UNL     1     -37.626 -49.780  11.443  1.00  0.00     0.076 C 
HETATM    8  S   UNL     1     -38.364 -51.116  13.764  1.00  0.00    -0.087 SA
HETATM    9  C   UNL     1     -39.887 -51.898  13.763  1.00  0.00     0.076 A 
ENDBRANCH   2   3
ENDBRANCH   1   2
BRANCH   1  10
HETATM   10  N   UNL     1     -43.581 -53.105  13.740  1.00  0.00    -0.359 N 
HETATM   11  C   UNL     1     -44.768 -53.653  13.304  1.00  0.00     0.246 C 
HETATM   12  O   UNL     1     -44.827 -54.482  12.397  1.00  0.00    -0.271 OA
HETATM   13  H   UNL     1     -43.663 -52.256  14.292  1.00  0.00     0.162 HD
BRANCH  11  14
HETATM   14  C   UNL     1     -46.000 -53.232  14.117  1.00  0.00     0.213 C 
HETATM   15  C   UNL     1     -46.391 -51.788  13.823  1.00  0.00     0.043 C 
HETATM   16  C   UNL     1     -46.921 -51.256  15.134  1.00  0.00     0.029 C 
HETATM   17  C   UNL     1     -46.850 -52.434  16.079  1.00  0.00     0.168 C 
HETATM   18  O   UNL     1     -45.854 -53.314  15.537  1.00  0.00    -0.376 OA
ENDBRANCH  11  14
ENDBRANCH   1  10
TORSDOF 4
ENDMDL
MODEL 3
REMARK VINA RESULT:      -5.1      2.764      3.889
REMARK  4 active torsions:
REMARK  status: ('A' for Active; 'I' for Inactive)
REMARK    1  A    between atoms: C_5  and  C_6 
REMARK    2  A    between atoms: C_6  and  C_7 
REMARK    3  A    between atoms: C_7  and  N_8 
REMARK       I    between atoms: N_8  and  C_9 
REMARK    4  A    between atoms: C_9  and  C_11 
ROOT
HETATM    1  C   UNL     1     -42.246 -52.122  12.227  1.00  0.00     0.128 C 
ENDROOT
BRANCH   1   2
HETATM    2  C   UNL     1     -41.255 -51.183  12.924  1.00  0.00     0.077 C 
BRANCH   2   3
HETATM    3  C   UNL     1     -41.131 -49.864  12.232  1.00  0.00     0.018 A 
HETATM    4  N   UNL     1     -42.066 -49.523  11.268  1.00  0.00    -0.357 N 
HETATM    5  C   UNL     1     -41.802 -48.327  10.787  1.00  0.00     0.046 A 
ATOM      6  HN  UNL     1     -42.845 -50.113  10.974  1.00  0.00     0.166 HD
HETATM    7  C   UNL     1     -42.604 -47.649   9.734  1.00  0.00     0.076 C 
HETATM    8  S   UNL     1     -40.430 -47.543  11.460  1.00  0.00    -0.087 SA
HETATM    9  C   UNL     1     -40.166 -48.903  12.467  1.00  0.00     0.076 A 
ENDBRANCH   2   3
ENDBRANCH   1   2
BRANCH   1  10
HETATM   10  N   UNL     1     -43.590 -52.040  12.777  1.00  0.00    -0.359 N 
HETATM   11  C   UNL     1     -44.461 -53.102  12.676  1.00  0.00     0.246 C 
HETATM   12  O   UNL     1     -44.128 -54.199  12.228  1.00  0.00    -0.271 OA
HETATM   13  H   UNL     1     -44.019 -51.127  12.903  1.00  0.00     0.162 HD
BRANCH  11  14
HETATM   14  C   UNL     1     -45.851 -52.844  13.274  1.00  0.00     0.213 C 
HETATM   15  C   UNL     1     -46.022 -51.382  13.668  1.00  0.00     0.043 C 
HETATM   16  C   UNL     1     -46.896 -51.413  14.901  1.00  0.00     0.029 C 
HETATM   17  C   UNL     1     -47.212 -52.878  15.105  1.00  0.00     0.168 C 
HETATM   18  O   UNL     1     -46.164 -53.602  14.445  1.00  0.00    -0.376 OA
ENDBRANCH  11  14
ENDBRANCH   1  10
TORSDOF 4
ENDMDL
MODEL 4
REMARK VINA RESULT:      -5.1      3.143      6.353
REMARK  4 active torsions:
REMARK  status: ('A' for Active; 'I' for Inactive)
REMARK    1  A    between atoms: C_5  and  C_6 
REMARK    2  A    between atoms: C_6  and  C_7 
REMARK    3  A    between atoms: C_7  and  N_8 
REMARK       I    between atoms: N_8  and  C_9 
REMARK    4  A    between atoms: C_9  and  C_11 
ROOT
HETATM    1  C   UNL     1     -41.118 -50.716  12.086  1.00  0.00     0.128 C 
ENDROOT
BRANCH   1   2
HETATM    2  C   UNL     1     -41.568 -52.166  11.872  1.00  0.00     0.077 C 
BRANCH   2   3
HETATM    3  C   UNL     1     -42.567 -52.613  12.890  1.00  0.00     0.018 A 
HETATM    4  N   UNL     1     -43.422 -53.656  12.576  1.00  0.00    -0.357 N 
HETATM    5  C   UNL     1     -44.212 -53.915  13.597  1.00  0.00     0.046 A 
ATOM      6  HN  UNL     1     -43.439 -54.151  11.685  1.00  0.00     0.166 HD
HETATM    7  C   UNL     1     -45.256 -54.974  13.606  1.00  0.00     0.076 C 
HETATM    8  S   UNL     1     -43.974 -52.932  14.986  1.00  0.00    -0.087 SA
HETATM    9  C   UNL     1     -42.727 -52.097  14.163  1.00  0.00     0.076 A 
ENDBRANCH   2   3
ENDBRANCH   1   2
BRANCH   1  10
HETATM   10  N   UNL     1     -41.915 -49.758  11.337  1.00  0.00    -0.359 N 
HETATM   11  C   UNL     1     -41.406 -48.521  11.006  1.00  0.00     0.246 C 
HETATM   12  O   UNL     1     -40.237 -48.201  11.220  1.00  0.00    -0.271 OA
HETATM   13  H   UNL     1     -42.928 -49.825  11.365  1.00  0.00     0.162 HD
BRANCH  11  14
HETATM   14  C   UNL     1     -42.382 -47.613  10.246  1.00  0.00     0.213 C 
HETATM   15  C   UNL     1     -43.745 -47.572  10.927  1.00  0.00     0.043 C 
HETATM   16  C   UNL     1     -44.739 -47.449   9.796  1.00  0.00     0.029 C 
HETATM   17  C   UNL     1     -43.888 -47.374   8.548  1.00  0.00     0.168 C 
HETATM   18  O   UNL     1     -42.635 -47.986   8.890  1.00  0.00    -0.376 OA
ENDBRANCH  11  14
ENDBRANCH   1  10
TORSDOF 4
ENDMDL
MODEL 5
REMARK VINA RESULT:      -5.0      4.034      5.741
REMARK  4 active torsions:
REMARK  status: ('A' for Active; 'I' for Inactive)
REMARK    1  A    between atoms: C_5  and  C_6 
REMARK    2  A    between atoms: C_6  and  C_7 
REMARK    3  A    between atoms: C_7  and  N_8 
REMARK       I    between atoms: N_8  and  C_9 
REMARK    4  A    between atoms: C_9  and  C_11 
ROOT
HETATM    1  C   UNL     1     -41.598 -53.332  14.277  1.00  0.00     0.128 C 
ENDROOT
BRANCH   1   2
HETATM    2  C   UNL     1     -42.479 -53.876  13.146  1.00  0.00     0.077 C 
BRANCH   2   3
HETATM    3  C   UNL     1     -43.923 -53.543  13.333  1.00  0.00     0.018 A 
HETATM    4  N   UNL     1     -44.558 -52.757  12.386  1.00  0.00    -0.357 N 
HETATM    5  C   UNL     1     -45.822 -52.587  12.713  1.00  0.00     0.046 A 
ATOM      6  HN  UNL     1     -44.111 -52.365  11.556  1.00  0.00     0.166 HD
HETATM    7  C   UNL     1     -46.797 -51.794  11.919  1.00  0.00     0.076 C 
HETATM    8  S   UNL     1     -46.322 -53.359  14.164  1.00  0.00    -0.087 SA
HETATM    9  C   UNL     1     -44.733 -53.962  14.372  1.00  0.00     0.076 A 
ENDBRANCH   2   3
ENDBRANCH   1   2
BRANCH   1  10
HETATM   10  N   UNL     1     -40.734 -52.242  13.851  1.00  0.00    -0.359 N 
HETATM   11  C   UNL     1     -39.386 -52.444  13.656  1.00  0.00     0.246 C 
HETATM   12  O   UNL     1     -38.861 -53.556  13.719  1.00  0.00    -0.271 OA
HETATM   13  H   UNL     1     -41.014 -51.284  14.040  1.00  0.00     0.162 HD
BRANCH  11  14
HETATM   14  C   UNL     1     -38.607 -51.188  13.242  1.00  0.00     0.213 C 
HETATM   15  C   UNL     1     -39.547 -50.080  12.782  1.00  0.00     0.043 C 
HETATM   16  C   UNL     1     -38.793 -49.362  11.687  1.00  0.00     0.029 C 
HETATM   17  C   UNL     1     -37.455 -50.066  11.623  1.00  0.00     0.168 C 
HETATM   18  O   UNL     1     -37.671 -51.372  12.177  1.00  0.00    -0.376 OA
ENDBRANCH  11  14
ENDBRANCH   1  10
TORSDOF 4
ENDMDL
MODEL 6
REMARK VINA RESULT:      -5.0      3.242      6.238
REMARK  4 active torsions:
REMARK  status: ('A' for Active; 'I' for Inactive)
REMARK    1  A    between atoms: C_5  and  C_6 
REMARK    2  A    between atoms: C_6  and  C_7 
REMARK    3  A    between atoms: C_7  and  N_8 
REMARK       I    between atoms: N_8  and  C_9 
REMARK    4  A    between atoms: C_9  and  C_11 
ROOT
HETATM    1  C   UNL     1     -41.124 -51.017  12.400  1.00  0.00     0.128 C 
ENDROOT
BRANCH   1   2
HETATM    2  C   UNL     1     -41.752 -52.320  11.892  1.00  0.00     0.077 C 
BRANCH   2   3
HETATM    3  C   UNL     1     -43.016 -52.666  12.610  1.00  0.00     0.018 A 
HETATM    4  N   UNL     1     -44.069 -51.766  12.583  1.00  0.00    -0.357 N 
HETATM    5  C   UNL     1     -45.093 -52.250  13.253  1.00  0.00     0.046 A 
ATOM      6  HN  UNL     1     -44.052 -50.860  12.113  1.00  0.00     0.166 HD
HETATM    7  C   UNL     1     -46.391 -51.546  13.428  1.00  0.00     0.076 C 
HETATM    8  S   UNL     1     -44.858 -53.804  13.946  1.00  0.00    -0.087 SA
HETATM    9  C   UNL     1     -43.270 -53.832  13.308  1.00  0.00     0.076 A 
ENDBRANCH   2   3
ENDBRANCH   1   2
BRANCH   1  10
HETATM   10  N   UNL     1     -41.192 -49.937  11.429  1.00  0.00    -0.359 N 
HETATM   11  C   UNL     1     -42.160 -48.961  11.524  1.00  0.00     0.246 C 
HETATM   12  O   UNL     1     -42.936 -48.881  12.476  1.00  0.00    -0.271 OA
HETATM   13  H   UNL     1     -40.794 -50.074  10.504  1.00  0.00     0.162 HD
BRANCH  11  14
HETATM   14  C   UNL     1     -42.120 -47.912  10.404  1.00  0.00     0.213 C 
HETATM   15  C   UNL     1     -41.908 -46.511  10.965  1.00  0.00     0.043 C 
HETATM   16  C   UNL     1     -42.699 -45.605  10.051  1.00  0.00     0.029 C 
HETATM   17  C   UNL     1     -43.269 -46.531   8.999  1.00  0.00     0.168 C 
HETATM   18  O   UNL     1     -43.295 -47.835   9.596  1.00  0.00    -0.376 OA
ENDBRANCH  11  14
ENDBRANCH   1  10
TORSDOF 4
ENDMDL
MODEL 7
REMARK VINA RESULT:      -4.9      4.419      6.364
REMARK  4 active torsions:
REMARK  status: ('A' for Active; 'I' for Inactive)
REMARK    1  A    between atoms: C_5  and  C_6 
REMARK    2  A    between atoms: C_6  and  C_7 
REMARK    3  A    between atoms: C_7  and  N_8 
REMARK       I    between atoms: N_8  and  C_9 
REMARK    4  A    between atoms: C_9  and  C_11 
ROOT
HETATM    1  C   UNL     1     -41.347 -52.532  11.694  1.00  0.00     0.128 C 
ENDROOT
BRANCH   1   2
HETATM    2  C   UNL     1     -40.505 -51.519  12.479  1.00  0.00     0.077 C 
BRANCH   2   3
HETATM    3  C   UNL     1     -39.931 -52.098  13.731  1.00  0.00     0.018 A 
HETATM    4  N   UNL     1     -39.778 -53.472  13.825  1.00  0.00    -0.357 N 
HETATM    5  C   UNL     1     -39.246 -53.788  14.987  1.00  0.00     0.046 A 
ATOM      6  HN  UNL     1     -40.040 -54.141  13.101  1.00  0.00     0.166 HD
HETATM    7  C   UNL     1     -38.944 -55.177  15.424  1.00  0.00     0.076 C 
HETATM    8  S   UNL     1     -38.895 -52.465  16.026  1.00  0.00    -0.087 SA
HETATM    9  C   UNL     1     -39.502 -51.391  14.839  1.00  0.00     0.076 A 
ENDBRANCH   2   3
ENDBRANCH   1   2
BRANCH   1  10
HETATM   10  N   UNL     1     -42.773 -52.404  11.948  1.00  0.00    -0.359 N 
HETATM   11  C   UNL     1     -43.421 -53.271  12.799  1.00  0.00     0.246 C 
HETATM   12  O   UNL     1     -42.829 -54.117  13.469  1.00  0.00    -0.271 OA
HETATM   13  H   UNL     1     -43.360 -51.940  11.259  1.00  0.00     0.162 HD
BRANCH  11  14
HETATM   14  C   UNL     1     -44.931 -53.024  12.933  1.00  0.00     0.213 C 
HETATM   15  C   UNL     1     -45.234 -51.544  13.134  1.00  0.00     0.043 C 
HETATM   16  C   UNL     1     -46.436 -51.516  14.049  1.00  0.00     0.029 C 
HETATM   17  C   UNL     1     -46.776 -52.973  14.273  1.00  0.00     0.168 C 
HETATM   18  O   UNL     1     -45.568 -53.703  14.017  1.00  0.00    -0.376 OA
ENDBRANCH  11  14
ENDBRANCH   1  10
TORSDOF 4
ENDMDL
MODEL 8
REMARK VINA RESULT:      -4.9      3.431      6.667
REMARK  4 active torsions:
REMARK  status: ('A' for Active; 'I' for Inactive)
REMARK    1  A    between atoms: C_5  and  C_6 
REMARK    2  A    between atoms: C_6  and  C_7 
REMARK    3  A    between atoms: C_7  and  N_8 
REMARK       I    between atoms: N_8  and  C_9 
REMARK    4  A    between atoms: C_9  and  C_11 
ROOT
HETATM    1  C   UNL     1     -39.712 -48.102  11.927  1.00  0.00     0.128 C 
ENDROOT
BRANCH   1   2
HETATM    2  C   UNL     1     -38.897 -49.331  11.507  1.00  0.00     0.077 C 
BRANCH   2   3
HETATM    3  C   UNL     1     -39.192 -50.530  12.348  1.00  0.00     0.018 A 
HETATM    4  N   UNL     1     -40.239 -51.361  11.987  1.00  0.00    -0.357 N 
HETATM    5  C   UNL     1     -40.332 -52.365  12.834  1.00  0.00     0.046 A 
ATOM      6  HN  UNL     1     -40.849 -51.217  11.182  1.00  0.00     0.166 HD
HETATM    7  C   UNL     1     -41.348 -53.447  12.746  1.00  0.00     0.076 C 
HETATM    8  S   UNL     1     -39.175 -52.373  14.103  1.00  0.00    -0.087 SA
HETATM    9  C   UNL     1     -38.501 -50.929  13.478  1.00  0.00     0.076 A 
ENDBRANCH   2   3
ENDBRANCH   1   2
BRANCH   1  10
HETATM   10  N   UNL     1     -40.653 -47.668  10.907  1.00  0.00    -0.359 N 
HETATM   11  C   UNL     1     -41.918 -48.207  10.837  1.00  0.00     0.246 C 
HETATM   12  O   UNL     1     -42.359 -48.988  11.680  1.00  0.00    -0.271 OA
HETATM   13  H   UNL     1     -40.299 -47.260  10.047  1.00  0.00     0.162 HD
BRANCH  11  14
HETATM   14  C   UNL     1     -42.777 -47.669   9.684  1.00  0.00     0.213 C 
HETATM   15  C   UNL     1     -42.598 -46.165   9.515  1.00  0.00     0.043 C 
HETATM   16  C   UNL     1     -43.952 -45.661   9.074  1.00  0.00     0.029 C 
HETATM   17  C   UNL     1     -44.805 -46.906   8.968  1.00  0.00     0.168 C 
HETATM   18  O   UNL     1     -44.184 -47.881   9.819  1.00  0.00    -0.376 OA
ENDBRANCH  11  14
ENDBRANCH   1  10
TORSDOF 4
ENDMDL
MODEL 9
REMARK VINA RESULT:      -4.9      1.428      1.672
REMARK  4 active torsions:
REMARK  status: ('A' for Active; 'I' for Inactive)
REMARK    1  A    between atoms: C_5  and  C_6 
REMARK    2  A    between atoms: C_6  and  C_7 
REMARK    3  A    between atoms: C_7  and  N_8 
REMARK       I    between atoms: N_8  and  C_9 
REMARK    4  A    between atoms: C_9  and  C_11 
ROOT
HETATM    1  C   UNL     1     -41.529 -48.691  13.401  1.00  0.00     0.128 C 
ENDROOT
BRANCH   1   2
HETATM    2  C   UNL     1     -42.888 -48.063  13.072  1.00  0.00     0.077 C 
BRANCH   2   3
HETATM    3  C   UNL     1     -42.896 -47.374  11.746  1.00  0.00     0.018 A 
HETATM    4  N   UNL     1     -43.270 -48.091  10.621  1.00  0.00    -0.357 N 
HETATM    5  C   UNL     1     -43.230 -47.315   9.558  1.00  0.00     0.046 A 
ATOM      6  HN  UNL     1     -43.536 -49.076  10.617  1.00  0.00     0.166 HD
HETATM    7  C   UNL     1     -43.569 -47.760   8.180  1.00  0.00     0.076 C 
HETATM    8  S   UNL     1     -42.749 -45.691   9.843  1.00  0.00    -0.087 SA
HETATM    9  C   UNL     1     -42.579 -46.050  11.508  1.00  0.00     0.076 A 
ENDBRANCH   2   3
ENDBRANCH   1   2
BRANCH   1  10
HETATM   10  N   UNL     1     -41.513 -50.135  13.226  1.00  0.00    -0.359 N 
HETATM   11  C   UNL     1     -41.128 -50.697  12.029  1.00  0.00     0.246 C 
HETATM   12  O   UNL     1     -40.677 -50.035  11.095  1.00  0.00    -0.271 OA
HETATM   13  H   UNL     1     -42.106 -50.713  13.815  1.00  0.00     0.162 HD
BRANCH  11  14
HETATM   14  C   UNL     1     -41.198 -52.230  11.994  1.00  0.00     0.213 C 
HETATM   15  C   UNL     1     -42.519 -52.737  12.560  1.00  0.00     0.043 C 
HETATM   16  C   UNL     1     -42.172 -54.036  13.248  1.00  0.00     0.029 C 
HETATM   17  C   UNL     1     -40.693 -54.219  12.992  1.00  0.00     0.168 C 
HETATM   18  O   UNL     1     -40.175 -52.907  12.727  1.00  0.00    -0.376 OA
ENDBRANCH  11  14
ENDBRANCH   1  10
TORSDOF 4
ENDMDL
