MODEL 1
REMARK VINA RESULT:      -6.9      0.000      0.000
REMARK  5 active torsions:
REMARK  status: ('A' for Active; 'I' for Inactive)
REMARK    1  A    between atoms: N_11  and  C_12 
REMARK    2  A    between atoms: C_12  and  C_13 
REMARK       I    between atoms: C_13  and  N_15 
REMARK    3  A    between atoms: N_15  and  C_16 
REMARK    4  A    between atoms: C_16  and  C_17 
REMARK    5  A    between atoms: C_17  and  C_18 
ROOT
HETATM    1  C   UNL     1     -43.998 -50.427  13.960  1.00  0.00     0.013 C 
HETATM    2  C   UNL     1     -45.012 -51.568  14.105  1.00  0.00     0.019 C 
HETATM    3  C   UNL     1     -45.935 -51.307  15.305  1.00  0.00     0.007 C 
HETATM    4  C   UNL     1     -46.994 -52.397  15.454  1.00  0.00     0.001 C 
HETATM    5  C   UNL     1     -46.388 -53.798  15.482  1.00  0.00     0.003 C 
HETATM    6  C   UNL     1     -45.473 -54.054  14.278  1.00  0.00     0.041 C 
HETATM    7  C   UNL     1     -44.382 -52.980  14.179  1.00  0.00     0.119 C 
HETATM    8  N   UNL     1     -43.430 -53.163  15.260  1.00  0.00    -0.324 N 
HETATM    9  C   UNL     1     -42.206 -53.590  14.806  1.00  0.00     0.326 C 
HETATM   10  O   UNL     1     -41.307 -54.003  15.519  1.00  0.00    -0.247 OA
HETATM   11  N   UNL     1     -42.189 -53.491  13.455  1.00  0.00    -0.259 N 
HETATM   12  C   UNL     1     -43.440 -53.214  12.977  1.00  0.00     0.257 C 
HETATM   13  O   UNL     1     -43.761 -53.118  11.802  1.00  0.00    -0.270 OA
HETATM   14  H   UNL     1     -43.663 -53.239  16.242  1.00  0.00     0.165 HD
ENDROOT
BRANCH  11  15
HETATM   15  C   UNL     1     -40.978 -53.440  12.670  1.00  0.00     0.239 C 
BRANCH  15  16
HETATM   16  C   UNL     1     -40.434 -52.050  12.398  1.00  0.00     0.236 C 
HETATM   17  O   UNL     1     -39.355 -51.692  12.876  1.00  0.00    -0.272 OA
HETATM   18  N   UNL     1     -41.104 -51.295  11.459  1.00  0.00    -0.359 N 
HETATM   19  H   UNL     1     -41.986 -51.620  11.074  1.00  0.00     0.162 HD
BRANCH  18  20
HETATM   20  C   UNL     1     -40.562 -49.994  11.115  1.00  0.00     0.128 C 
BRANCH  20  21
HETATM   21  C   UNL     1     -41.233 -48.807  11.795  1.00  0.00     0.076 C 
BRANCH  21  22
HETATM   22  C   UNL     1     -42.245 -48.221  10.840  1.00  0.00     0.010 A 
HETATM   23  C   UNL     1     -43.507 -47.834  11.288  1.00  0.00     0.025 A 
HETATM   24  C   UNL     1     -44.460 -47.441  10.351  1.00  0.00     0.003 A 
HETATM   25  C   UNL     1     -44.133 -47.445   9.002  1.00  0.00     0.017 A 
HETATM   26  C   UNL     1     -42.854 -47.833   8.642  1.00  0.00     0.088 A 
HETATM   27  N   UNL     1     -41.908 -48.217   9.528  1.00  0.00    -0.369 N 
ATOM     28  HN  UNL     1     -40.976 -48.492   9.219  1.00  0.00     0.165 HD
ENDBRANCH  21  22
ENDBRANCH  20  21
ENDBRANCH  18  20
ENDBRANCH  15  16
ENDBRANCH  11  15
TORSDOF 5
ENDMDL
MODEL 2
REMARK VINA RESULT:      -6.5      1.408      2.011
REMARK  5 active torsions:
REMARK  status: ('A' for Active; 'I' for Inactive)
REMARK    1  A    between atoms: N_11  and  C_12 
REMARK    2  A    between atoms: C_12  and  C_13 
REMARK       I    between atoms: C_13  and  N_15 
REMARK    3  A    between atoms: N_15  and  C_16 
REMARK    4  A    between atoms: C_16  and  C_17 
REMARK    5  A    between atoms: C_17  and  C_18 
ROOT
HETATM    1  C   UNL     1     -43.957 -50.430  14.020  1.00  0.00     0.013 C 
HETATM    2  C   UNL     1     -44.980 -51.562  14.169  1.00  0.00     0.019 C 
HETATM    3  C   UNL     1     -45.888 -51.298  15.379  1.00  0.00     0.007 C 
HETATM    4  C   UNL     1     -46.956 -52.380  15.534  1.00  0.00     0.001 C 
HETATM    5  C   UNL     1     -46.363 -53.786  15.550  1.00  0.00     0.003 C 
HETATM    6  C   UNL     1     -45.462 -54.045  14.336  1.00  0.00     0.041 C 
HETATM    7  C   UNL     1     -44.362 -52.980  14.231  1.00  0.00     0.119 C 
HETATM    8  N   UNL     1     -43.402 -53.177  15.302  1.00  0.00    -0.324 N 
HETATM    9  C   UNL     1     -42.186 -53.613  14.835  1.00  0.00     0.326 C 
HETATM   10  O   UNL     1     -41.284 -54.038  15.537  1.00  0.00    -0.247 OA
HETATM   11  N   UNL     1     -42.181 -53.507  13.484  1.00  0.00    -0.259 N 
HETATM   12  C   UNL     1     -43.434 -53.217  13.019  1.00  0.00     0.257 C 
HETATM   13  O   UNL     1     -43.766 -53.113  11.847  1.00  0.00    -0.270 OA
HETATM   14  H   UNL     1     -43.625 -53.255  16.286  1.00  0.00     0.165 HD
ENDROOT
BRANCH  11  15
HETATM   15  C   UNL     1     -40.977 -53.464  12.687  1.00  0.00     0.239 C 
BRANCH  15  16
HETATM   16  C   UNL     1     -40.419 -52.078  12.422  1.00  0.00     0.236 C 
HETATM   17  O   UNL     1     -39.356 -51.719  12.934  1.00  0.00    -0.272 OA
HETATM   18  N   UNL     1     -41.054 -51.330  11.453  1.00  0.00    -0.359 N 
HETATM   19  H   UNL     1     -41.923 -51.656  11.041  1.00  0.00     0.162 HD
BRANCH  18  20
HETATM   20  C   UNL     1     -40.495 -50.034  11.116  1.00  0.00     0.128 C 
BRANCH  20  21
HETATM   21  C   UNL     1     -41.496 -48.885  11.070  1.00  0.00     0.076 C 
BRANCH  21  22
HETATM   22  C   UNL     1     -40.750 -47.595  11.312  1.00  0.00     0.010 A 
HETATM   23  C   UNL     1     -40.162 -47.332  12.548  1.00  0.00     0.025 A 
HETATM   24  C   UNL     1     -39.616 -46.071  12.776  1.00  0.00     0.003 A 
HETATM   25  C   UNL     1     -39.672 -45.111  11.774  1.00  0.00     0.017 A 
HETATM   26  C   UNL     1     -40.265 -45.457  10.573  1.00  0.00     0.088 A 
HETATM   27  N   UNL     1     -40.799 -46.672  10.320  1.00  0.00    -0.369 N 
ATOM     28  HN  UNL     1     -41.224 -46.886   9.418  1.00  0.00     0.165 HD
ENDBRANCH  21  22
ENDBRANCH  20  21
ENDBRANCH  18  20
ENDBRANCH  15  16
ENDBRANCH  11  15
TORSDOF 5
ENDMDL
MODEL 3
REMARK VINA RESULT:      -6.4      1.643      2.277
REMARK  5 active torsions:
REMARK  status: ('A' for Active; 'I' for Inactive)
REMARK    1  A    between atoms: N_11  and  C_12 
REMARK    2  A    between atoms: C_12  and  C_13 
REMARK       I    between atoms: C_13  and  N_15 
REMARK    3  A    between atoms: N_15  and  C_16 
REMARK    4  A    between atoms: C_16  and  C_17 
REMARK    5  A    between atoms: C_17  and  C_18 
ROOT
HETATM    1  C   UNL     1     -43.252 -50.873  16.139  1.00  0.00     0.013 C 
HETATM    2  C   UNL     1     -44.773 -50.688  16.083  1.00  0.00     0.019 C 
HETATM    3  C   UNL     1     -45.364 -50.726  17.500  1.00  0.00     0.007 C 
HETATM    4  C   UNL     1     -46.874 -50.495  17.492  1.00  0.00     0.001 C 
HETATM    5  C   UNL     1     -47.602 -51.436  16.535  1.00  0.00     0.003 C 
HETATM    6  C   UNL     1     -47.011 -51.389  15.121  1.00  0.00     0.041 C 
HETATM    7  C   UNL     1     -45.505 -51.679  15.145  1.00  0.00     0.119 C 
HETATM    8  N   UNL     1     -45.292 -53.080  15.459  1.00  0.00    -0.324 N 
HETATM    9  C   UNL     1     -44.798 -53.783  14.386  1.00  0.00     0.326 C 
HETATM   10  O   UNL     1     -44.722 -54.998  14.328  1.00  0.00    -0.247 OA
HETATM   11  N   UNL     1     -44.441 -52.901  13.421  1.00  0.00    -0.259 N 
HETATM   12  C   UNL     1     -44.882 -51.643  13.732  1.00  0.00     0.257 C 
HETATM   13  O   UNL     1     -44.765 -50.644  13.038  1.00  0.00    -0.270 OA
HETATM   14  H   UNL     1     -45.686 -53.573  16.250  1.00  0.00     0.165 HD
ENDROOT
BRANCH  11  15
HETATM   15  C   UNL     1     -43.519 -53.209  12.354  1.00  0.00     0.239 C 
BRANCH  15  16
HETATM   16  C   UNL     1     -42.109 -52.677  12.534  1.00  0.00     0.236 C 
HETATM   17  O   UNL     1     -41.238 -53.370  13.066  1.00  0.00    -0.272 OA
HETATM   18  N   UNL     1     -41.817 -51.479  11.918  1.00  0.00    -0.359 N 
HETATM   19  H   UNL     1     -42.553 -50.935  11.479  1.00  0.00     0.162 HD
BRANCH  18  20
HETATM   20  C   UNL     1     -40.456 -50.983  12.001  1.00  0.00     0.128 C 
BRANCH  20  21
HETATM   21  C   UNL     1     -40.117 -49.845  11.046  1.00  0.00     0.076 C 
BRANCH  21  22
HETATM   22  C   UNL     1     -41.246 -48.842  11.082  1.00  0.00     0.010 A 
HETATM   23  C   UNL     1     -41.777 -48.410  12.296  1.00  0.00     0.025 A 
HETATM   24  C   UNL     1     -42.912 -47.603  12.282  1.00  0.00     0.003 A 
HETATM   25  C   UNL     1     -43.485 -47.252  11.067  1.00  0.00     0.017 A 
HETATM   26  C   UNL     1     -42.889 -47.715   9.907  1.00  0.00     0.088 A 
HETATM   27  N   UNL     1     -41.787 -48.496   9.889  1.00  0.00    -0.369 N 
ATOM     28  HN  UNL     1     -41.377 -48.812   9.010  1.00  0.00     0.165 HD
ENDBRANCH  21  22
ENDBRANCH  20  21
ENDBRANCH  18  20
ENDBRANCH  15  16
ENDBRANCH  11  15
TORSDOF 5
ENDMDL
MODEL 4
REMARK VINA RESULT:      -6.4      2.553      6.628
REMARK  5 active torsions:
REMARK  status: ('A' for Active; 'I' for Inactive)
REMARK    1  A    between atoms: N_11  and  C_12 
REMARK    2  A    between atoms: C_12  and  C_13 
REMARK       I    between atoms: C_13  and  N_15 
REMARK    3  A    between atoms: N_15  and  C_16 
REMARK    4  A    between atoms: C_16  and  C_17 
REMARK    5  A    between atoms: C_17  and  C_18 
ROOT
HETATM    1  C   UNL     1     -42.192 -49.452  12.034  1.00  0.00     0.013 C 
HETATM    2  C   UNL     1     -41.833 -47.967  11.902  1.00  0.00     0.019 C 
HETATM    3  C   UNL     1     -42.370 -47.410  10.575  1.00  0.00     0.007 C 
HETATM    4  C   UNL     1     -42.076 -45.919  10.426  1.00  0.00     0.001 C 
HETATM    5  C   UNL     1     -40.599 -45.592  10.636  1.00  0.00     0.003 C 
HETATM    6  C   UNL     1     -40.071 -46.146  11.966  1.00  0.00     0.041 C 
HETATM    7  C   UNL     1     -40.326 -47.655  12.071  1.00  0.00     0.119 C 
HETATM    8  N   UNL     1     -39.454 -48.354  11.144  1.00  0.00    -0.324 N 
HETATM    9  C   UNL     1     -38.486 -49.082  11.792  1.00  0.00     0.326 C 
HETATM   10  O   UNL     1     -37.520 -49.592  11.248  1.00  0.00    -0.247 OA
HETATM   11  N   UNL     1     -38.781 -49.112  13.114  1.00  0.00    -0.259 N 
HETATM   12  C   UNL     1     -39.800 -48.244  13.399  1.00  0.00     0.257 C 
HETATM   13  O   UNL     1     -40.256 -48.002  14.506  1.00  0.00    -0.270 OA
HETATM   14  H   UNL     1     -39.362 -48.152  10.157  1.00  0.00     0.165 HD
ENDROOT
BRANCH  11  15
HETATM   15  C   UNL     1     -38.260 -50.098  14.031  1.00  0.00     0.239 C 
BRANCH  15  16
HETATM   16  C   UNL     1     -38.624 -51.538  13.717  1.00  0.00     0.236 C 
HETATM   17  O   UNL     1     -37.792 -52.304  13.225  1.00  0.00    -0.272 OA
HETATM   18  N   UNL     1     -39.847 -51.981  14.174  1.00  0.00    -0.359 N 
HETATM   19  H   UNL     1     -40.508 -51.329  14.585  1.00  0.00     0.162 HD
BRANCH  18  20
HETATM   20  C   UNL     1     -40.190 -53.375  13.964  1.00  0.00     0.128 C 
BRANCH  20  21
HETATM   21  C   UNL     1     -40.987 -53.667  12.699  1.00  0.00     0.076 C 
BRANCH  21  22
HETATM   22  C   UNL     1     -42.450 -53.735  13.063  1.00  0.00     0.010 A 
HETATM   23  C   UNL     1     -42.884 -54.522  14.128  1.00  0.00     0.025 A 
HETATM   24  C   UNL     1     -44.253 -54.675  14.335  1.00  0.00     0.003 A 
HETATM   25  C   UNL     1     -45.148 -54.046  13.480  1.00  0.00     0.017 A 
HETATM   26  C   UNL     1     -44.634 -53.274  12.453  1.00  0.00     0.088 A 
HETATM   27  N   UNL     1     -43.312 -53.104  12.229  1.00  0.00    -0.369 N 
ATOM     28  HN  UNL     1     -42.976 -52.523  11.461  1.00  0.00     0.165 HD
ENDBRANCH  21  22
ENDBRANCH  20  21
ENDBRANCH  18  20
ENDBRANCH  15  16
ENDBRANCH  11  15
TORSDOF 5
ENDMDL
MODEL 5
REMARK VINA RESULT:      -6.3      1.849      5.945
REMARK  5 active torsions:
REMARK  status: ('A' for Active; 'I' for Inactive)
REMARK    1  A    between atoms: N_11  and  C_12 
REMARK    2  A    between atoms: C_12  and  C_13 
REMARK       I    between atoms: C_13  and  N_15 
REMARK    3  A    between atoms: N_15  and  C_16 
REMARK    4  A    between atoms: C_16  and  C_17 
REMARK    5  A    between atoms: C_17  and  C_18 
ROOT
HETATM    1  C   UNL     1     -43.458 -49.452  14.078  1.00  0.00     0.013 C 
HETATM    2  C   UNL     1     -42.405 -48.628  13.327  1.00  0.00     0.019 C 
HETATM    3  C   UNL     1     -43.084 -47.724  12.287  1.00  0.00     0.007 C 
HETATM    4  C   UNL     1     -42.072 -46.848  11.550  1.00  0.00     0.001 C 
HETATM    5  C   UNL     1     -40.925 -47.659  10.952  1.00  0.00     0.003 C 
HETATM    6  C   UNL     1     -40.249 -48.555  11.998  1.00  0.00     0.041 C 
HETATM    7  C   UNL     1     -41.273 -49.466  12.686  1.00  0.00     0.119 C 
HETATM    8  N   UNL     1     -41.724 -50.476  11.745  1.00  0.00    -0.324 N 
HETATM    9  C   UNL     1     -41.281 -51.732  12.081  1.00  0.00     0.326 C 
HETATM   10  O   UNL     1     -41.353 -52.711  11.356  1.00  0.00    -0.247 OA
HETATM   11  N   UNL     1     -40.743 -51.682  13.323  1.00  0.00    -0.259 N 
HETATM   12  C   UNL     1     -40.619 -50.385  13.742  1.00  0.00     0.257 C 
HETATM   13  O   UNL     1     -40.120 -50.008  14.792  1.00  0.00    -0.270 OA
HETATM   14  H   UNL     1     -42.086 -50.296  10.818  1.00  0.00     0.165 HD
ENDROOT
BRANCH  11  15
HETATM   15  C   UNL     1     -40.564 -52.840  14.168  1.00  0.00     0.239 C 
BRANCH  15  16
HETATM   16  C   UNL     1     -41.825 -53.372  14.823  1.00  0.00     0.236 C 
HETATM   17  O   UNL     1     -42.389 -52.733  15.715  1.00  0.00    -0.272 OA
HETATM   18  N   UNL     1     -42.395 -54.489  14.251  1.00  0.00    -0.359 N 
HETATM   19  H   UNL     1     -41.913 -54.989  13.510  1.00  0.00     0.162 HD
BRANCH  18  20
HETATM   20  C   UNL     1     -43.647 -54.975  14.801  1.00  0.00     0.128 C 
BRANCH  20  21
HETATM   21  C   UNL     1     -44.823 -54.990  13.833  1.00  0.00     0.076 C 
BRANCH  21  22
HETATM   22  C   UNL     1     -45.633 -53.735  14.049  1.00  0.00     0.010 A 
HETATM   23  C   UNL     1     -45.790 -52.803  13.024  1.00  0.00     0.025 A 
HETATM   24  C   UNL     1     -46.416 -51.591  13.309  1.00  0.00     0.003 A 
HETATM   25  C   UNL     1     -46.864 -51.342  14.600  1.00  0.00     0.017 A 
HETATM   26  C   UNL     1     -46.678 -52.325  15.556  1.00  0.00     0.088 A 
HETATM   27  N   UNL     1     -46.078 -53.510  15.309  1.00  0.00    -0.369 N 
ATOM     28  HN  UNL     1     -45.964 -54.208  16.043  1.00  0.00     0.165 HD
ENDBRANCH  21  22
ENDBRANCH  20  21
ENDBRANCH  18  20
ENDBRANCH  15  16
ENDBRANCH  11  15
TORSDOF 5
ENDMDL
MODEL 6
REMARK VINA RESULT:      -6.2      3.578      7.821
REMARK  5 active torsions:
REMARK  status: ('A' for Active; 'I' for Inactive)
REMARK    1  A    between atoms: N_11  and  C_12 
REMARK    2  A    between atoms: C_12  and  C_13 
REMARK       I    between atoms: C_13  and  N_15 
REMARK    3  A    between atoms: N_15  and  C_16 
REMARK    4  A    between atoms: C_16  and  C_17 
REMARK    5  A    between atoms: C_17  and  C_18 
ROOT
HETATM    1  C   UNL     1     -42.998 -45.492  13.781  1.00  0.00     0.013 C 
HETATM    2  C   UNL     1     -42.088 -44.423  13.164  1.00  0.00     0.019 C 
HETATM    3  C   UNL     1     -42.725 -43.034  13.319  1.00  0.00     0.007 C 
HETATM    4  C   UNL     1     -41.825 -41.933  12.761  1.00  0.00     0.001 C 
HETATM    5  C   UNL     1     -41.384 -42.211  11.326  1.00  0.00     0.003 C 
HETATM    6  C   UNL     1     -40.744 -43.598  11.180  1.00  0.00     0.041 C 
HETATM    7  C   UNL     1     -41.686 -44.694  11.694  1.00  0.00     0.119 C 
HETATM    8  N   UNL     1     -42.802 -44.836  10.776  1.00  0.00    -0.324 N 
HETATM    9  C   UNL     1     -42.765 -46.028  10.094  1.00  0.00     0.326 C 
HETATM   10  O   UNL     1     -43.466 -46.301   9.134  1.00  0.00    -0.247 OA
HETATM   11  N   UNL     1     -41.817 -46.816  10.656  1.00  0.00    -0.259 N 
HETATM   12  C   UNL     1     -41.071 -46.104  11.555  1.00  0.00     0.257 C 
HETATM   13  O   UNL     1     -40.107 -46.517  12.183  1.00  0.00    -0.270 OA
HETATM   14  H   UNL     1     -43.397 -44.083  10.452  1.00  0.00     0.165 HD
ENDROOT
BRANCH  11  15
HETATM   15  C   UNL     1     -41.772 -48.251  10.502  1.00  0.00     0.239 C 
BRANCH  15  16
HETATM   16  C   UNL     1     -42.330 -49.050  11.665  1.00  0.00     0.236 C 
HETATM   17  O   UNL     1     -43.266 -48.611  12.339  1.00  0.00    -0.272 OA
HETATM   18  N   UNL     1     -41.869 -50.341  11.807  1.00  0.00    -0.359 N 
HETATM   19  H   UNL     1     -41.104 -50.679  11.231  1.00  0.00     0.162 HD
BRANCH  18  20
HETATM   20  C   UNL     1     -42.443 -51.160  12.859  1.00  0.00     0.128 C 
BRANCH  20  21
HETATM   21  C   UNL     1     -43.132 -52.435  12.389  1.00  0.00     0.076 C 
BRANCH  21  22
HETATM   22  C   UNL     1     -44.488 -52.514  13.049  1.00  0.00     0.010 A 
HETATM   23  C   UNL     1     -45.240 -51.362  13.273  1.00  0.00     0.025 A 
HETATM   24  C   UNL     1     -46.414 -51.461  14.018  1.00  0.00     0.003 A 
HETATM   25  C   UNL     1     -46.802 -52.697  14.517  1.00  0.00     0.017 A 
HETATM   26  C   UNL     1     -46.004 -53.793  14.240  1.00  0.00     0.088 A 
HETATM   27  N   UNL     1     -44.863 -53.729  13.519  1.00  0.00    -0.369 N 
ATOM     28  HN  UNL     1     -44.306 -54.563  13.335  1.00  0.00     0.165 HD
ENDBRANCH  21  22
ENDBRANCH  20  21
ENDBRANCH  18  20
ENDBRANCH  15  16
ENDBRANCH  11  15
TORSDOF 5
ENDMDL
MODEL 7
REMARK VINA RESULT:      -6.2      2.596      3.848
REMARK  5 active torsions:
REMARK  status: ('A' for Active; 'I' for Inactive)
REMARK    1  A    between atoms: N_11  and  C_12 
REMARK    2  A    between atoms: C_12  and  C_13 
REMARK       I    between atoms: C_13  and  N_15 
REMARK    3  A    between atoms: N_15  and  C_16 
REMARK    4  A    between atoms: C_16  and  C_17 
REMARK    5  A    between atoms: C_17  and  C_18 
ROOT
HETATM    1  C   UNL     1     -43.342 -50.645  14.515  1.00  0.00     0.013 C 
HETATM    2  C   UNL     1     -44.642 -51.427  14.289  1.00  0.00     0.019 C 
HETATM    3  C   UNL     1     -45.660 -51.091  15.389  1.00  0.00     0.007 C 
HETATM    4  C   UNL     1     -46.988 -51.813  15.172  1.00  0.00     0.001 C 
HETATM    5  C   UNL     1     -46.810 -53.318  14.987  1.00  0.00     0.003 C 
HETATM    6  C   UNL     1     -45.797 -53.646  13.883  1.00  0.00     0.041 C 
HETATM    7  C   UNL     1     -44.453 -52.958  14.149  1.00  0.00     0.119 C 
HETATM    8  N   UNL     1     -43.804 -53.594  15.282  1.00  0.00    -0.324 N 
HETATM    9  C   UNL     1     -42.684 -54.298  14.910  1.00  0.00     0.326 C 
HETATM   10  O   UNL     1     -42.082 -55.075  15.630  1.00  0.00    -0.247 OA
HETATM   11  N   UNL     1     -42.393 -53.994  13.622  1.00  0.00    -0.259 N 
HETATM   12  C   UNL     1     -43.409 -53.273  13.055  1.00  0.00     0.257 C 
HETATM   13  O   UNL     1     -43.469 -52.898  11.894  1.00  0.00    -0.270 OA
HETATM   14  H   UNL     1     -44.224 -53.751  16.189  1.00  0.00     0.165 HD
ENDROOT
BRANCH  11  15
HETATM   15  C   UNL     1     -41.093 -54.192  13.026  1.00  0.00     0.239 C 
BRANCH  15  16
HETATM   16  C   UNL     1     -40.161 -52.995  13.077  1.00  0.00     0.236 C 
HETATM   17  O   UNL     1     -39.124 -53.033  13.744  1.00  0.00    -0.272 OA
HETATM   18  N   UNL     1     -40.437 -51.959  12.211  1.00  0.00    -0.359 N 
HETATM   19  H   UNL     1     -41.294 -51.960  11.666  1.00  0.00     0.162 HD
BRANCH  18  20
HETATM   20  C   UNL     1     -39.518 -50.836  12.175  1.00  0.00     0.128 C 
BRANCH  20  21
HETATM   21  C   UNL     1     -39.964 -49.604  12.953  1.00  0.00     0.076 C 
BRANCH  21  22
HETATM   22  C   UNL     1     -38.866 -49.227  13.918  1.00  0.00     0.010 A 
HETATM   23  C   UNL     1     -38.325 -47.942  13.916  1.00  0.00     0.025 A 
HETATM   24  C   UNL     1     -37.214 -47.681  14.715  1.00  0.00     0.003 A 
HETATM   25  C   UNL     1     -36.675 -48.700  15.489  1.00  0.00     0.017 A 
HETATM   26  C   UNL     1     -37.279 -49.944  15.440  1.00  0.00     0.088 A 
HETATM   27  N   UNL     1     -38.358 -50.227  14.678  1.00  0.00    -0.369 N 
ATOM     28  HN  UNL     1     -38.774 -51.158  14.675  1.00  0.00     0.165 HD
ENDBRANCH  21  22
ENDBRANCH  20  21
ENDBRANCH  18  20
ENDBRANCH  15  16
ENDBRANCH  11  15
TORSDOF 5
ENDMDL
MODEL 8
REMARK VINA RESULT:      -6.0      3.137      6.334
REMARK  5 active torsions:
REMARK  status: ('A' for Active; 'I' for Inactive)
REMARK    1  A    between atoms: N_11  and  C_12 
REMARK    2  A    between atoms: C_12  and  C_13 
REMARK       I    between atoms: C_13  and  N_15 
REMARK    3  A    between atoms: N_15  and  C_16 
REMARK    4  A    between atoms: C_16  and  C_17 
REMARK    5  A    between atoms: C_17  and  C_18 
ROOT
HETATM    1  C   UNL     1     -41.126 -50.570  15.912  1.00  0.00     0.013 C 
HETATM    2  C   UNL     1     -39.746 -50.135  15.406  1.00  0.00     0.019 C 
HETATM    3  C   UNL     1     -39.689 -48.606  15.270  1.00  0.00     0.007 C 
HETATM    4  C   UNL     1     -38.312 -48.128  14.814  1.00  0.00     0.001 C 
HETATM    5  C   UNL     1     -37.836 -48.840  13.550  1.00  0.00     0.003 C 
HETATM    6  C   UNL     1     -37.890 -50.366  13.694  1.00  0.00     0.041 C 
HETATM    7  C   UNL     1     -39.295 -50.830  14.097  1.00  0.00     0.119 C 
HETATM    8  N   UNL     1     -40.199 -50.653  12.975  1.00  0.00    -0.324 N 
HETATM    9  C   UNL     1     -40.610 -51.853  12.446  1.00  0.00     0.326 C 
HETATM   10  O   UNL     1     -41.204 -51.978  11.388  1.00  0.00    -0.247 OA
HETATM   11  N   UNL     1     -40.226 -52.847  13.282  1.00  0.00    -0.259 N 
HETATM   12  C   UNL     1     -39.382 -52.366  14.246  1.00  0.00     0.257 C 
HETATM   13  O   UNL     1     -38.823 -53.022  15.112  1.00  0.00    -0.270 OA
HETATM   14  H   UNL     1     -40.325 -49.797  12.450  1.00  0.00     0.165 HD
ENDROOT
BRANCH  11  15
HETATM   15  C   UNL     1     -40.822 -54.162  13.293  1.00  0.00     0.239 C 
BRANCH  15  16
HETATM   16  C   UNL     1     -42.298 -54.208  13.643  1.00  0.00     0.236 C 
HETATM   17  O   UNL     1     -42.671 -54.084  14.812  1.00  0.00    -0.272 OA
HETATM   18  N   UNL     1     -43.185 -54.208  12.588  1.00  0.00    -0.359 N 
HETATM   19  H   UNL     1     -42.848 -54.301  11.635  1.00  0.00     0.162 HD
BRANCH  18  20
HETATM   20  C   UNL     1     -44.604 -54.168  12.888  1.00  0.00     0.128 C 
BRANCH  20  21
HETATM   21  C   UNL     1     -45.231 -52.779  12.887  1.00  0.00     0.076 C 
BRANCH  21  22
HETATM   22  C   UNL     1     -45.899 -52.557  14.223  1.00  0.00     0.010 A 
HETATM   23  C   UNL     1     -46.731 -51.458  14.430  1.00  0.00     0.025 A 
HETATM   24  C   UNL     1     -47.204 -51.208  15.716  1.00  0.00     0.003 A 
HETATM   25  C   UNL     1     -46.837 -52.054  16.755  1.00  0.00     0.017 A 
HETATM   26  C   UNL     1     -46.016 -53.128  16.461  1.00  0.00     0.088 A 
HETATM   27  N   UNL     1     -45.544 -53.398  15.224  1.00  0.00    -0.369 N 
ATOM     28  HN  UNL     1     -44.943 -54.204  15.051  1.00  0.00     0.165 HD
ENDBRANCH  21  22
ENDBRANCH  20  21
ENDBRANCH  18  20
ENDBRANCH  15  16
ENDBRANCH  11  15
TORSDOF 5
ENDMDL
MODEL 9
REMARK VINA RESULT:      -5.8      2.645      3.212
REMARK  5 active torsions:
REMARK  status: ('A' for Active; 'I' for Inactive)
REMARK    1  A    between atoms: N_11  and  C_12 
REMARK    2  A    between atoms: C_12  and  C_13 
REMARK       I    between atoms: C_13  and  N_15 
REMARK    3  A    between atoms: N_15  and  C_16 
REMARK    4  A    between atoms: C_16  and  C_17 
REMARK    5  A    between atoms: C_17  and  C_18 
ROOT
HETATM    1  C   UNL     1     -42.401 -50.305  13.907  1.00  0.00     0.013 C 
HETATM    2  C   UNL     1     -43.418 -51.204  13.194  1.00  0.00     0.019 C 
HETATM    3  C   UNL     1     -44.842 -50.867  13.663  1.00  0.00     0.007 C 
HETATM    4  C   UNL     1     -45.891 -51.707  12.939  1.00  0.00     0.001 C 
HETATM    5  C   UNL     1     -45.595 -53.203  13.016  1.00  0.00     0.003 C 
HETATM    6  C   UNL     1     -44.174 -53.533  12.541  1.00  0.00     0.041 C 
HETATM    7  C   UNL     1     -43.132 -52.721  13.319  1.00  0.00     0.119 C 
HETATM    8  N   UNL     1     -43.061 -53.213  14.683  1.00  0.00    -0.324 N 
HETATM    9  C   UNL     1     -41.873 -53.852  14.943  1.00  0.00     0.326 C 
HETATM   10  O   UNL     1     -41.646 -54.521  15.937  1.00  0.00    -0.247 OA
HETATM   11  N   UNL     1     -41.028 -53.626  13.908  1.00  0.00    -0.259 N 
HETATM   12  C   UNL     1     -41.689 -53.035  12.866  1.00  0.00     0.257 C 
HETATM   13  O   UNL     1     -41.217 -52.756  11.774  1.00  0.00    -0.270 OA
HETATM   14  H   UNL     1     -43.849 -53.333  15.308  1.00  0.00     0.165 HD
ENDROOT
BRANCH  11  15
HETATM   15  C   UNL     1     -39.593 -53.765  13.998  1.00  0.00     0.239 C 
BRANCH  15  16
HETATM   16  C   UNL     1     -38.813 -52.465  14.061  1.00  0.00     0.236 C 
HETATM   17  O   UNL     1     -38.272 -52.006  13.052  1.00  0.00    -0.272 OA
HETATM   18  N   UNL     1     -38.898 -51.748  15.235  1.00  0.00    -0.359 N 
HETATM   19  H   UNL     1     -39.360 -52.147  16.047  1.00  0.00     0.162 HD
BRANCH  18  20
HETATM   20  C   UNL     1     -38.233 -50.460  15.300  1.00  0.00     0.128 C 
BRANCH  20  21
HETATM   21  C   UNL     1     -39.144 -49.267  15.559  1.00  0.00     0.076 C 
BRANCH  21  22
HETATM   22  C   UNL     1     -39.318 -48.510  14.264  1.00  0.00     0.010 A 
HETATM   23  C   UNL     1     -40.112 -47.366  14.209  1.00  0.00     0.025 A 
HETATM   24  C   UNL     1     -40.367 -46.786  12.968  1.00  0.00     0.003 A 
HETATM   25  C   UNL     1     -39.830 -47.360  11.823  1.00  0.00     0.017 A 
HETATM   26  C   UNL     1     -39.044 -48.489  11.967  1.00  0.00     0.088 A 
HETATM   27  N   UNL     1     -38.776 -49.072  13.157  1.00  0.00    -0.369 N 
ATOM     28  HN  UNL     1     -38.189 -49.903  13.218  1.00  0.00     0.165 HD
ENDBRANCH  21  22
ENDBRANCH  20  21
ENDBRANCH  18  20
ENDBRANCH  15  16
ENDBRANCH  11  15
TORSDOF 5
ENDMDL
