MODEL 1
REMARK VINA RESULT:      -6.2      0.000      0.000
REMARK  4 active torsions:
REMARK  status: ('A' for Active; 'I' for Inactive)
REMARK    1  A    between atoms: C_2  and  C_5 
REMARK       I    between atoms: C_5  and  N_7 
REMARK    2  A    between atoms: N_7  and  C_8 
REMARK    3  A    between atoms: C_8  and  C_9 
REMARK    4  A    between atoms: C_14  and  N_16 
ROOT
HETATM    1  C   UNL     1     -42.139 -49.916  12.960  1.00  0.00    -0.036 A 
HETATM    2  C   UNL     1     -40.982 -50.536  12.506  1.00  0.00     0.026 A 
HETATM    3  C   UNL     1     -40.439 -50.096  11.312  1.00  0.00     0.090 A 
HETATM    4  N   UNL     1     -40.965 -49.106  10.557  1.00  0.00    -0.352 N 
ATOM      5  HN  UNL     1     -40.513 -48.817   9.689  1.00  0.00     0.166 HD
HETATM    6  C   UNL     1     -42.100 -48.510  10.973  1.00  0.00     0.103 A 
HETATM    7  C   UNL     1     -42.710 -48.915  12.163  1.00  0.00     0.057 A 
ENDROOT
BRANCH   1   8
HETATM    8  C   UNL     1     -42.744 -50.251  14.294  1.00  0.00     0.161 C 
BRANCH   8   9
HETATM    9  N   UNL     1     -44.149 -50.565  14.203  1.00  0.00    -0.356 N 
HETATM   10  C   UNL     1     -44.551 -51.883  14.208  1.00  0.00     0.225 C 
HETATM   11  O   UNL     1     -43.741 -52.802  14.313  1.00  0.00    -0.273 OA
HETATM   12  H   UNL     1     -44.804 -49.824  13.994  1.00  0.00     0.162 HD
BRANCH  10  13
HETATM   13  C   UNL     1     -46.068 -52.126  14.101  1.00  0.00     0.030 C 
HETATM   14  C   UNL     1     -46.791 -51.328  15.202  1.00  0.00     0.024 C 
HETATM   15  C   UNL     1     -46.388 -53.616  14.286  1.00  0.00     0.024 C 
HETATM   16  C   UNL     1     -46.571 -51.642  12.733  1.00  0.00     0.024 C 
ENDBRANCH  10  13
ENDBRANCH   8   9
ENDBRANCH   1   8
BRANCH   6  17
HETATM   17  N   UNL     1     -42.581 -47.406  10.292  1.00  0.00    -0.363 N 
HETATM   18  C   UNL     1     -41.860 -46.132  10.409  1.00  0.00     0.150 C 
HETATM   19  C   UNL     1     -42.875 -44.993  10.193  1.00  0.00     0.187 C 
HETATM   20  O   UNL     1     -43.563 -45.115   8.931  1.00  0.00    -0.388 OA
HETATM   21  C   UNL     1     -44.243 -46.380   8.846  1.00  0.00     0.187 C 
HETATM   22  C   UNL     1     -43.261 -47.553   8.998  1.00  0.00     0.150 C 
ENDBRANCH   6  17
TORSDOF 4
ENDMDL
MODEL 2
REMARK VINA RESULT:      -6.1      2.128      6.893
REMARK  4 active torsions:
REMARK  status: ('A' for Active; 'I' for Inactive)
REMARK    1  A    between atoms: C_2  and  C_5 
REMARK       I    between atoms: C_5  and  N_7 
REMARK    2  A    between atoms: N_7  and  C_8 
REMARK    3  A    between atoms: C_8  and  C_9 
REMARK    4  A    between atoms: C_14  and  N_16 
ROOT
HETATM    1  C   UNL     1     -42.278 -49.823  12.457  1.00  0.00    -0.036 A 
HETATM    2  C   UNL     1     -41.085 -50.043  11.780  1.00  0.00     0.026 A 
HETATM    3  C   UNL     1     -40.612 -51.342  11.711  1.00  0.00     0.090 A 
HETATM    4  N   UNL     1     -41.233 -52.407  12.265  1.00  0.00    -0.352 N 
ATOM      5  HN  UNL     1     -40.841 -53.345  12.172  1.00  0.00     0.166 HD
HETATM    6  C   UNL     1     -42.380 -52.206  12.943  1.00  0.00     0.103 A 
HETATM    7  C   UNL     1     -42.907 -50.917  13.064  1.00  0.00     0.057 A 
ENDROOT
BRANCH   1   8
HETATM    8  C   UNL     1     -42.925 -48.467  12.495  1.00  0.00     0.161 C 
BRANCH   8   9
HETATM    9  N   UNL     1     -43.719 -48.198  11.321  1.00  0.00    -0.356 N 
HETATM   10  C   UNL     1     -43.224 -47.361  10.344  1.00  0.00     0.225 C 
HETATM   11  O   UNL     1     -42.107 -46.856  10.437  1.00  0.00    -0.273 OA
HETATM   12  H   UNL     1     -44.680 -48.511  11.297  1.00  0.00     0.162 HD
BRANCH  10  13
HETATM   13  C   UNL     1     -44.141 -47.126   9.129  1.00  0.00     0.030 C 
HETATM   14  C   UNL     1     -43.533 -47.810   7.891  1.00  0.00     0.024 C 
HETATM   15  C   UNL     1     -44.276 -45.624   8.841  1.00  0.00     0.024 C 
HETATM   16  C   UNL     1     -45.523 -47.739   9.402  1.00  0.00     0.024 C 
ENDBRANCH  10  13
ENDBRANCH   8   9
ENDBRANCH   1   8
BRANCH   6  17
HETATM   17  N   UNL     1     -43.104 -53.293  13.399  1.00  0.00    -0.363 N 
HETATM   18  C   UNL     1     -44.269 -53.743  12.627  1.00  0.00     0.150 C 
HETATM   19  C   UNL     1     -45.250 -54.422  13.603  1.00  0.00     0.187 C 
HETATM   20  O   UNL     1     -44.628 -55.501  14.328  1.00  0.00    -0.388 OA
HETATM   21  C   UNL     1     -43.483 -55.027  15.059  1.00  0.00     0.187 C 
HETATM   22  C   UNL     1     -42.446 -54.392  14.120  1.00  0.00     0.150 C 
ENDBRANCH   6  17
TORSDOF 4
ENDMDL
MODEL 3
REMARK VINA RESULT:      -6.0      3.579      4.949
REMARK  4 active torsions:
REMARK  status: ('A' for Active; 'I' for Inactive)
REMARK    1  A    between atoms: C_2  and  C_5 
REMARK       I    between atoms: C_5  and  N_7 
REMARK    2  A    between atoms: N_7  and  C_8 
REMARK    3  A    between atoms: C_8  and  C_9 
REMARK    4  A    between atoms: C_14  and  N_16 
ROOT
HETATM    1  C   UNL     1     -41.729 -54.143  14.470  1.00  0.00    -0.036 A 
HETATM    2  C   UNL     1     -40.819 -54.872  15.225  1.00  0.00     0.026 A 
HETATM    3  C   UNL     1     -39.488 -54.500  15.167  1.00  0.00     0.090 A 
HETATM    4  N   UNL     1     -39.016 -53.477  14.419  1.00  0.00    -0.352 N 
ATOM      5  HN  UNL     1     -38.023 -53.242  14.425  1.00  0.00     0.166 HD
HETATM    6  C   UNL     1     -39.884 -52.774  13.665  1.00  0.00     0.103 A 
HETATM    7  C   UNL     1     -41.242 -53.105  13.665  1.00  0.00     0.057 A 
ENDROOT
BRANCH   1   8
HETATM    8  C   UNL     1     -43.207 -54.402  14.549  1.00  0.00     0.161 C 
BRANCH   8   9
HETATM    9  N   UNL     1     -43.991 -53.202  14.384  1.00  0.00    -0.356 N 
HETATM   10  C   UNL     1     -45.046 -53.196  13.497  1.00  0.00     0.225 C 
HETATM   11  O   UNL     1     -45.354 -54.201  12.858  1.00  0.00    -0.273 OA
HETATM   12  H   UNL     1     -43.669 -52.344  14.811  1.00  0.00     0.162 HD
BRANCH  10  13
HETATM   13  C   UNL     1     -45.822 -51.871  13.380  1.00  0.00     0.030 C 
HETATM   14  C   UNL     1     -44.824 -50.702  13.285  1.00  0.00     0.024 C 
HETATM   15  C   UNL     1     -46.708 -51.658  14.616  1.00  0.00     0.024 C 
HETATM   16  C   UNL     1     -46.682 -51.889  12.108  1.00  0.00     0.024 C 
ENDBRANCH  10  13
ENDBRANCH   8   9
ENDBRANCH   1   8
BRANCH   6  17
HETATM   17  N   UNL     1     -39.450 -51.641  13.001  1.00  0.00    -0.363 N 
HETATM   18  C   UNL     1     -40.425 -50.590  12.681  1.00  0.00     0.150 C 
HETATM   19  C   UNL     1     -39.924 -49.846  11.428  1.00  0.00     0.187 C 
HETATM   20  O   UNL     1     -38.595 -49.318  11.610  1.00  0.00    -0.388 OA
HETATM   21  C   UNL     1     -37.671 -50.371  11.938  1.00  0.00     0.187 C 
HETATM   22  C   UNL     1     -38.097 -51.109  13.217  1.00  0.00     0.150 C 
ENDBRANCH   6  17
TORSDOF 4
ENDMDL
MODEL 4
REMARK VINA RESULT:      -6.0      1.686      6.270
REMARK  4 active torsions:
REMARK  status: ('A' for Active; 'I' for Inactive)
REMARK    1  A    between atoms: C_2  and  C_5 
REMARK       I    between atoms: C_5  and  N_7 
REMARK    2  A    between atoms: N_7  and  C_8 
REMARK    3  A    between atoms: C_8  and  C_9 
REMARK    4  A    between atoms: C_14  and  N_16 
ROOT
HETATM    1  C   UNL     1     -41.268 -49.951  11.857  1.00  0.00    -0.036 A 
HETATM    2  C   UNL     1     -40.194 -50.817  12.013  1.00  0.00     0.026 A 
HETATM    3  C   UNL     1     -40.438 -52.055  12.579  1.00  0.00     0.090 A 
HETATM    4  N   UNL     1     -41.654 -52.473  12.996  1.00  0.00    -0.352 N 
ATOM      5  HN  UNL     1     -41.776 -53.404  13.397  1.00  0.00     0.166 HD
HETATM    6  C   UNL     1     -42.703 -51.636  12.872  1.00  0.00     0.103 A 
HETATM    7  C   UNL     1     -42.524 -50.364  12.321  1.00  0.00     0.057 A 
ENDROOT
BRANCH   1   8
HETATM    8  C   UNL     1     -41.123 -48.629  11.157  1.00  0.00     0.161 C 
BRANCH   8   9
HETATM    9  N   UNL     1     -42.153 -48.408  10.171  1.00  0.00    -0.356 N 
HETATM   10  C   UNL     1     -42.917 -47.262  10.233  1.00  0.00     0.225 C 
HETATM   11  O   UNL     1     -42.725 -46.408  11.096  1.00  0.00    -0.273 OA
HETATM   12  H   UNL     1     -42.395 -49.158   9.538  1.00  0.00     0.162 HD
BRANCH  10  13
HETATM   13  C   UNL     1     -43.995 -47.112   9.144  1.00  0.00     0.030 C 
HETATM   14  C   UNL     1     -45.311 -47.742   9.638  1.00  0.00     0.024 C 
HETATM   15  C   UNL     1     -43.563 -47.829   7.857  1.00  0.00     0.024 C 
HETATM   16  C   UNL     1     -44.239 -45.622   8.863  1.00  0.00     0.024 C 
ENDBRANCH  10  13
ENDBRANCH   8   9
ENDBRANCH   1   8
BRANCH   6  17
HETATM   17  N   UNL     1     -43.977 -52.089  13.162  1.00  0.00    -0.363 N 
HETATM   18  C   UNL     1     -45.051 -51.107  13.356  1.00  0.00     0.150 C 
HETATM   19  C   UNL     1     -46.101 -51.733  14.296  1.00  0.00     0.187 C 
HETATM   20  O   UNL     1     -46.596 -52.989  13.792  1.00  0.00    -0.388 OA
HETATM   21  C   UNL     1     -45.516 -53.919  13.599  1.00  0.00     0.187 C 
HETATM   22  C   UNL     1     -44.469 -53.364  12.620  1.00  0.00     0.150 C 
ENDBRANCH   6  17
TORSDOF 4
ENDMDL
MODEL 5
REMARK VINA RESULT:      -5.8      3.214      4.462
REMARK  4 active torsions:
REMARK  status: ('A' for Active; 'I' for Inactive)
REMARK    1  A    between atoms: C_2  and  C_5 
REMARK       I    between atoms: C_5  and  N_7 
REMARK    2  A    between atoms: N_7  and  C_8 
REMARK    3  A    between atoms: C_8  and  C_9 
REMARK    4  A    between atoms: C_14  and  N_16 
ROOT
HETATM    1  C   UNL     1     -41.490 -54.023  14.166  1.00  0.00    -0.036 A 
HETATM    2  C   UNL     1     -40.484 -54.623  14.912  1.00  0.00     0.026 A 
HETATM    3  C   UNL     1     -39.232 -54.034  14.901  1.00  0.00     0.090 A 
HETATM    4  N   UNL     1     -38.924 -52.915  14.206  1.00  0.00    -0.352 N 
ATOM      5  HN  UNL     1     -37.985 -52.520  14.246  1.00  0.00     0.166 HD
HETATM    6  C   UNL     1     -39.884 -52.334  13.460  1.00  0.00     0.103 A 
HETATM    7  C   UNL     1     -41.168 -52.885  13.415  1.00  0.00     0.057 A 
ENDROOT
BRANCH   1   8
HETATM    8  C   UNL     1     -42.905 -54.526  14.199  1.00  0.00     0.161 C 
BRANCH   8   9
HETATM    9  N   UNL     1     -43.865 -53.470  14.411  1.00  0.00    -0.356 N 
HETATM   10  C   UNL     1     -44.881 -53.283  13.499  1.00  0.00     0.225 C 
HETATM   11  O   UNL     1     -45.006 -54.013  12.518  1.00  0.00    -0.273 OA
HETATM   12  H   UNL     1     -43.697 -52.795  15.145  1.00  0.00     0.162 HD
BRANCH  10  13
HETATM   13  C   UNL     1     -45.855 -52.129  13.803  1.00  0.00     0.030 C 
HETATM   14  C   UNL     1     -45.067 -50.928  14.358  1.00  0.00     0.024 C 
HETATM   15  C   UNL     1     -46.890 -52.562  14.851  1.00  0.00     0.024 C 
HETATM   16  C   UNL     1     -46.561 -51.698  12.509  1.00  0.00     0.024 C 
ENDBRANCH  10  13
ENDBRANCH   8   9
ENDBRANCH   1   8
BRANCH   6  17
HETATM   17  N   UNL     1     -39.634 -51.117  12.853  1.00  0.00    -0.363 N 
HETATM   18  C   UNL     1     -38.241 -50.704  12.640  1.00  0.00     0.150 C 
HETATM   19  C   UNL     1     -38.200 -49.164  12.628  1.00  0.00     0.187 C 
HETATM   20  O   UNL     1     -39.089 -48.609  11.637  1.00  0.00    -0.388 OA
HETATM   21  C   UNL     1     -40.440 -49.047  11.867  1.00  0.00     0.187 C 
HETATM   22  C   UNL     1     -40.544 -50.580  11.831  1.00  0.00     0.150 C 
ENDBRANCH   6  17
TORSDOF 4
ENDMDL
MODEL 6
REMARK VINA RESULT:      -5.8      1.657      1.958
REMARK  4 active torsions:
REMARK  status: ('A' for Active; 'I' for Inactive)
REMARK    1  A    between atoms: C_2  and  C_5 
REMARK       I    between atoms: C_5  and  N_7 
REMARK    2  A    between atoms: N_7  and  C_8 
REMARK    3  A    between atoms: C_8  and  C_9 
REMARK    4  A    between atoms: C_14  and  N_16 
ROOT
HETATM    1  C   UNL     1     -41.167 -51.473  12.139  1.00  0.00    -0.036 A 
HETATM    2  C   UNL     1     -39.902 -51.626  12.691  1.00  0.00     0.026 A 
HETATM    3  C   UNL     1     -39.047 -50.538  12.662  1.00  0.00     0.090 A 
HETATM    4  N   UNL     1     -39.363 -49.338  12.125  1.00  0.00    -0.352 N 
ATOM      5  HN  UNL     1     -38.695 -48.568  12.142  1.00  0.00     0.166 HD
HETATM    6  C   UNL     1     -40.579 -49.181  11.565  1.00  0.00     0.103 A 
HETATM    7  C   UNL     1     -41.486 -50.243  11.548  1.00  0.00     0.057 A 
ENDROOT
BRANCH   1   8
HETATM    8  C   UNL     1     -42.200 -52.560  12.217  1.00  0.00     0.161 C 
BRANCH   8   9
HETATM    9  N   UNL     1     -43.459 -52.093  12.744  1.00  0.00    -0.356 N 
HETATM   10  C   UNL     1     -44.546 -52.940  12.757  1.00  0.00     0.225 C 
HETATM   11  O   UNL     1     -44.463 -54.098  12.352  1.00  0.00    -0.273 OA
HETATM   12  H   UNL     1     -43.565 -51.111  12.963  1.00  0.00     0.162 HD
BRANCH  10  13
HETATM   13  C   UNL     1     -45.850 -52.355  13.331  1.00  0.00     0.030 C 
HETATM   14  C   UNL     1     -45.518 -51.134  14.210  1.00  0.00     0.024 C 
HETATM   15  C   UNL     1     -46.571 -53.398  14.197  1.00  0.00     0.024 C 
HETATM   16  C   UNL     1     -46.761 -51.901  12.181  1.00  0.00     0.024 C 
ENDBRANCH  10  13
ENDBRANCH   8   9
ENDBRANCH   1   8
BRANCH   6  17
HETATM   17  N   UNL     1     -40.976 -47.928  11.134  1.00  0.00    -0.363 N 
HETATM   18  C   UNL     1     -39.991 -46.839  11.120  1.00  0.00     0.150 C 
HETATM   19  C   UNL     1     -40.752 -45.510  11.292  1.00  0.00     0.187 C 
HETATM   20  O   UNL     1     -41.769 -45.336  10.285  1.00  0.00    -0.388 OA
HETATM   21  C   UNL     1     -42.705 -46.428  10.318  1.00  0.00     0.187 C 
HETATM   22  C   UNL     1     -42.000 -47.775  10.092  1.00  0.00     0.150 C 
ENDBRANCH   6  17
TORSDOF 4
ENDMDL
MODEL 7
REMARK VINA RESULT:      -5.7      4.398      5.831
REMARK  4 active torsions:
REMARK  status: ('A' for Active; 'I' for Inactive)
REMARK    1  A    between atoms: C_2  and  C_5 
REMARK       I    between atoms: C_5  and  N_7 
REMARK    2  A    between atoms: N_7  and  C_8 
REMARK    3  A    between atoms: C_8  and  C_9 
REMARK    4  A    between atoms: C_14  and  N_16 
ROOT
HETATM    1  C   UNL     1     -43.307 -54.902  14.796  1.00  0.00    -0.036 A 
HETATM    2  C   UNL     1     -42.759 -55.627  15.845  1.00  0.00     0.026 A 
HETATM    3  C   UNL     1     -41.408 -55.472  16.102  1.00  0.00     0.090 A 
HETATM    4  N   UNL     1     -40.588 -54.663  15.392  1.00  0.00    -0.352 N 
ATOM      5  HN  UNL     1     -39.600 -54.581  15.635  1.00  0.00     0.166 HD
HETATM    6  C   UNL     1     -41.102 -53.970  14.357  1.00  0.00     0.103 A 
HETATM    7  C   UNL     1     -42.456 -54.091  14.034  1.00  0.00     0.057 A 
ENDROOT
BRANCH   1   8
HETATM    8  C   UNL     1     -44.782 -54.923  14.507  1.00  0.00     0.161 C 
BRANCH   8   9
HETATM    9  N   UNL     1     -45.363 -53.602  14.492  1.00  0.00    -0.356 N 
HETATM   10  C   UNL     1     -45.808 -53.043  15.671  1.00  0.00     0.225 C 
HETATM   11  O   UNL     1     -45.698 -53.633  16.744  1.00  0.00    -0.273 OA
HETATM   12  H   UNL     1     -45.566 -53.166  13.603  1.00  0.00     0.162 HD
BRANCH  10  13
HETATM   13  C   UNL     1     -46.419 -51.634  15.560  1.00  0.00     0.030 C 
HETATM   14  C   UNL     1     -45.394 -50.593  16.049  1.00  0.00     0.024 C 
HETATM   15  C   UNL     1     -47.679 -51.525  16.430  1.00  0.00     0.024 C 
HETATM   16  C   UNL     1     -46.761 -51.335  14.093  1.00  0.00     0.024 C 
ENDBRANCH  10  13
ENDBRANCH   8   9
ENDBRANCH   1   8
BRANCH   6  17
HETATM   17  N   UNL     1     -40.318 -53.035  13.705  1.00  0.00    -0.363 N 
HETATM   18  C   UNL     1     -38.870 -53.031  13.948  1.00  0.00     0.150 C 
HETATM   19  C   UNL     1     -38.355 -51.596  13.720  1.00  0.00     0.187 C 
HETATM   20  O   UNL     1     -38.687 -51.107  12.406  1.00  0.00    -0.388 OA
HETATM   21  C   UNL     1     -40.110 -51.141  12.197  1.00  0.00     0.187 C 
HETATM   22  C   UNL     1     -40.665 -52.565  12.357  1.00  0.00     0.150 C 
ENDBRANCH   6  17
TORSDOF 4
ENDMDL
MODEL 8
REMARK VINA RESULT:      -5.6      1.767      7.105
REMARK  4 active torsions:
REMARK  status: ('A' for Active; 'I' for Inactive)
REMARK    1  A    between atoms: C_2  and  C_5 
REMARK       I    between atoms: C_5  and  N_7 
REMARK    2  A    between atoms: N_7  and  C_8 
REMARK    3  A    between atoms: C_8  and  C_9 
REMARK    4  A    between atoms: C_14  and  N_16 
ROOT
HETATM    1  C   UNL     1     -42.772 -49.540  13.141  1.00  0.00    -0.036 A 
HETATM    2  C   UNL     1     -42.869 -48.770  14.292  1.00  0.00     0.026 A 
HETATM    3  C   UNL     1     -43.389 -49.366  15.427  1.00  0.00     0.090 A 
HETATM    4  N   UNL     1     -43.815 -50.649  15.485  1.00  0.00    -0.352 N 
ATOM      5  HN  UNL     1     -44.180 -51.038  16.354  1.00  0.00     0.166 HD
HETATM    6  C   UNL     1     -43.748 -51.402  14.369  1.00  0.00     0.103 A 
HETATM    7  C   UNL     1     -43.246 -50.858  13.184  1.00  0.00     0.057 A 
ENDROOT
BRANCH   1   8
HETATM    8  C   UNL     1     -42.124 -49.015  11.891  1.00  0.00     0.161 C 
BRANCH   8   9
HETATM    9  N   UNL     1     -43.086 -48.636  10.885  1.00  0.00    -0.356 N 
HETATM   10  C   UNL     1     -42.869 -47.503  10.131  1.00  0.00     0.225 C 
HETATM   11  O   UNL     1     -41.859 -46.817  10.277  1.00  0.00    -0.273 OA
HETATM   12  H   UNL     1     -43.971 -49.123  10.845  1.00  0.00     0.162 HD
BRANCH  10  13
HETATM   13  C   UNL     1     -43.950 -47.171   9.085  1.00  0.00     0.030 C 
HETATM   14  C   UNL     1     -44.005 -45.647   8.873  1.00  0.00     0.024 C 
HETATM   15  C   UNL     1     -45.328 -47.647   9.568  1.00  0.00     0.024 C 
HETATM   16  C   UNL     1     -43.597 -47.842   7.750  1.00  0.00     0.024 C 
ENDBRANCH  10  13
ENDBRANCH   8   9
ENDBRANCH   1   8
BRANCH   6  17
HETATM   17  N   UNL     1     -44.047 -52.751  14.437  1.00  0.00    -0.363 N 
HETATM   18  C   UNL     1     -43.348 -53.583  15.425  1.00  0.00     0.150 C 
HETATM   19  C   UNL     1     -43.301 -55.024  14.881  1.00  0.00     0.187 C 
HETATM   20  O   UNL     1     -44.616 -55.529  14.577  1.00  0.00    -0.388 OA
HETATM   21  C   UNL     1     -45.276 -54.682  13.620  1.00  0.00     0.187 C 
HETATM   22  C   UNL     1     -45.400 -53.241  14.143  1.00  0.00     0.150 C 
ENDBRANCH   6  17
TORSDOF 4
ENDMDL
MODEL 9
REMARK VINA RESULT:      -5.4      2.886      3.573
REMARK  4 active torsions:
REMARK  status: ('A' for Active; 'I' for Inactive)
REMARK    1  A    between atoms: C_2  and  C_5 
REMARK       I    between atoms: C_5  and  N_7 
REMARK    2  A    between atoms: N_7  and  C_8 
REMARK    3  A    between atoms: C_8  and  C_9 
REMARK    4  A    between atoms: C_14  and  N_16 
ROOT
HETATM    1  C   UNL     1     -38.590 -50.897  13.178  1.00  0.00    -0.036 A 
HETATM    2  C   UNL     1     -37.435 -50.866  12.408  1.00  0.00     0.026 A 
HETATM    3  C   UNL     1     -37.380 -49.963  11.361  1.00  0.00     0.090 A 
HETATM    4  N   UNL     1     -38.381 -49.114  11.036  1.00  0.00    -0.352 N 
ATOM      5  HN  UNL     1     -38.279 -48.462  10.259  1.00  0.00     0.166 HD
HETATM    6  C   UNL     1     -39.517 -49.148  11.761  1.00  0.00     0.103 A 
HETATM    7  C   UNL     1     -39.645 -50.046  12.824  1.00  0.00     0.057 A 
ENDROOT
BRANCH   1   8
HETATM    8  C   UNL     1     -38.703 -51.767  14.398  1.00  0.00     0.161 C 
BRANCH   8   9
HETATM    9  N   UNL     1     -40.060 -52.181  14.660  1.00  0.00    -0.356 N 
HETATM   10  C   UNL     1     -40.530 -53.354  14.109  1.00  0.00     0.225 C 
HETATM   11  O   UNL     1     -39.810 -54.073  13.418  1.00  0.00    -0.273 OA
HETATM   12  H   UNL     1     -40.688 -51.539  15.122  1.00  0.00     0.162 HD
BRANCH  10  13
HETATM   13  C   UNL     1     -41.990 -53.715  14.436  1.00  0.00     0.030 C 
HETATM   14  C   UNL     1     -42.649 -52.545  15.190  1.00  0.00     0.024 C 
HETATM   15  C   UNL     1     -42.048 -54.964  15.327  1.00  0.00     0.024 C 
HETATM   16  C   UNL     1     -42.765 -53.959  13.133  1.00  0.00     0.024 C 
ENDBRANCH  10  13
ENDBRANCH   8   9
ENDBRANCH   1   8
BRANCH   6  17
HETATM   17  N   UNL     1     -40.498 -48.199  11.537  1.00  0.00    -0.363 N 
HETATM   18  C   UNL     1     -40.110 -46.786  11.448  1.00  0.00     0.150 C 
HETATM   19  C   UNL     1     -41.316 -45.934  11.889  1.00  0.00     0.187 C 
HETATM   20  O   UNL     1     -42.495 -46.225  11.112  1.00  0.00    -0.388 OA
HETATM   21  C   UNL     1     -42.835 -47.619  11.210  1.00  0.00     0.187 C 
HETATM   22  C   UNL     1     -41.682 -48.512  10.725  1.00  0.00     0.150 C 
ENDBRANCH   6  17
TORSDOF 4
ENDMDL
