MODEL 1
REMARK VINA RESULT:      -6.3      0.000      0.000
REMARK  5 active torsions:
REMARK  status: ('A' for Active; 'I' for Inactive)
REMARK       I    between atoms: C_2  and  N_3 
REMARK       I    between atoms: C_2  and  N_14 
REMARK    1  A    between atoms: N_3  and  C_4 
REMARK    2  A    between atoms: C_4  and  C_5 
REMARK    3  A    between atoms: C_5  and  C_6 
REMARK    4  A    between atoms: C_6  and  N_7 
REMARK    5  A    between atoms: N_14  and  C_15 
ROOT
HETATM    1  O   UNL     1     -38.811 -52.493  13.344  1.00  0.00    -0.247 OA
HETATM    2  C   UNL     1     -39.611 -51.722  12.816  1.00  0.00     0.322 C 
HETATM    3  N   UNL     1     -40.955 -51.793  13.024  1.00  0.00    -0.343 N 
HETATM    4  N   UNL     1     -39.145 -50.703  12.044  1.00  0.00    -0.288 N 
HETATM    5  H   UNL     1     -41.553 -51.160  12.499  1.00  0.00     0.164 HD
HETATM    6  H   UNL     1     -38.142 -50.601  12.020  1.00  0.00     0.172 HD
ENDROOT
BRANCH   3   7
HETATM    7  C   UNL     1     -41.552 -52.648  14.028  1.00  0.00     0.126 C 
BRANCH   7   8
HETATM    8  C   UNL     1     -42.404 -53.766  13.416  1.00  0.00     0.040 C 
BRANCH   8   9
HETATM    9  C   UNL     1     -43.480 -53.214  12.481  1.00  0.00     0.136 C 
BRANCH   9  10
HETATM   10  N   UNL     1     -44.676 -52.787  13.181  1.00  0.00    -0.288 N 
HETATM   11  C   UNL     1     -45.668 -53.637  13.594  1.00  0.00     0.226 C 
HETATM   12  O   UNL     1     -45.708 -54.848  13.433  1.00  0.00    -0.273 OA
HETATM   13  C   UNL     1     -46.749 -52.833  14.253  1.00  0.00     0.112 C 
HETATM   14  C   UNL     1     -46.125 -51.463  14.432  1.00  0.00     0.112 C 
HETATM   15  C   UNL     1     -44.944 -51.486  13.504  1.00  0.00     0.226 C 
HETATM   16  O   UNL     1     -44.317 -50.499  13.160  1.00  0.00    -0.273 OA
ENDBRANCH   9  10
ENDBRANCH   8   9
ENDBRANCH   7   8
ENDBRANCH   3   7
BRANCH   4  17
HETATM   17  C   UNL     1     -39.911 -49.757  11.431  1.00  0.00     0.168 A 
HETATM   18  N   UNL     1     -40.548 -49.829  10.284  1.00  0.00    -0.279 N 
HETATM   19  N   UNL     1     -41.261 -48.676  10.023  1.00  0.00    -0.303 N 
ATOM     20  HN  UNL     1     -40.519 -50.637   9.664  1.00  0.00     0.189 HD
HETATM   21  C   UNL     1     -41.142 -47.800  10.999  1.00  0.00     0.160 A 
ATOM     22  HN  UNL     1     -41.812 -48.522   9.179  1.00  0.00     0.186 HD
HETATM   23  S   UNL     1     -40.105 -48.291  12.279  1.00  0.00    -0.046 SA
ENDBRANCH   4  17
TORSDOF 5
ENDMDL
MODEL 2
REMARK VINA RESULT:      -6.2      1.831      2.156
REMARK  5 active torsions:
REMARK  status: ('A' for Active; 'I' for Inactive)
REMARK       I    between atoms: C_2  and  N_3 
REMARK       I    between atoms: C_2  and  N_14 
REMARK    1  A    between atoms: N_3  and  C_4 
REMARK    2  A    between atoms: C_4  and  C_5 
REMARK    3  A    between atoms: C_5  and  C_6 
REMARK    4  A    between atoms: C_6  and  N_7 
REMARK    5  A    between atoms: N_14  and  C_15 
ROOT
HETATM    1  O   UNL     1     -36.978 -51.573  12.580  1.00  0.00    -0.247 OA
HETATM    2  C   UNL     1     -38.134 -51.185  12.421  1.00  0.00     0.322 C 
HETATM    3  N   UNL     1     -39.188 -51.694  13.117  1.00  0.00    -0.343 N 
HETATM    4  N   UNL     1     -38.380 -50.152  11.570  1.00  0.00    -0.288 N 
HETATM    5  H   UNL     1     -40.120 -51.364  12.880  1.00  0.00     0.164 HD
HETATM    6  H   UNL     1     -37.563 -49.713  11.174  1.00  0.00     0.172 HD
ENDROOT
BRANCH   3   7
HETATM    7  C   UNL     1     -39.029 -52.596  14.238  1.00  0.00     0.126 C 
BRANCH   7   8
HETATM    8  C   UNL     1     -40.097 -53.695  14.264  1.00  0.00     0.040 C 
BRANCH   8   9
HETATM    9  C   UNL     1     -41.419 -53.191  14.846  1.00  0.00     0.136 C 
BRANCH   9  10
HETATM   10  N   UNL     1     -42.555 -53.454  13.984  1.00  0.00    -0.288 N 
HETATM   11  C   UNL     1     -43.460 -54.461  14.194  1.00  0.00     0.226 C 
HETATM   12  O   UNL     1     -43.448 -55.278  15.102  1.00  0.00    -0.273 OA
HETATM   13  C   UNL     1     -44.471 -54.439  13.086  1.00  0.00     0.112 C 
HETATM   14  C   UNL     1     -44.211 -53.122  12.382  1.00  0.00     0.112 C 
HETATM   15  C   UNL     1     -42.845 -52.725  12.864  1.00  0.00     0.226 C 
HETATM   16  O   UNL     1     -42.159 -51.855  12.356  1.00  0.00    -0.273 OA
ENDBRANCH   9  10
ENDBRANCH   8   9
ENDBRANCH   7   8
ENDBRANCH   3   7
BRANCH   4  17
HETATM   17  C   UNL     1     -39.600 -49.597  11.327  1.00  0.00     0.168 A 
HETATM   18  N   UNL     1     -40.556 -50.023  10.532  1.00  0.00    -0.279 N 
HETATM   19  N   UNL     1     -41.671 -49.211  10.592  1.00  0.00    -0.303 N 
ATOM     20  HN  UNL     1     -40.483 -50.852   9.943  1.00  0.00     0.189 HD
HETATM   21  C   UNL     1     -41.505 -48.223  11.448  1.00  0.00     0.160 A 
ATOM     22  HN  UNL     1     -42.517 -49.358  10.042  1.00  0.00     0.186 HD
HETATM   23  S   UNL     1     -39.960 -48.176  12.197  1.00  0.00    -0.046 SA
ENDBRANCH   4  17
TORSDOF 5
ENDMDL
MODEL 3
REMARK VINA RESULT:      -6.2      0.530      1.800
REMARK  5 active torsions:
REMARK  status: ('A' for Active; 'I' for Inactive)
REMARK       I    between atoms: C_2  and  N_3 
REMARK       I    between atoms: C_2  and  N_14 
REMARK    1  A    between atoms: N_3  and  C_4 
REMARK    2  A    between atoms: C_4  and  C_5 
REMARK    3  A    between atoms: C_5  and  C_6 
REMARK    4  A    between atoms: C_6  and  N_7 
REMARK    5  A    between atoms: N_14  and  C_15 
ROOT
HETATM    1  O   UNL     1     -38.337 -52.100  13.272  1.00  0.00    -0.247 OA
HETATM    2  C   UNL     1     -39.249 -51.449  12.767  1.00  0.00     0.322 C 
HETATM    3  N   UNL     1     -40.562 -51.662  13.062  1.00  0.00    -0.343 N 
HETATM    4  N   UNL     1     -38.951 -50.419  11.930  1.00  0.00    -0.288 N 
HETATM    5  H   UNL     1     -41.259 -51.125  12.553  1.00  0.00     0.164 HD
HETATM    6  H   UNL     1     -37.969 -50.206  11.838  1.00  0.00     0.172 HD
ENDROOT
BRANCH   3   7
HETATM    7  C   UNL     1     -40.996 -52.534  14.133  1.00  0.00     0.126 C 
BRANCH   7   8
HETATM    8  C   UNL     1     -41.967 -53.618  13.651  1.00  0.00     0.040 C 
BRANCH   8   9
HETATM    9  C   UNL     1     -42.869 -53.114  12.524  1.00  0.00     0.136 C 
BRANCH   9  10
HETATM   10  N   UNL     1     -44.160 -52.649  12.996  1.00  0.00    -0.288 N 
HETATM   11  C   UNL     1     -44.426 -51.353  13.348  1.00  0.00     0.226 C 
HETATM   12  O   UNL     1     -43.643 -50.415  13.334  1.00  0.00    -0.273 OA
HETATM   13  C   UNL     1     -45.851 -51.261  13.810  1.00  0.00     0.112 C 
HETATM   14  C   UNL     1     -46.451 -52.592  13.401  1.00  0.00     0.112 C 
HETATM   15  C   UNL     1     -45.252 -53.458  13.142  1.00  0.00     0.226 C 
HETATM   16  O   UNL     1     -45.288 -54.672  13.029  1.00  0.00    -0.273 OA
ENDBRANCH   9  10
ENDBRANCH   8   9
ENDBRANCH   7   8
ENDBRANCH   3   7
BRANCH   4  17
HETATM   17  C   UNL     1     -39.855 -49.594  11.331  1.00  0.00     0.168 A 
HETATM   18  N   UNL     1     -40.561 -49.797  10.241  1.00  0.00    -0.279 N 
HETATM   19  N   UNL     1     -41.411 -48.741   9.979  1.00  0.00    -0.303 N 
ATOM     20  HN  UNL     1     -40.489 -50.632   9.661  1.00  0.00     0.189 HD
HETATM   21  C   UNL     1     -41.317 -47.803  10.899  1.00  0.00     0.160 A 
ATOM     22  HN  UNL     1     -42.033 -48.694   9.173  1.00  0.00     0.186 HD
HETATM   23  S   UNL     1     -40.145 -48.110  12.118  1.00  0.00    -0.046 SA
ENDBRANCH   4  17
TORSDOF 5
ENDMDL
MODEL 4
REMARK VINA RESULT:      -6.2      2.695      4.259
REMARK  5 active torsions:
REMARK  status: ('A' for Active; 'I' for Inactive)
REMARK       I    between atoms: C_2  and  N_3 
REMARK       I    between atoms: C_2  and  N_14 
REMARK    1  A    between atoms: N_3  and  C_4 
REMARK    2  A    between atoms: C_4  and  C_5 
REMARK    3  A    between atoms: C_5  and  C_6 
REMARK    4  A    between atoms: C_6  and  N_7 
REMARK    5  A    between atoms: N_14  and  C_15 
ROOT
HETATM    1  O   UNL     1     -44.977 -54.634  12.799  1.00  0.00    -0.247 OA
HETATM    2  C   UNL     1     -44.281 -53.654  12.539  1.00  0.00     0.322 C 
HETATM    3  N   UNL     1     -44.802 -52.416  12.312  1.00  0.00    -0.343 N 
HETATM    4  N   UNL     1     -42.926 -53.777  12.545  1.00  0.00    -0.288 N 
HETATM    5  H   UNL     1     -44.164 -51.673  12.040  1.00  0.00     0.164 HD
HETATM    6  H   UNL     1     -42.574 -54.673  12.847  1.00  0.00     0.172 HD
ENDROOT
BRANCH   3   7
HETATM    7  C   UNL     1     -46.194 -52.093  12.544  1.00  0.00     0.126 C 
BRANCH   7   8
HETATM    8  C   UNL     1     -46.453 -51.606  13.974  1.00  0.00     0.040 C 
BRANCH   8   9
HETATM    9  C   UNL     1     -47.144 -52.675  14.823  1.00  0.00     0.136 C 
BRANCH   9  10
HETATM   10  N   UNL     1     -46.719 -52.661  16.209  1.00  0.00    -0.288 N 
HETATM   11  C   UNL     1     -45.804 -53.531  16.740  1.00  0.00     0.226 C 
HETATM   12  O   UNL     1     -45.228 -54.435  16.154  1.00  0.00    -0.273 OA
HETATM   13  C   UNL     1     -45.641 -53.229  18.200  1.00  0.00     0.112 C 
HETATM   14  C   UNL     1     -46.347 -51.899  18.377  1.00  0.00     0.112 C 
HETATM   15  C   UNL     1     -47.189 -51.775  17.139  1.00  0.00     0.226 C 
HETATM   16  O   UNL     1     -48.095 -50.972  16.997  1.00  0.00    -0.273 OA
ENDBRANCH   9  10
ENDBRANCH   8   9
ENDBRANCH   7   8
ENDBRANCH   3   7
BRANCH   4  17
HETATM   17  C   UNL     1     -42.036 -52.771  12.313  1.00  0.00     0.168 A 
HETATM   18  N   UNL     1     -41.437 -52.444  11.191  1.00  0.00    -0.279 N 
HETATM   19  N   UNL     1     -40.639 -51.328  11.344  1.00  0.00    -0.303 N 
ATOM     20  HN  UNL     1     -41.547 -52.952  10.314  1.00  0.00     0.189 HD
HETATM   21  C   UNL     1     -40.695 -50.857  12.573  1.00  0.00     0.160 A 
ATOM     22  HN  UNL     1     -40.076 -50.919  10.598  1.00  0.00     0.186 HD
HETATM   23  S   UNL     1     -41.676 -51.773  13.647  1.00  0.00    -0.046 SA
ENDBRANCH   4  17
TORSDOF 5
ENDMDL
MODEL 5
REMARK VINA RESULT:      -6.2      1.375      1.674
REMARK  5 active torsions:
REMARK  status: ('A' for Active; 'I' for Inactive)
REMARK       I    between atoms: C_2  and  N_3 
REMARK       I    between atoms: C_2  and  N_14 
REMARK    1  A    between atoms: N_3  and  C_4 
REMARK    2  A    between atoms: C_4  and  C_5 
REMARK    3  A    between atoms: C_5  and  C_6 
REMARK    4  A    between atoms: C_6  and  N_7 
REMARK    5  A    between atoms: N_14  and  C_15 
ROOT
HETATM    1  O   UNL     1     -39.269 -52.862  13.259  1.00  0.00    -0.247 OA
HETATM    2  C   UNL     1     -40.026 -52.125  12.630  1.00  0.00     0.322 C 
HETATM    3  N   UNL     1     -41.332 -52.433  12.393  1.00  0.00    -0.343 N 
HETATM    4  N   UNL     1     -39.578 -50.912  12.207  1.00  0.00    -0.288 N 
HETATM    5  H   UNL     1     -41.873 -51.800  11.810  1.00  0.00     0.164 HD
HETATM    6  H   UNL     1     -38.650 -50.662  12.514  1.00  0.00     0.172 HD
ENDROOT
BRANCH   3   7
HETATM    7  C   UNL     1     -42.002 -53.554  13.018  1.00  0.00     0.126 C 
BRANCH   7   8
HETATM    8  C   UNL     1     -42.618 -53.188  14.373  1.00  0.00     0.040 C 
BRANCH   8   9
HETATM    9  C   UNL     1     -43.977 -53.860  14.580  1.00  0.00     0.136 C 
BRANCH   9  10
HETATM   10  N   UNL     1     -45.092 -52.948  14.411  1.00  0.00    -0.288 N 
HETATM   11  C   UNL     1     -45.643 -52.214  15.428  1.00  0.00     0.226 C 
HETATM   12  O   UNL     1     -45.303 -52.218  16.601  1.00  0.00    -0.273 OA
HETATM   13  C   UNL     1     -46.787 -51.414  14.879  1.00  0.00     0.112 C 
HETATM   14  C   UNL     1     -46.639 -51.550  13.377  1.00  0.00     0.112 C 
HETATM   15  C   UNL     1     -45.716 -52.725  13.215  1.00  0.00     0.226 C 
HETATM   16  O   UNL     1     -45.534 -53.321  12.168  1.00  0.00    -0.273 OA
ENDBRANCH   9  10
ENDBRANCH   8   9
ENDBRANCH   7   8
ENDBRANCH   3   7
BRANCH   4  17
HETATM   17  C   UNL     1     -40.314 -49.983  11.535  1.00  0.00     0.168 A 
HETATM   18  N   UNL     1     -40.507 -49.863  10.241  1.00  0.00    -0.279 N 
HETATM   19  N   UNL     1     -41.361 -48.819   9.947  1.00  0.00    -0.303 N 
ATOM     20  HN  UNL     1     -40.079 -50.467   9.540  1.00  0.00     0.189 HD
HETATM   21  C   UNL     1     -41.786 -48.217  11.038  1.00  0.00     0.160 A 
ATOM     22  HN  UNL     1     -41.630 -48.548   9.001  1.00  0.00     0.186 HD
HETATM   23  S   UNL     1     -41.131 -48.840  12.500  1.00  0.00    -0.046 SA
ENDBRANCH   4  17
TORSDOF 5
ENDMDL
MODEL 6
REMARK VINA RESULT:      -5.9      2.578      3.439
REMARK  5 active torsions:
REMARK  status: ('A' for Active; 'I' for Inactive)
REMARK       I    between atoms: C_2  and  N_3 
REMARK       I    between atoms: C_2  and  N_14 
REMARK    1  A    between atoms: N_3  and  C_4 
REMARK    2  A    between atoms: C_4  and  C_5 
REMARK    3  A    between atoms: C_5  and  C_6 
REMARK    4  A    between atoms: C_6  and  N_7 
REMARK    5  A    between atoms: N_14  and  C_15 
ROOT
HETATM    1  O   UNL     1     -40.025 -55.383  16.001  1.00  0.00    -0.247 OA
HETATM    2  C   UNL     1     -40.607 -54.724  15.142  1.00  0.00     0.322 C 
HETATM    3  N   UNL     1     -41.944 -54.466  15.187  1.00  0.00    -0.343 N 
HETATM    4  N   UNL     1     -39.890 -54.160  14.133  1.00  0.00    -0.288 N 
HETATM    5  H   UNL     1     -42.361 -53.969  14.405  1.00  0.00     0.164 HD
HETATM    6  H   UNL     1     -38.889 -54.260  14.205  1.00  0.00     0.172 HD
ENDROOT
BRANCH   3   7
HETATM    7  C   UNL     1     -42.766 -54.772  16.339  1.00  0.00     0.126 C 
BRANCH   7   8
HETATM    8  C   UNL     1     -43.890 -53.751  16.546  1.00  0.00     0.040 C 
BRANCH   8   9
HETATM    9  C   UNL     1     -43.658 -52.477  15.732  1.00  0.00     0.136 C 
BRANCH   9  10
HETATM   10  N   UNL     1     -44.704 -52.227  14.759  1.00  0.00    -0.288 N 
HETATM   11  C   UNL     1     -45.820 -51.474  15.008  1.00  0.00     0.226 C 
HETATM   12  O   UNL     1     -46.110 -50.920  16.058  1.00  0.00    -0.273 OA
HETATM   13  C   UNL     1     -46.681 -51.466  13.779  1.00  0.00     0.112 C 
HETATM   14  C   UNL     1     -45.788 -52.055  12.706  1.00  0.00     0.112 C 
HETATM   15  C   UNL     1     -44.689 -52.721  13.484  1.00  0.00     0.226 C 
HETATM   16  O   UNL     1     -43.897 -53.521  13.015  1.00  0.00    -0.273 OA
ENDBRANCH   9  10
ENDBRANCH   8   9
ENDBRANCH   7   8
ENDBRANCH   3   7
BRANCH   4  17
HETATM   17  C   UNL     1     -40.397 -53.378  13.139  1.00  0.00     0.168 A 
HETATM   18  N   UNL     1     -40.921 -53.742  11.990  1.00  0.00    -0.279 N 
HETATM   19  N   UNL     1     -41.372 -52.656  11.267  1.00  0.00    -0.303 N 
ATOM     20  HN  UNL     1     -40.986 -54.709  11.672  1.00  0.00     0.189 HD
HETATM   21  C   UNL     1     -41.183 -51.527  11.919  1.00  0.00     0.160 A 
ATOM     22  HN  UNL     1     -41.798 -52.720  10.343  1.00  0.00     0.186 HD
HETATM   23  S   UNL     1     -40.390 -51.699  13.434  1.00  0.00    -0.046 SA
ENDBRANCH   4  17
TORSDOF 5
ENDMDL
MODEL 7
REMARK VINA RESULT:      -5.9      3.109      5.562
REMARK  5 active torsions:
REMARK  status: ('A' for Active; 'I' for Inactive)
REMARK       I    between atoms: C_2  and  N_3 
REMARK       I    between atoms: C_2  and  N_14 
REMARK    1  A    between atoms: N_3  and  C_4 
REMARK    2  A    between atoms: C_4  and  C_5 
REMARK    3  A    between atoms: C_5  and  C_6 
REMARK    4  A    between atoms: C_6  and  N_7 
REMARK    5  A    between atoms: N_14  and  C_15 
ROOT
HETATM    1  O   UNL     1     -42.971 -48.036  13.762  1.00  0.00    -0.247 OA
HETATM    2  C   UNL     1     -43.040 -48.348  12.575  1.00  0.00     0.322 C 
HETATM    3  N   UNL     1     -43.107 -49.642  12.153  1.00  0.00    -0.343 N 
HETATM    4  N   UNL     1     -43.127 -47.372  11.632  1.00  0.00    -0.288 N 
HETATM    5  H   UNL     1     -43.096 -49.818  11.152  1.00  0.00     0.164 HD
HETATM    6  H   UNL     1     -43.209 -46.432  11.987  1.00  0.00     0.172 HD
ENDROOT
BRANCH   3   7
HETATM    7  C   UNL     1     -43.298 -50.756  13.057  1.00  0.00     0.126 C 
BRANCH   7   8
HETATM    8  C   UNL     1     -41.973 -51.353  13.542  1.00  0.00     0.040 C 
BRANCH   8   9
HETATM    9  C   UNL     1     -41.078 -51.776  12.376  1.00  0.00     0.136 C 
BRANCH   9  10
HETATM   10  N   UNL     1     -39.792 -51.107  12.376  1.00  0.00    -0.288 N 
HETATM   11  C   UNL     1     -39.523 -49.961  11.674  1.00  0.00     0.226 C 
HETATM   12  O   UNL     1     -40.293 -49.348  10.952  1.00  0.00    -0.273 OA
HETATM   13  C   UNL     1     -38.088 -49.585  11.896  1.00  0.00     0.112 C 
HETATM   14  C   UNL     1     -37.650 -50.481  13.038  1.00  0.00     0.112 C 
HETATM   15  C   UNL     1     -38.704 -51.550  13.077  1.00  0.00     0.226 C 
HETATM   16  O   UNL     1     -38.601 -52.601  13.686  1.00  0.00    -0.273 OA
ENDBRANCH   9  10
ENDBRANCH   8   9
ENDBRANCH   7   8
ENDBRANCH   3   7
BRANCH   4  17
HETATM   17  C   UNL     1     -43.246 -47.573  10.289  1.00  0.00     0.168 A 
HETATM   18  N   UNL     1     -42.327 -47.943   9.426  1.00  0.00    -0.279 N 
HETATM   19  N   UNL     1     -42.847 -48.088   8.156  1.00  0.00    -0.303 N 
ATOM     20  HN  UNL     1     -41.349 -48.105   9.666  1.00  0.00     0.189 HD
HETATM   21  C   UNL     1     -44.140 -47.839   8.130  1.00  0.00     0.160 A 
ATOM     22  HN  UNL     1     -42.298 -48.355   7.339  1.00  0.00     0.186 HD
HETATM   23  S   UNL     1     -44.806 -47.352   9.638  1.00  0.00    -0.046 SA
ENDBRANCH   4  17
TORSDOF 5
ENDMDL
MODEL 8
REMARK VINA RESULT:      -5.8      2.068      2.456
REMARK  5 active torsions:
REMARK  status: ('A' for Active; 'I' for Inactive)
REMARK       I    between atoms: C_2  and  N_3 
REMARK       I    between atoms: C_2  and  N_14 
REMARK    1  A    between atoms: N_3  and  C_4 
REMARK    2  A    between atoms: C_4  and  C_5 
REMARK    3  A    between atoms: C_5  and  C_6 
REMARK    4  A    between atoms: C_6  and  N_7 
REMARK    5  A    between atoms: N_14  and  C_15 
ROOT
HETATM    1  O   UNL     1     -43.573 -51.139  15.141  1.00  0.00    -0.247 OA
HETATM    2  C   UNL     1     -42.724 -51.242  14.257  1.00  0.00     0.322 C 
HETATM    3  N   UNL     1     -42.250 -52.444  13.823  1.00  0.00    -0.343 N 
HETATM    4  N   UNL     1     -42.281 -50.123  13.624  1.00  0.00    -0.288 N 
HETATM    5  H   UNL     1     -41.503 -52.441  13.135  1.00  0.00     0.164 HD
HETATM    6  H   UNL     1     -42.749 -49.267  13.878  1.00  0.00     0.172 HD
ENDROOT
BRANCH   3   7
HETATM    7  C   UNL     1     -42.833 -53.708  14.217  1.00  0.00     0.126 C 
BRANCH   7   8
HETATM    8  C   UNL     1     -43.638 -54.361  13.088  1.00  0.00     0.040 C 
BRANCH   8   9
HETATM    9  C   UNL     1     -45.041 -54.761  13.547  1.00  0.00     0.136 C 
BRANCH   9  10
HETATM   10  N   UNL     1     -45.822 -53.637  14.029  1.00  0.00    -0.288 N 
HETATM   11  C   UNL     1     -46.204 -53.472  15.334  1.00  0.00     0.226 C 
HETATM   12  O   UNL     1     -45.967 -54.225  16.267  1.00  0.00    -0.273 OA
HETATM   13  C   UNL     1     -47.018 -52.217  15.443  1.00  0.00     0.112 C 
HETATM   14  C   UNL     1     -46.807 -51.530  14.108  1.00  0.00     0.112 C 
HETATM   15  C   UNL     1     -46.264 -52.620  13.229  1.00  0.00     0.226 C 
HETATM   16  O   UNL     1     -46.190 -52.556  12.014  1.00  0.00    -0.273 OA
ENDBRANCH   9  10
ENDBRANCH   8   9
ENDBRANCH   7   8
ENDBRANCH   3   7
BRANCH   4  17
HETATM   17  C   UNL     1     -41.375 -50.093  12.606  1.00  0.00     0.168 A 
HETATM   18  N   UNL     1     -41.584 -50.190  11.313  1.00  0.00    -0.279 N 
HETATM   19  N   UNL     1     -40.413 -50.063  10.594  1.00  0.00    -0.303 N 
ATOM     20  HN  UNL     1     -42.501 -50.341  10.892  1.00  0.00     0.189 HD
HETATM   21  C   UNL     1     -39.380 -49.855  11.384  1.00  0.00     0.160 A 
ATOM     22  HN  UNL     1     -40.355 -50.123   9.578  1.00  0.00     0.186 HD
HETATM   23  S   UNL     1     -39.749 -49.858  13.062  1.00  0.00    -0.046 SA
ENDBRANCH   4  17
TORSDOF 5
ENDMDL
MODEL 9
REMARK VINA RESULT:      -5.8      2.933      4.806
REMARK  5 active torsions:
REMARK  status: ('A' for Active; 'I' for Inactive)
REMARK       I    between atoms: C_2  and  N_3 
REMARK       I    between atoms: C_2  and  N_14 
REMARK    1  A    between atoms: N_3  and  C_4 
REMARK    2  A    between atoms: C_4  and  C_5 
REMARK    3  A    between atoms: C_5  and  C_6 
REMARK    4  A    between atoms: C_6  and  N_7 
REMARK    5  A    between atoms: N_14  and  C_15 
ROOT
HETATM    1  O   UNL     1     -40.139 -47.322  11.092  1.00  0.00    -0.247 OA
HETATM    2  C   UNL     1     -41.163 -47.835  10.646  1.00  0.00     0.322 C 
HETATM    3  N   UNL     1     -41.401 -49.176  10.696  1.00  0.00    -0.343 N 
HETATM    4  N   UNL     1     -42.144 -47.039  10.143  1.00  0.00    -0.288 N 
HETATM    5  H   UNL     1     -42.243 -49.528  10.247  1.00  0.00     0.164 HD
HETATM    6  H   UNL     1     -41.992 -46.047  10.244  1.00  0.00     0.172 HD
ENDROOT
BRANCH   3   7
HETATM    7  C   UNL     1     -40.571 -50.096  11.444  1.00  0.00     0.126 C 
BRANCH   7   8
HETATM    8  C   UNL     1     -41.393 -51.055  12.312  1.00  0.00     0.040 C 
BRANCH   8   9
HETATM    9  C   UNL     1     -41.106 -52.518  11.971  1.00  0.00     0.136 C 
BRANCH   9  10
HETATM   10  N   UNL     1     -41.036 -53.371  13.142  1.00  0.00    -0.288 N 
HETATM   11  C   UNL     1     -39.885 -53.616  13.844  1.00  0.00     0.226 C 
HETATM   12  O   UNL     1     -38.770 -53.181  13.597  1.00  0.00    -0.273 OA
HETATM   13  C   UNL     1     -40.197 -54.561  14.966  1.00  0.00     0.112 C 
HETATM   14  C   UNL     1     -41.712 -54.594  15.004  1.00  0.00     0.112 C 
HETATM   15  C   UNL     1     -42.113 -54.025  13.672  1.00  0.00     0.226 C 
HETATM   16  O   UNL     1     -43.233 -54.102  13.198  1.00  0.00    -0.273 OA
ENDBRANCH   9  10
ENDBRANCH   8   9
ENDBRANCH   7   8
ENDBRANCH   3   7
BRANCH   4  17
HETATM   17  C   UNL     1     -43.341 -47.467   9.652  1.00  0.00     0.168 A 
HETATM   18  N   UNL     1     -44.440 -47.768  10.306  1.00  0.00    -0.279 N 
HETATM   19  N   UNL     1     -45.466 -48.116   9.450  1.00  0.00    -0.303 N 
ATOM     20  HN  UNL     1     -44.525 -47.747  11.322  1.00  0.00     0.189 HD
HETATM   21  C   UNL     1     -45.092 -48.039   8.189  1.00  0.00     0.160 A 
ATOM     22  HN  UNL     1     -46.397 -48.398   9.756  1.00  0.00     0.186 HD
HETATM   23  S   UNL     1     -43.448 -47.595   7.956  1.00  0.00    -0.046 SA
ENDBRANCH   4  17
TORSDOF 5
ENDMDL
