MODEL 1
REMARK VINA RESULT:      -5.4      0.000      0.000
REMARK  5 active torsions:
REMARK  status: ('A' for Active; 'I' for Inactive)
REMARK    1  A    between atoms: C_8  and  C_9 
REMARK    2  A    between atoms: C_9  and  N_10 
REMARK    3  A    between atoms: N_10  and  C_11 
REMARK    4  A    between atoms: C_11  and  C_12 
REMARK    5  A    between atoms: C_12  and  N_13 
ROOT
HETATM    1  N   UNL     1     -42.486 -53.683  12.495  1.00  0.00     0.085 N 
HETATM    2  H   UNL     1     -42.790 -53.105  11.710  1.00  0.00     0.315 HD
ENDROOT
BRANCH   1   3
HETATM    3  C   UNL     1     -43.253 -53.297  13.683  1.00  0.00     0.279 C 
BRANCH   3   4
HETATM    4  C   UNL     1     -44.750 -53.008  13.361  1.00  0.00     0.045 C 
HETATM    5  C   UNL     1     -45.189 -51.508  13.500  1.00  0.00    -0.009 C 
HETATM    6  C   UNL     1     -44.049 -50.493  13.706  1.00  0.00     0.011 C 
HETATM    7  C   UNL     1     -46.332 -51.164  14.473  1.00  0.00     0.009 C 
HETATM    8  C   UNL     1     -47.104 -52.288  15.144  1.00  0.00     0.028 C 
HETATM    9  C   UNL     1     -46.710 -53.677  14.802  1.00  0.00    -0.024 C 
HETATM   10  C   UNL     1     -45.681 -54.024  14.017  1.00  0.00    -0.081 C 
HETATM   11  C   UNL     1     -45.414 -55.486  13.752  1.00  0.00     0.043 C 
ENDBRANCH   3   4
ENDBRANCH   1   3
BRANCH   1  12
HETATM   12  C   UNL     1     -41.045 -53.534  12.710  1.00  0.00     0.289 C 
BRANCH  12  13
HETATM   13  C   UNL     1     -40.764 -52.197  13.403  1.00  0.00     0.159 C 
BRANCH  13  14
HETATM   14  N   UNL     1     -40.074 -51.262  12.537  1.00  0.00    -0.350 N 
HETATM   15  C   UNL     1     -38.762 -50.893  12.631  1.00  0.00     0.108 A 
HETATM   16  C   UNL     1     -38.588 -49.960  11.635  1.00  0.00     0.106 A 
HETATM   17  N   UNL     1     -39.755 -49.763  10.945  1.00  0.00    -0.361 N 
HETATM   18  C   UNL     1     -40.636 -50.552  11.514  1.00  0.00     0.182 A 
ATOM     19  HN  UNL     1     -39.908 -49.136  10.155  1.00  0.00     0.166 HD
ENDBRANCH  13  14
ENDBRANCH  12  13
ENDBRANCH   1  12
TORSDOF 5
ENDMDL
MODEL 2
REMARK VINA RESULT:      -5.3      3.214      4.532
REMARK  5 active torsions:
REMARK  status: ('A' for Active; 'I' for Inactive)
REMARK    1  A    between atoms: C_8  and  C_9 
REMARK    2  A    between atoms: C_9  and  N_10 
REMARK    3  A    between atoms: N_10  and  C_11 
REMARK    4  A    between atoms: C_11  and  C_12 
REMARK    5  A    between atoms: C_12  and  N_13 
ROOT
HETATM    1  N   UNL     1     -42.233 -50.376  11.819  1.00  0.00     0.085 N 
HETATM    2  H   UNL     1     -42.717 -50.746  10.999  1.00  0.00     0.315 HD
ENDROOT
BRANCH   1   3
HETATM    3  C   UNL     1     -42.693 -51.109  13.003  1.00  0.00     0.279 C 
BRANCH   3   4
HETATM    4  C   UNL     1     -43.208 -52.539  12.659  1.00  0.00     0.045 C 
HETATM    5  C   UNL     1     -44.753 -52.754  12.827  1.00  0.00    -0.009 C 
HETATM    6  C   UNL     1     -45.583 -51.483  13.082  1.00  0.00     0.011 C 
HETATM    7  C   UNL     1     -45.240 -53.857  13.786  1.00  0.00     0.009 C 
HETATM    8  C   UNL     1     -44.229 -54.802  14.412  1.00  0.00     0.028 C 
HETATM    9  C   UNL     1     -42.805 -54.609  14.042  1.00  0.00    -0.024 C 
HETATM   10  C   UNL     1     -42.326 -53.624  13.270  1.00  0.00    -0.081 C 
HETATM   11  C   UNL     1     -40.847 -53.571  12.972  1.00  0.00     0.043 C 
ENDBRANCH   3   4
ENDBRANCH   1   3
BRANCH   1  12
HETATM   12  C   UNL     1     -42.476 -48.937  11.946  1.00  0.00     0.289 C 
BRANCH  12  13
HETATM   13  C   UNL     1     -41.999 -48.221  10.679  1.00  0.00     0.159 C 
BRANCH  13  14
HETATM   14  N   UNL     1     -43.056 -47.456  10.047  1.00  0.00    -0.350 N 
HETATM   15  C   UNL     1     -42.890 -46.419   9.174  1.00  0.00     0.108 A 
HETATM   16  C   UNL     1     -44.166 -45.990   8.893  1.00  0.00     0.106 A 
HETATM   17  N   UNL     1     -45.091 -46.744   9.567  1.00  0.00    -0.361 N 
HETATM   18  C   UNL     1     -44.396 -47.613  10.262  1.00  0.00     0.182 A 
ATOM     19  HN  UNL     1     -46.107 -46.649   9.536  1.00  0.00     0.166 HD
ENDBRANCH  13  14
ENDBRANCH  12  13
ENDBRANCH   1  12
TORSDOF 5
ENDMDL
MODEL 3
REMARK VINA RESULT:      -5.2      2.347      3.750
REMARK  5 active torsions:
REMARK  status: ('A' for Active; 'I' for Inactive)
REMARK    1  A    between atoms: C_8  and  C_9 
REMARK    2  A    between atoms: C_9  and  N_10 
REMARK    3  A    between atoms: N_10  and  C_11 
REMARK    4  A    between atoms: C_11  and  C_12 
REMARK    5  A    between atoms: C_12  and  N_13 
ROOT
HETATM    1  N   UNL     1     -41.191 -52.345  11.346  1.00  0.00     0.085 N 
HETATM    2  H   UNL     1     -42.165 -52.203  11.075  1.00  0.00     0.315 HD
ENDROOT
BRANCH   1   3
HETATM    3  C   UNL     1     -41.104 -53.569  12.148  1.00  0.00     0.279 C 
BRANCH   3   4
HETATM    4  C   UNL     1     -41.749 -53.410  13.557  1.00  0.00     0.045 C 
HETATM    5  C   UNL     1     -40.812 -53.755  14.768  1.00  0.00    -0.009 C 
HETATM    6  C   UNL     1     -39.328 -53.979  14.423  1.00  0.00     0.011 C 
HETATM    7  C   UNL     1     -41.258 -54.853  15.751  1.00  0.00     0.009 C 
HETATM    8  C   UNL     1     -42.647 -55.454  15.619  1.00  0.00     0.028 C 
HETATM    9  C   UNL     1     -43.513 -54.923  14.537  1.00  0.00    -0.024 C 
HETATM   10  C   UNL     1     -43.146 -54.021  13.617  1.00  0.00    -0.081 C 
HETATM   11  C   UNL     1     -44.149 -53.569  12.584  1.00  0.00     0.043 C 
ENDBRANCH   3   4
ENDBRANCH   1   3
BRANCH   1  12
HETATM   12  C   UNL     1     -40.692 -51.180  12.081  1.00  0.00     0.289 C 
BRANCH  12  13
HETATM   13  C   UNL     1     -41.753 -50.076  12.075  1.00  0.00     0.159 C 
BRANCH  13  14
HETATM   14  N   UNL     1     -41.235 -48.817  11.577  1.00  0.00    -0.350 N 
HETATM   15  C   UNL     1     -40.251 -48.065  12.154  1.00  0.00     0.108 A 
HETATM   16  C   UNL     1     -40.146 -46.951  11.353  1.00  0.00     0.106 A 
HETATM   17  N   UNL     1     -41.034 -47.018  10.311  1.00  0.00    -0.361 N 
HETATM   18  C   UNL     1     -41.684 -48.146  10.475  1.00  0.00     0.182 A 
ATOM     19  HN  UNL     1     -41.163 -46.334   9.565  1.00  0.00     0.166 HD
ENDBRANCH  13  14
ENDBRANCH  12  13
ENDBRANCH   1  12
TORSDOF 5
ENDMDL
MODEL 4
REMARK VINA RESULT:      -5.2      2.122      3.604
REMARK  5 active torsions:
REMARK  status: ('A' for Active; 'I' for Inactive)
REMARK    1  A    between atoms: C_8  and  C_9 
REMARK    2  A    between atoms: C_9  and  N_10 
REMARK    3  A    between atoms: N_10  and  C_11 
REMARK    4  A    between atoms: C_11  and  C_12 
REMARK    5  A    between atoms: C_12  and  N_13 
ROOT
HETATM    1  N   UNL     1     -44.554 -52.714  16.767  1.00  0.00     0.085 N 
HETATM    2  H   UNL     1     -44.501 -52.584  17.779  1.00  0.00     0.315 HD
ENDROOT
BRANCH   1   3
HETATM    3  C   UNL     1     -45.482 -53.813  16.486  1.00  0.00     0.279 C 
BRANCH   3   4
HETATM    4  C   UNL     1     -46.430 -53.505  15.288  1.00  0.00     0.045 C 
HETATM    5  C   UNL     1     -45.977 -54.094  13.906  1.00  0.00    -0.009 C 
HETATM    6  C   UNL     1     -44.796 -55.081  13.952  1.00  0.00     0.011 C 
HETATM    7  C   UNL     1     -45.757 -53.123  12.731  1.00  0.00     0.009 C 
HETATM    8  C   UNL     1     -46.134 -51.660  12.891  1.00  0.00     0.028 C 
HETATM    9  C   UNL     1     -46.716 -51.251  14.194  1.00  0.00    -0.024 C 
HETATM   10  C   UNL     1     -46.862 -52.042  15.265  1.00  0.00    -0.081 C 
HETATM   11  C   UNL     1     -47.488 -51.480  16.518  1.00  0.00     0.043 C 
ENDBRANCH   3   4
ENDBRANCH   1   3
BRANCH   1  12
HETATM   12  C   UNL     1     -43.221 -52.977  16.219  1.00  0.00     0.289 C 
BRANCH  12  13
HETATM   13  C   UNL     1     -42.944 -52.015  15.059  1.00  0.00     0.159 C 
BRANCH  13  14
HETATM   14  N   UNL     1     -42.209 -52.648  13.982  1.00  0.00    -0.350 N 
HETATM   15  C   UNL     1     -41.361 -53.712  14.101  1.00  0.00     0.108 A 
HETATM   16  C   UNL     1     -40.873 -53.914  12.830  1.00  0.00     0.106 A 
HETATM   17  N   UNL     1     -41.409 -53.007  11.954  1.00  0.00    -0.361 N 
HETATM   18  C   UNL     1     -42.202 -52.250  12.675  1.00  0.00     0.182 A 
ATOM     19  HN  UNL     1     -41.229 -52.934  10.953  1.00  0.00     0.166 HD
ENDBRANCH  13  14
ENDBRANCH  12  13
ENDBRANCH   1  12
TORSDOF 5
ENDMDL
MODEL 5
REMARK VINA RESULT:      -5.2      2.484      3.934
REMARK  5 active torsions:
REMARK  status: ('A' for Active; 'I' for Inactive)
REMARK    1  A    between atoms: C_8  and  C_9 
REMARK    2  A    between atoms: C_9  and  N_10 
REMARK    3  A    between atoms: N_10  and  C_11 
REMARK    4  A    between atoms: C_11  and  C_12 
REMARK    5  A    between atoms: C_12  and  N_13 
ROOT
HETATM    1  N   UNL     1     -42.289 -50.901  11.927  1.00  0.00     0.085 N 
HETATM    2  H   UNL     1     -42.974 -50.657  11.209  1.00  0.00     0.315 HD
ENDROOT
BRANCH   1   3
HETATM    3  C   UNL     1     -42.989 -51.555  13.036  1.00  0.00     0.279 C 
BRANCH   3   4
HETATM    4  C   UNL     1     -43.090 -53.099  12.854  1.00  0.00     0.045 C 
HETATM    5  C   UNL     1     -44.547 -53.667  12.727  1.00  0.00    -0.009 C 
HETATM    6  C   UNL     1     -45.663 -52.618  12.566  1.00  0.00     0.011 C 
HETATM    7  C   UNL     1     -45.013 -54.726  13.742  1.00  0.00     0.009 C 
HETATM    8  C   UNL     1     -44.014 -55.306  14.729  1.00  0.00     0.028 C 
HETATM    9  C   UNL     1     -42.616 -54.815  14.641  1.00  0.00    -0.024 C 
HETATM   10  C   UNL     1     -42.179 -53.848  13.824  1.00  0.00    -0.081 C 
HETATM   11  C   UNL     1     -40.719 -53.468  13.842  1.00  0.00     0.043 C 
ENDBRANCH   3   4
ENDBRANCH   1   3
BRANCH   1  12
HETATM   12  C   UNL     1     -41.571 -49.704  12.371  1.00  0.00     0.289 C 
BRANCH  12  13
HETATM   13  C   UNL     1     -40.762 -49.128  11.205  1.00  0.00     0.159 C 
BRANCH  13  14
HETATM   14  N   UNL     1     -41.348 -47.911  10.676  1.00  0.00    -0.350 N 
HETATM   15  C   UNL     1     -42.517 -47.817   9.977  1.00  0.00     0.108 A 
HETATM   16  C   UNL     1     -42.624 -46.484   9.651  1.00  0.00     0.106 A 
HETATM   17  N   UNL     1     -41.556 -45.778  10.140  1.00  0.00    -0.361 N 
HETATM   18  C   UNL     1     -40.797 -46.663  10.744  1.00  0.00     0.182 A 
ATOM     19  HN  UNL     1     -41.385 -44.776  10.052  1.00  0.00     0.166 HD
ENDBRANCH  13  14
ENDBRANCH  12  13
ENDBRANCH   1  12
TORSDOF 5
ENDMDL
MODEL 6
REMARK VINA RESULT:      -5.1      1.689      2.205
REMARK  5 active torsions:
REMARK  status: ('A' for Active; 'I' for Inactive)
REMARK    1  A    between atoms: C_8  and  C_9 
REMARK    2  A    between atoms: C_9  and  N_10 
REMARK    3  A    between atoms: N_10  and  C_11 
REMARK    4  A    between atoms: C_11  and  C_12 
REMARK    5  A    between atoms: C_12  and  N_13 
ROOT
HETATM    1  N   UNL     1     -42.919 -51.959  12.043  1.00  0.00     0.085 N 
HETATM    2  H   UNL     1     -42.927 -50.940  11.979  1.00  0.00     0.315 HD
ENDROOT
BRANCH   1   3
HETATM    3  C   UNL     1     -43.681 -52.359  13.230  1.00  0.00     0.279 C 
BRANCH   3   4
HETATM    4  C   UNL     1     -44.569 -51.207  13.788  1.00  0.00     0.045 C 
HETATM    5  C   UNL     1     -44.136 -50.643  15.186  1.00  0.00    -0.009 C 
HETATM    6  C   UNL     1     -42.775 -51.132  15.714  1.00  0.00     0.011 C 
HETATM    7  C   UNL     1     -45.154 -50.686  16.342  1.00  0.00     0.009 C 
HETATM    8  C   UNL     1     -46.583 -51.119  16.062  1.00  0.00     0.028 C 
HETATM    9  C   UNL     1     -46.921 -51.466  14.660  1.00  0.00    -0.024 C 
HETATM   10  C   UNL     1     -46.057 -51.510  13.637  1.00  0.00    -0.081 C 
HETATM   11  C   UNL     1     -46.559 -51.870  12.260  1.00  0.00     0.043 C 
ENDBRANCH   3   4
ENDBRANCH   1   3
BRANCH   1  12
HETATM   12  C   UNL     1     -41.541 -52.454  12.092  1.00  0.00     0.289 C 
BRANCH  12  13
HETATM   13  C   UNL     1     -40.669 -51.469  12.876  1.00  0.00     0.159 C 
BRANCH  13  14
HETATM   14  N   UNL     1     -40.734 -50.125  12.336  1.00  0.00    -0.350 N 
HETATM   15  C   UNL     1     -41.285 -49.035  12.949  1.00  0.00     0.108 A 
HETATM   16  C   UNL     1     -41.153 -48.016  12.034  1.00  0.00     0.106 A 
HETATM   17  N   UNL     1     -40.535 -48.462  10.895  1.00  0.00    -0.361 N 
HETATM   18  C   UNL     1     -40.302 -49.738  11.099  1.00  0.00     0.182 A 
ATOM     19  HN  UNL     1     -40.304 -47.918  10.063  1.00  0.00     0.166 HD
ENDBRANCH  13  14
ENDBRANCH  12  13
ENDBRANCH   1  12
TORSDOF 5
ENDMDL
MODEL 7
REMARK VINA RESULT:      -4.9      2.016      2.866
REMARK  5 active torsions:
REMARK  status: ('A' for Active; 'I' for Inactive)
REMARK    1  A    between atoms: C_8  and  C_9 
REMARK    2  A    between atoms: C_9  and  N_10 
REMARK    3  A    between atoms: N_10  and  C_11 
REMARK    4  A    between atoms: C_11  and  C_12 
REMARK    5  A    between atoms: C_12  and  N_13 
ROOT
HETATM    1  N   UNL     1     -43.219 -52.098  12.486  1.00  0.00     0.085 N 
HETATM    2  H   UNL     1     -43.178 -51.780  13.456  1.00  0.00     0.315 HD
ENDROOT
BRANCH   1   3
HETATM    3  C   UNL     1     -44.116 -53.255  12.413  1.00  0.00     0.279 C 
BRANCH   3   4
HETATM    4  C   UNL     1     -45.121 -53.311  13.602  1.00  0.00     0.045 C 
HETATM    5  C   UNL     1     -46.422 -52.452  13.422  1.00  0.00    -0.009 C 
HETATM    6  C   UNL     1     -46.644 -51.859  12.019  1.00  0.00     0.011 C 
HETATM    7  C   UNL     1     -46.735 -51.365  14.468  1.00  0.00     0.009 C 
HETATM    8  C   UNL     1     -45.875 -51.261  15.716  1.00  0.00     0.028 C 
HETATM    9  C   UNL     1     -44.772 -52.243  15.861  1.00  0.00    -0.024 C 
HETATM   10  C   UNL     1     -44.419 -53.159  14.949  1.00  0.00    -0.081 C 
HETATM   11  C   UNL     1     -43.279 -54.100  15.250  1.00  0.00     0.043 C 
ENDBRANCH   3   4
ENDBRANCH   1   3
BRANCH   1  12
HETATM   12  C   UNL     1     -41.876 -52.422  11.999  1.00  0.00     0.289 C 
BRANCH  12  13
HETATM   13  C   UNL     1     -40.829 -51.779  12.912  1.00  0.00     0.159 C 
BRANCH  13  14
HETATM   14  N   UNL     1     -40.205 -52.742  13.799  1.00  0.00    -0.350 N 
HETATM   15  C   UNL     1     -39.660 -52.476  15.022  1.00  0.00     0.108 A 
HETATM   16  C   UNL     1     -39.154 -53.683  15.450  1.00  0.00     0.106 A 
HETATM   17  N   UNL     1     -39.387 -54.663  14.520  1.00  0.00    -0.361 N 
HETATM   18  C   UNL     1     -40.013 -54.068  13.532  1.00  0.00     0.182 A 
ATOM     19  HN  UNL     1     -39.128 -55.648  14.583  1.00  0.00     0.166 HD
ENDBRANCH  13  14
ENDBRANCH  12  13
ENDBRANCH   1  12
TORSDOF 5
ENDMDL
MODEL 8
REMARK VINA RESULT:      -4.9      1.590      2.183
REMARK  5 active torsions:
REMARK  status: ('A' for Active; 'I' for Inactive)
REMARK    1  A    between atoms: C_8  and  C_9 
REMARK    2  A    between atoms: C_9  and  N_10 
REMARK    3  A    between atoms: N_10  and  C_11 
REMARK    4  A    between atoms: C_11  and  C_12 
REMARK    5  A    between atoms: C_12  and  N_13 
ROOT
HETATM    1  N   UNL     1     -43.064 -53.163  15.310  1.00  0.00     0.085 N 
HETATM    2  H   UNL     1     -43.326 -52.841  16.243  1.00  0.00     0.315 HD
ENDROOT
BRANCH   1   3
HETATM    3  C   UNL     1     -43.874 -54.338  14.978  1.00  0.00     0.279 C 
BRANCH   3   4
HETATM    4  C   UNL     1     -45.387 -53.999  14.823  1.00  0.00     0.045 C 
HETATM    5  C   UNL     1     -45.786 -53.313  13.469  1.00  0.00    -0.009 C 
HETATM    6  C   UNL     1     -44.689 -53.275  12.389  1.00  0.00     0.011 C 
HETATM    7  C   UNL     1     -46.472 -51.935  13.518  1.00  0.00     0.009 C 
HETATM    8  C   UNL     1     -46.886 -51.355  14.860  1.00  0.00     0.028 C 
HETATM    9  C   UNL     1     -46.610 -52.176  16.065  1.00  0.00    -0.024 C 
HETATM   10  C   UNL     1     -45.956 -53.345  16.079  1.00  0.00    -0.081 C 
HETATM   11  C   UNL     1     -45.767 -54.070  17.389  1.00  0.00     0.043 C 
ENDBRANCH   3   4
ENDBRANCH   1   3
BRANCH   1  12
HETATM   12  C   UNL     1     -41.631 -53.461  15.258  1.00  0.00     0.289 C 
BRANCH  12  13
HETATM   13  C   UNL     1     -41.242 -53.868  13.833  1.00  0.00     0.159 C 
BRANCH  13  14
HETATM   14  N   UNL     1     -40.793 -52.740  13.041  1.00  0.00    -0.350 N 
HETATM   15  C   UNL     1     -39.843 -51.828  13.402  1.00  0.00     0.108 A 
HETATM   16  C   UNL     1     -39.802 -50.932  12.358  1.00  0.00     0.106 A 
HETATM   17  N   UNL     1     -40.697 -51.285  11.381  1.00  0.00    -0.361 N 
HETATM   18  C   UNL     1     -41.287 -52.371  11.822  1.00  0.00     0.182 A 
ATOM     19  HN  UNL     1     -40.868 -50.805  10.498  1.00  0.00     0.166 HD
ENDBRANCH  13  14
ENDBRANCH  12  13
ENDBRANCH   1  12
TORSDOF 5
ENDMDL
MODEL 9
REMARK VINA RESULT:      -4.9      0.956      2.486
REMARK  5 active torsions:
REMARK  status: ('A' for Active; 'I' for Inactive)
REMARK    1  A    between atoms: C_8  and  C_9 
REMARK    2  A    between atoms: C_9  and  N_10 
REMARK    3  A    between atoms: N_10  and  C_11 
REMARK    4  A    between atoms: C_11  and  C_12 
REMARK    5  A    between atoms: C_12  and  N_13 
ROOT
HETATM    1  N   UNL     1     -42.427 -53.492  12.448  1.00  0.00     0.085 N 
HETATM    2  H   UNL     1     -42.336 -54.288  11.814  1.00  0.00     0.315 HD
ENDROOT
BRANCH   1   3
HETATM    3  C   UNL     1     -43.843 -53.119  12.528  1.00  0.00     0.279 C 
BRANCH   3   4
HETATM    4  C   UNL     1     -44.316 -52.873  13.992  1.00  0.00     0.045 C 
HETATM    5  C   UNL     1     -45.241 -53.988  14.594  1.00  0.00    -0.009 C 
HETATM    6  C   UNL     1     -45.371 -55.275  13.758  1.00  0.00     0.011 C 
HETATM    7  C   UNL     1     -46.641 -53.588  15.098  1.00  0.00     0.009 C 
HETATM    8  C   UNL     1     -47.025 -52.119  15.147  1.00  0.00     0.028 C 
HETATM    9  C   UNL     1     -46.000 -51.138  14.711  1.00  0.00    -0.024 C 
HETATM   10  C   UNL     1     -44.798 -51.440  14.202  1.00  0.00    -0.081 C 
HETATM   11  C   UNL     1     -43.857 -50.325  13.816  1.00  0.00     0.043 C 
ENDBRANCH   3   4
ENDBRANCH   1   3
BRANCH   1  12
HETATM   12  C   UNL     1     -41.599 -52.376  11.985  1.00  0.00     0.289 C 
BRANCH  12  13
HETATM   13  C   UNL     1     -40.369 -52.240  12.888  1.00  0.00     0.159 C 
BRANCH  13  14
HETATM   14  N   UNL     1     -39.654 -51.000  12.661  1.00  0.00    -0.350 N 
HETATM   15  C   UNL     1     -39.898 -50.099  11.664  1.00  0.00     0.108 A 
HETATM   16  C   UNL     1     -38.940 -49.125  11.830  1.00  0.00     0.106 A 
HETATM   17  N   UNL     1     -38.134 -49.414  12.900  1.00  0.00    -0.361 N 
HETATM   18  C   UNL     1     -38.579 -50.553  13.377  1.00  0.00     0.182 A 
ATOM     19  HN  UNL     1     -37.352 -48.861  13.252  1.00  0.00     0.166 HD
ENDBRANCH  13  14
ENDBRANCH  12  13
ENDBRANCH   1  12
TORSDOF 5
ENDMDL
