MODEL 1
REMARK VINA RESULT:      -7.0      0.000      0.000
REMARK  10 active torsions:
REMARK  status: ('A' for Active; 'I' for Inactive)
REMARK    1  A    between atoms: N_1  and  C_9 
REMARK    2  A    between atoms: C_6  and  N_8 
REMARK    3  A    between atoms: C_14  and  C_27 
REMARK    4  A    between atoms: C_14  and  C_28 
REMARK    5  A    between atoms: C_21  and  C_29 
REMARK    6  A    between atoms: C_23  and  C_32 
REMARK    7  A    between atoms: O_25  and  C_32 
REMARK    8  A    between atoms: O_25  and  C_29 
REMARK    9  A    between atoms: C_27  and  O_31 
REMARK   10  A    between atoms: C_28  and  O_30 
ROOT
HETATM    1  N   UNL     1     -42.014 -49.060  12.455  1.00  0.00    -0.322 N 
HETATM    2  C   UNL     1     -41.964 -51.060  13.321  1.00  0.00     0.122 A 
HETATM    3  C   UNL     1     -41.164 -50.117  12.672  1.00  0.00     0.140 A 
HETATM    4  N   UNL     1     -43.253 -50.589  13.472  1.00  0.00    -0.346 N 
ATOM      5  HN  UNL     1     -44.043 -51.071  13.901  1.00  0.00     0.167 HD
HETATM    6  C   UNL     1     -41.389 -52.301  13.699  1.00  0.00     0.135 A 
HETATM    7  C   UNL     1     -43.245 -49.392  12.946  1.00  0.00     0.185 A 
HETATM    8  N   UNL     1     -39.868 -50.266  12.348  1.00  0.00    -0.336 N 
ATOM      9  HN  UNL     1     -39.302 -49.557  11.881  1.00  0.00     0.168 HD
HETATM   10  N   UNL     1     -40.083 -52.484  13.356  1.00  0.00    -0.337 N 
ATOM     11  HN  UNL     1     -39.611 -53.362  13.571  1.00  0.00     0.168 HD
HETATM   12  C   UNL     1     -39.417 -51.483  12.726  1.00  0.00     0.183 A 
ENDROOT
BRANCH   6  13
HETATM   13  N   UNL     1     -42.124 -53.316  14.322  1.00  0.00    -0.361 N 
HETATM   14  C   UNL     1     -43.338 -53.807  13.642  1.00  0.00     0.158 C 
HETATM   15  C   UNL     1     -44.151 -54.690  14.627  1.00  0.00     0.163 C 
HETATM   16  O   UNL     1     -43.329 -55.776  15.125  1.00  0.00    -0.381 OA
HETATM   17  C   UNL     1     -42.201 -55.253  15.835  1.00  0.00     0.188 C 
HETATM   18  C   UNL     1     -41.320 -54.409  14.907  1.00  0.00     0.151 C 
BRANCH  15  19
HETATM   19  C   UNL     1     -45.379 -55.301  13.942  1.00  0.00     0.201 C 
BRANCH  19  20
HETATM   20  O   UNL     1     -46.558 -54.952  14.681  1.00  0.00    -0.388 OA
BRANCH  20  21
HETATM   21  C   UNL     1     -46.340 -53.835  15.537  1.00  0.00     0.172 C 
BRANCH  21  22
HETATM   22  C   UNL     1     -47.206 -52.707  15.072  1.00  0.00     0.009 A 
HETATM   23  C   UNL     1     -46.593 -51.514  14.381  1.00  0.00     0.007 A 
HETATM   24  C   UNL     1     -47.170 -51.368  15.762  1.00  0.00     0.007 A 
ENDBRANCH  21  22
ENDBRANCH  20  21
ENDBRANCH  19  20
ENDBRANCH  15  19
ENDBRANCH   6  13
BRANCH   1  25
HETATM   25  C   UNL     1     -41.833 -47.790  11.815  1.00  0.00     0.094 C 
HETATM   26  C   UNL     1     -43.090 -46.877  11.788  1.00  0.00     0.039 C 
HETATM   27  C   UNL     1     -42.494 -46.265  10.467  1.00  0.00     0.006 C 
HETATM   28  C   UNL     1     -41.899 -47.712  10.266  1.00  0.00     0.039 C 
BRANCH  27  29
HETATM   29  C   UNL     1     -43.517 -45.849   9.413  1.00  0.00     0.175 C 
BRANCH  29  30
HETATM   30  O   UNL     1     -43.689 -44.433   9.455  1.00  0.00    -0.400 OA
HETATM   31  H   UNL     1     -43.419 -44.139  10.345  1.00  0.00     0.209 HD
ENDBRANCH  29  30
ENDBRANCH  27  29
BRANCH  27  32
HETATM   32  C   UNL     1     -41.426 -45.165  10.653  1.00  0.00     0.175 C 
BRANCH  32  33
HETATM   33  O   UNL     1     -40.605 -45.078   9.494  1.00  0.00    -0.400 OA
HETATM   34  H   UNL     1     -39.995 -44.326   9.642  1.00  0.00     0.209 HD
ENDBRANCH  32  33
ENDBRANCH  27  32
ENDBRANCH   1  25
TORSDOF 10
ENDMDL
MODEL 2
REMARK VINA RESULT:      -6.7      1.495      2.072
REMARK  10 active torsions:
REMARK  status: ('A' for Active; 'I' for Inactive)
REMARK    1  A    between atoms: N_1  and  C_9 
REMARK    2  A    between atoms: C_6  and  N_8 
REMARK    3  A    between atoms: C_14  and  C_27 
REMARK    4  A    between atoms: C_14  and  C_28 
REMARK    5  A    between atoms: C_21  and  C_29 
REMARK    6  A    between atoms: C_23  and  C_32 
REMARK    7  A    between atoms: O_25  and  C_32 
REMARK    8  A    between atoms: O_25  and  C_29 
REMARK    9  A    between atoms: C_27  and  O_31 
REMARK   10  A    between atoms: C_28  and  O_30 
ROOT
HETATM    1  N   UNL     1     -42.369 -49.485  12.241  1.00  0.00    -0.322 N 
HETATM    2  C   UNL     1     -42.864 -51.468  12.999  1.00  0.00     0.122 A 
HETATM    3  C   UNL     1     -41.947 -50.791  12.190  1.00  0.00     0.140 A 
HETATM    4  N   UNL     1     -43.810 -50.598  13.502  1.00  0.00    -0.346 N 
ATOM      5  HN  UNL     1     -44.598 -50.823  14.111  1.00  0.00     0.167 HD
HETATM    6  C   UNL     1     -42.720 -52.869  13.170  1.00  0.00     0.135 A 
HETATM    7  C   UNL     1     -43.482 -49.424  13.032  1.00  0.00     0.185 A 
HETATM    8  N   UNL     1     -40.917 -51.342  11.529  1.00  0.00    -0.336 N 
ATOM      9  HN  UNL     1     -40.255 -50.824  10.950  1.00  0.00     0.168 HD
HETATM   10  N   UNL     1     -41.696 -53.453  12.486  1.00  0.00    -0.337 N 
ATOM     11  HN  UNL     1     -41.548 -54.461  12.539  1.00  0.00     0.168 HD
HETATM   12  C   UNL     1     -40.875 -52.678  11.733  1.00  0.00     0.183 A 
ENDROOT
BRANCH   6  13
HETATM   13  N   UNL     1     -43.610 -53.633  13.933  1.00  0.00    -0.361 N 
HETATM   14  C   UNL     1     -43.798 -53.265  15.349  1.00  0.00     0.158 C 
HETATM   15  C   UNL     1     -44.570 -54.401  16.073  1.00  0.00     0.163 C 
HETATM   16  O   UNL     1     -45.832 -54.656  15.405  1.00  0.00    -0.381 OA
HETATM   17  C   UNL     1     -45.598 -55.077  14.056  1.00  0.00     0.188 C 
HETATM   18  C   UNL     1     -44.881 -53.977  13.263  1.00  0.00     0.151 C 
BRANCH  15  19
HETATM   19  C   UNL     1     -44.872 -54.029  17.529  1.00  0.00     0.201 C 
BRANCH  19  20
HETATM   20  O   UNL     1     -46.186 -53.460  17.611  1.00  0.00    -0.388 OA
BRANCH  20  21
HETATM   21  C   UNL     1     -46.176 -52.185  18.247  1.00  0.00     0.172 C 
BRANCH  21  22
HETATM   22  C   UNL     1     -46.633 -51.159  17.259  1.00  0.00     0.009 A 
HETATM   23  C   UNL     1     -48.105 -50.874  17.086  1.00  0.00     0.007 A 
HETATM   24  C   UNL     1     -47.340 -51.566  15.991  1.00  0.00     0.007 A 
ENDBRANCH  21  22
ENDBRANCH  20  21
ENDBRANCH  19  20
ENDBRANCH  15  19
ENDBRANCH   6  13
BRANCH   1  25
HETATM   25  C   UNL     1     -41.885 -48.288  11.618  1.00  0.00     0.094 C 
HETATM   26  C   UNL     1     -42.816 -47.050  11.747  1.00  0.00     0.039 C 
HETATM   27  C   UNL     1     -42.194 -46.565  10.385  1.00  0.00     0.006 C 
HETATM   28  C   UNL     1     -42.071 -48.109  10.087  1.00  0.00     0.039 C 
BRANCH  27  29
HETATM   29  C   UNL     1     -43.145 -45.815   9.457  1.00  0.00     0.175 C 
BRANCH  29  30
HETATM   30  O   UNL     1     -42.648 -45.878   8.121  1.00  0.00    -0.400 OA
HETATM   31  H   UNL     1     -41.676 -45.820   8.175  1.00  0.00     0.209 HD
ENDBRANCH  29  30
ENDBRANCH  27  29
BRANCH  27  32
HETATM   32  C   UNL     1     -40.838 -45.833  10.484  1.00  0.00     0.175 C 
BRANCH  32  33
HETATM   33  O   UNL     1     -41.006 -44.450  10.194  1.00  0.00    -0.400 OA
HETATM   34  H   UNL     1     -40.645 -43.960  10.961  1.00  0.00     0.209 HD
ENDBRANCH  32  33
ENDBRANCH  27  32
ENDBRANCH   1  25
TORSDOF 10
ENDMDL
MODEL 3
REMARK VINA RESULT:      -6.7      1.981      7.970
REMARK  10 active torsions:
REMARK  status: ('A' for Active; 'I' for Inactive)
REMARK    1  A    between atoms: N_1  and  C_9 
REMARK    2  A    between atoms: C_6  and  N_8 
REMARK    3  A    between atoms: C_14  and  C_27 
REMARK    4  A    between atoms: C_14  and  C_28 
REMARK    5  A    between atoms: C_21  and  C_29 
REMARK    6  A    between atoms: C_23  and  C_32 
REMARK    7  A    between atoms: O_25  and  C_32 
REMARK    8  A    between atoms: O_25  and  C_29 
REMARK    9  A    between atoms: C_27  and  O_31 
REMARK   10  A    between atoms: C_28  and  O_30 
ROOT
HETATM    1  N   UNL     1     -42.538 -51.308  12.918  1.00  0.00    -0.322 N 
HETATM    2  C   UNL     1     -41.865 -49.521  11.865  1.00  0.00     0.122 A 
HETATM    3  C   UNL     1     -41.435 -50.780  12.291  1.00  0.00     0.140 A 
HETATM    4  N   UNL     1     -43.176 -49.298  12.238  1.00  0.00    -0.346 N 
ATOM      5  HN  UNL     1     -43.736 -48.463  12.065  1.00  0.00     0.167 HD
HETATM    6  C   UNL     1     -40.953 -48.688  11.167  1.00  0.00     0.135 A 
HETATM    7  C   UNL     1     -43.545 -50.386  12.861  1.00  0.00     0.185 A 
HETATM    8  N   UNL     1     -40.209 -51.300  12.114  1.00  0.00    -0.336 N 
ATOM      9  HN  UNL     1     -39.922 -52.228  12.428  1.00  0.00     0.168 HD
HETATM   10  N   UNL     1     -39.696 -49.186  10.999  1.00  0.00    -0.337 N 
ATOM     11  HN  UNL     1     -38.979 -48.631  10.530  1.00  0.00     0.168 HD
HETATM   12  C   UNL     1     -39.408 -50.428  11.463  1.00  0.00     0.183 A 
ENDROOT
BRANCH   6  13
HETATM   13  N   UNL     1     -41.287 -47.399  10.733  1.00  0.00    -0.361 N 
HETATM   14  C   UNL     1     -42.624 -47.193  10.145  1.00  0.00     0.158 C 
HETATM   15  C   UNL     1     -42.671 -45.798   9.464  1.00  0.00     0.163 C 
HETATM   16  O   UNL     1     -42.330 -44.761  10.418  1.00  0.00    -0.381 OA
HETATM   17  C   UNL     1     -41.000 -44.963  10.910  1.00  0.00     0.188 C 
HETATM   18  C   UNL     1     -40.892 -46.305  11.644  1.00  0.00     0.151 C 
BRANCH  15  19
HETATM   19  C   UNL     1     -44.070 -45.495   8.915  1.00  0.00     0.201 C 
BRANCH  19  20
HETATM   20  O   UNL     1     -44.755 -46.727   8.653  1.00  0.00    -0.388 OA
BRANCH  20  21
HETATM   21  C   UNL     1     -45.864 -46.917   9.526  1.00  0.00     0.172 C 
BRANCH  21  22
HETATM   22  C   UNL     1     -46.869 -47.783   8.835  1.00  0.00     0.009 A 
HETATM   23  C   UNL     1     -47.030 -49.229   9.236  1.00  0.00     0.007 A 
HETATM   24  C   UNL     1     -46.432 -48.882   7.900  1.00  0.00     0.007 A 
ENDBRANCH  21  22
ENDBRANCH  20  21
ENDBRANCH  19  20
ENDBRANCH  15  19
ENDBRANCH   6  13
BRANCH   1  25
HETATM   25  C   UNL     1     -42.763 -52.551  13.593  1.00  0.00     0.094 C 
HETATM   26  C   UNL     1     -43.658 -53.567  12.832  1.00  0.00     0.039 C 
HETATM   27  C   UNL     1     -44.071 -54.114  14.248  1.00  0.00     0.006 C 
HETATM   28  C   UNL     1     -43.848 -52.620  14.702  1.00  0.00     0.039 C 
BRANCH  27  29
HETATM   29  C   UNL     1     -45.512 -54.604  14.371  1.00  0.00     0.175 C 
BRANCH  29  30
HETATM   30  O   UNL     1     -45.580 -55.973  13.974  1.00  0.00    -0.400 OA
HETATM   31  H   UNL     1     -44.733 -56.386  14.228  1.00  0.00     0.209 HD
ENDBRANCH  29  30
ENDBRANCH  27  29
BRANCH  27  32
HETATM   32  C   UNL     1     -43.096 -55.121  14.894  1.00  0.00     0.175 C 
BRANCH  32  33
HETATM   33  O   UNL     1     -43.565 -55.499  16.184  1.00  0.00    -0.400 OA
HETATM   34  H   UNL     1     -43.647 -56.474  16.175  1.00  0.00     0.209 HD
ENDBRANCH  32  33
ENDBRANCH  27  32
ENDBRANCH   1  25
TORSDOF 10
ENDMDL
MODEL 4
REMARK VINA RESULT:      -6.4      2.077      2.803
REMARK  10 active torsions:
REMARK  status: ('A' for Active; 'I' for Inactive)
REMARK    1  A    between atoms: N_1  and  C_9 
REMARK    2  A    between atoms: C_6  and  N_8 
REMARK    3  A    between atoms: C_14  and  C_27 
REMARK    4  A    between atoms: C_14  and  C_28 
REMARK    5  A    between atoms: C_21  and  C_29 
REMARK    6  A    between atoms: C_23  and  C_32 
REMARK    7  A    between atoms: O_25  and  C_32 
REMARK    8  A    between atoms: O_25  and  C_29 
REMARK    9  A    between atoms: C_27  and  O_31 
REMARK   10  A    between atoms: C_28  and  O_30 
ROOT
HETATM    1  N   UNL     1     -41.058 -47.288  12.305  1.00  0.00    -0.322 N 
HETATM    2  C   UNL     1     -41.051 -49.435  12.684  1.00  0.00     0.122 A 
HETATM    3  C   UNL     1     -40.302 -48.415  12.091  1.00  0.00     0.140 A 
HETATM    4  N   UNL     1     -42.222 -48.936  13.219  1.00  0.00    -0.346 N 
ATOM      5  HN  UNL     1     -42.955 -49.458  13.701  1.00  0.00     0.167 HD
HETATM    6  C   UNL     1     -40.550 -50.762  12.644  1.00  0.00     0.135 A 
HETATM    7  C   UNL     1     -42.190 -47.652  12.977  1.00  0.00     0.185 A 
HETATM    8  N   UNL     1     -39.126 -48.561  11.459  1.00  0.00    -0.336 N 
ATOM      9  HN  UNL     1     -38.594 -47.797  11.041  1.00  0.00     0.168 HD
HETATM   10  N   UNL     1     -39.370 -50.937  11.984  1.00  0.00    -0.337 N 
ATOM     11  HN  UNL     1     -38.964 -51.868  11.892  1.00  0.00     0.168 HD
HETATM   12  C   UNL     1     -38.743 -49.858  11.452  1.00  0.00     0.183 A 
ENDROOT
BRANCH   6  13
HETATM   13  N   UNL     1     -41.248 -51.850  13.181  1.00  0.00    -0.361 N 
HETATM   14  C   UNL     1     -42.364 -52.411  12.396  1.00  0.00     0.158 C 
HETATM   15  C   UNL     1     -43.177 -53.384  13.292  1.00  0.00     0.163 C 
HETATM   16  O   UNL     1     -42.313 -54.419  13.825  1.00  0.00    -0.381 OA
HETATM   17  C   UNL     1     -41.288 -53.833  14.635  1.00  0.00     0.188 C 
HETATM   18  C   UNL     1     -40.408 -52.895  13.801  1.00  0.00     0.151 C 
BRANCH  15  19
HETATM   19  C   UNL     1     -44.297 -54.067  12.497  1.00  0.00     0.201 C 
BRANCH  19  20
HETATM   20  O   UNL     1     -45.510 -53.315  12.643  1.00  0.00    -0.388 OA
BRANCH  20  21
HETATM   21  C   UNL     1     -45.922 -53.228  14.003  1.00  0.00     0.172 C 
BRANCH  21  22
HETATM   22  C   UNL     1     -46.330 -51.816  14.285  1.00  0.00     0.009 A 
HETATM   23  C   UNL     1     -45.754 -51.082  15.471  1.00  0.00     0.007 A 
HETATM   24  C   UNL     1     -47.203 -51.483  15.467  1.00  0.00     0.007 A 
ENDBRANCH  21  22
ENDBRANCH  20  21
ENDBRANCH  19  20
ENDBRANCH  15  19
ENDBRANCH   6  13
BRANCH   1  25
HETATM   25  C   UNL     1     -40.874 -45.917  11.932  1.00  0.00     0.094 C 
HETATM   26  C   UNL     1     -39.650 -45.211  12.579  1.00  0.00     0.039 C 
HETATM   27  C   UNL     1     -40.473 -43.877  12.444  1.00  0.00     0.006 C 
HETATM   28  C   UNL     1     -41.718 -44.824  12.644  1.00  0.00     0.039 C 
BRANCH  27  29
HETATM   29  C   UNL     1     -40.266 -42.859  13.563  1.00  0.00     0.175 C 
BRANCH  29  30
HETATM   30  O   UNL     1     -39.121 -42.061  13.268  1.00  0.00    -0.400 OA
HETATM   31  H   UNL     1     -39.413 -41.130  13.278  1.00  0.00     0.209 HD
ENDBRANCH  29  30
ENDBRANCH  27  29
BRANCH  27  32
HETATM   32  C   UNL     1     -40.420 -43.187  11.064  1.00  0.00     0.175 C 
BRANCH  32  33
HETATM   33  O   UNL     1     -40.848 -41.835  11.175  1.00  0.00    -0.400 OA
HETATM   34  H   UNL     1     -40.592 -41.535  12.071  1.00  0.00     0.209 HD
ENDBRANCH  32  33
ENDBRANCH  27  32
ENDBRANCH   1  25
TORSDOF 10
ENDMDL
MODEL 5
REMARK VINA RESULT:      -6.2      3.118      4.890
REMARK  10 active torsions:
REMARK  status: ('A' for Active; 'I' for Inactive)
REMARK    1  A    between atoms: N_1  and  C_9 
REMARK    2  A    between atoms: C_6  and  N_8 
REMARK    3  A    between atoms: C_14  and  C_27 
REMARK    4  A    between atoms: C_14  and  C_28 
REMARK    5  A    between atoms: C_21  and  C_29 
REMARK    6  A    between atoms: C_23  and  C_32 
REMARK    7  A    between atoms: O_25  and  C_32 
REMARK    8  A    between atoms: O_25  and  C_29 
REMARK    9  A    between atoms: C_27  and  O_31 
REMARK   10  A    between atoms: C_28  and  O_30 
ROOT
HETATM    1  N   UNL     1     -41.252 -44.902  11.665  1.00  0.00    -0.322 N 
HETATM    2  C   UNL     1     -41.128 -47.078  11.702  1.00  0.00     0.122 A 
HETATM    3  C   UNL     1     -41.711 -46.017  11.006  1.00  0.00     0.140 A 
HETATM    4  N   UNL     1     -40.361 -46.615  12.753  1.00  0.00    -0.346 N 
ATOM      5  HN  UNL     1     -39.833 -47.169  13.427  1.00  0.00     0.167 HD
HETATM    6  C   UNL     1     -41.399 -48.405  11.277  1.00  0.00     0.135 A 
HETATM    7  C   UNL     1     -40.456 -45.312  12.698  1.00  0.00     0.185 A 
HETATM    8  N   UNL     1     -42.532 -46.119   9.948  1.00  0.00    -0.336 N 
ATOM      9  HN  UNL     1     -42.938 -45.326   9.451  1.00  0.00     0.168 HD
HETATM   10  N   UNL     1     -42.251 -48.533  10.222  1.00  0.00    -0.337 N 
ATOM     11  HN  UNL     1     -42.513 -49.457   9.878  1.00  0.00     0.168 HD
HETATM   12  C   UNL     1     -42.748 -47.416   9.633  1.00  0.00     0.183 A 
ENDROOT
BRANCH   6  13
HETATM   13  N   UNL     1     -40.886 -49.529  11.935  1.00  0.00    -0.361 N 
HETATM   14  C   UNL     1     -41.783 -50.684  12.130  1.00  0.00     0.158 C 
HETATM   15  C   UNL     1     -41.127 -51.675  13.129  1.00  0.00     0.163 C 
HETATM   16  O   UNL     1     -39.817 -52.077  12.653  1.00  0.00    -0.381 OA
HETATM   17  C   UNL     1     -38.962 -50.934  12.545  1.00  0.00     0.188 C 
HETATM   18  C   UNL     1     -39.523 -49.930  11.531  1.00  0.00     0.151 C 
BRANCH  15  19
HETATM   19  C   UNL     1     -41.977 -52.940  13.297  1.00  0.00     0.201 C 
BRANCH  19  20
HETATM   20  O   UNL     1     -43.259 -52.735  12.688  1.00  0.00    -0.388 OA
BRANCH  20  21
HETATM   21  C   UNL     1     -44.318 -52.803  13.639  1.00  0.00     0.172 C 
BRANCH  21  22
HETATM   22  C   UNL     1     -45.163 -51.577  13.494  1.00  0.00     0.009 A 
HETATM   23  C   UNL     1     -46.448 -51.443  14.274  1.00  0.00     0.007 A 
HETATM   24  C   UNL     1     -46.491 -51.630  12.783  1.00  0.00     0.007 A 
ENDBRANCH  21  22
ENDBRANCH  20  21
ENDBRANCH  19  20
ENDBRANCH  15  19
ENDBRANCH   6  13
BRANCH   1  25
HETATM   25  C   UNL     1     -41.489 -43.502  11.476  1.00  0.00     0.094 C 
HETATM   26  C   UNL     1     -40.430 -42.558  12.109  1.00  0.00     0.039 C 
HETATM   27  C   UNL     1     -41.589 -41.503  12.236  1.00  0.00     0.006 C 
HETATM   28  C   UNL     1     -42.502 -42.778  12.405  1.00  0.00     0.039 C 
BRANCH  27  29
HETATM   29  C   UNL     1     -41.528 -40.600  13.465  1.00  0.00     0.175 C 
BRANCH  29  30
HETATM   30  O   UNL     1     -42.424 -39.504  13.291  1.00  0.00    -0.400 OA
HETATM   31  H   UNL     1     -42.300 -39.176  12.382  1.00  0.00     0.209 HD
ENDBRANCH  29  30
ENDBRANCH  27  29
BRANCH  27  32
HETATM   32  C   UNL     1     -41.892 -40.675  10.968  1.00  0.00     0.175 C 
BRANCH  32  33
HETATM   33  O   UNL     1     -40.990 -39.579  10.871  1.00  0.00    -0.400 OA
HETATM   34  H   UNL     1     -40.113 -39.916  11.144  1.00  0.00     0.209 HD
ENDBRANCH  32  33
ENDBRANCH  27  32
ENDBRANCH   1  25
TORSDOF 10
ENDMDL
MODEL 6
REMARK VINA RESULT:      -6.2      3.203      5.459
REMARK  10 active torsions:
REMARK  status: ('A' for Active; 'I' for Inactive)
REMARK    1  A    between atoms: N_1  and  C_9 
REMARK    2  A    between atoms: C_6  and  N_8 
REMARK    3  A    between atoms: C_14  and  C_27 
REMARK    4  A    between atoms: C_14  and  C_28 
REMARK    5  A    between atoms: C_21  and  C_29 
REMARK    6  A    between atoms: C_23  and  C_32 
REMARK    7  A    between atoms: O_25  and  C_32 
REMARK    8  A    between atoms: O_25  and  C_29 
REMARK    9  A    between atoms: C_27  and  O_31 
REMARK   10  A    between atoms: C_28  and  O_30 
ROOT
HETATM    1  N   UNL     1     -40.754 -45.018  11.620  1.00  0.00    -0.322 N 
HETATM    2  C   UNL     1     -40.225 -47.129  11.747  1.00  0.00     0.122 A 
HETATM    3  C   UNL     1     -41.077 -46.242  11.085  1.00  0.00     0.140 A 
HETATM    4  N   UNL     1     -39.432 -46.460  12.659  1.00  0.00    -0.346 N 
ATOM      5  HN  UNL     1     -38.730 -46.862  13.281  1.00  0.00     0.167 HD
HETATM    6  C   UNL     1     -40.296 -48.510  11.429  1.00  0.00     0.135 A 
HETATM    7  C   UNL     1     -39.773 -45.203  12.553  1.00  0.00     0.185 A 
HETATM    8  N   UNL     1     -41.991 -46.565  10.156  1.00  0.00    -0.336 N 
ATOM      9  HN  UNL     1     -42.596 -45.896   9.680  1.00  0.00     0.168 HD
HETATM   10  N   UNL     1     -41.235 -48.864  10.507  1.00  0.00    -0.337 N 
ATOM     11  HN  UNL     1     -41.361 -49.843  10.249  1.00  0.00     0.168 HD
HETATM   12  C   UNL     1     -42.000 -47.899   9.937  1.00  0.00     0.183 A 
ENDROOT
BRANCH   6  13
HETATM   13  N   UNL     1     -39.505 -49.474  12.066  1.00  0.00    -0.361 N 
HETATM   14  C   UNL     1     -40.156 -50.726  12.496  1.00  0.00     0.158 C 
HETATM   15  C   UNL     1     -39.192 -51.504  13.433  1.00  0.00     0.163 C 
HETATM   16  O   UNL     1     -37.929 -51.749  12.764  1.00  0.00    -0.381 OA
HETATM   17  C   UNL     1     -37.303 -50.506  12.428  1.00  0.00     0.188 C 
HETATM   18  C   UNL     1     -38.178 -49.703  11.458  1.00  0.00     0.151 C 
BRANCH  15  19
HETATM   19  C   UNL     1     -39.784 -52.860  13.837  1.00  0.00     0.201 C 
BRANCH  19  20
HETATM   20  O   UNL     1     -40.344 -53.498  12.681  1.00  0.00    -0.388 OA
BRANCH  20  21
HETATM   21  C   UNL     1     -41.252 -54.537  13.034  1.00  0.00     0.172 C 
BRANCH  21  22
HETATM   22  C   UNL     1     -42.155 -54.030  14.113  1.00  0.00     0.009 A 
HETATM   23  C   UNL     1     -42.665 -54.969  15.180  1.00  0.00     0.007 A 
HETATM   24  C   UNL     1     -43.612 -54.416  14.150  1.00  0.00     0.007 A 
ENDBRANCH  21  22
ENDBRANCH  20  21
ENDBRANCH  19  20
ENDBRANCH  15  19
ENDBRANCH   6  13
BRANCH   1  25
HETATM   25  C   UNL     1     -41.269 -43.699  11.396  1.00  0.00     0.094 C 
HETATM   26  C   UNL     1     -40.367 -42.540  11.903  1.00  0.00     0.039 C 
HETATM   27  C   UNL     1     -41.695 -41.717  12.082  1.00  0.00     0.006 C 
HETATM   28  C   UNL     1     -42.331 -43.130  12.376  1.00  0.00     0.039 C 
BRANCH  27  29
HETATM   29  C   UNL     1     -41.719 -40.754  13.267  1.00  0.00     0.175 C 
BRANCH  29  30
HETATM   30  O   UNL     1     -42.733 -39.773  13.057  1.00  0.00    -0.400 OA
HETATM   31  H   UNL     1     -42.388 -39.143  12.397  1.00  0.00     0.209 HD
ENDBRANCH  29  30
ENDBRANCH  27  29
BRANCH  27  32
HETATM   32  C   UNL     1     -42.242 -41.031  10.812  1.00  0.00     0.175 C 
BRANCH  32  33
HETATM   33  O   UNL     1     -41.479 -39.867  10.516  1.00  0.00    -0.400 OA
HETATM   34  H   UNL     1     -40.848 -39.753  11.256  1.00  0.00     0.209 HD
ENDBRANCH  32  33
ENDBRANCH  27  32
ENDBRANCH   1  25
TORSDOF 10
ENDMDL
MODEL 7
REMARK VINA RESULT:      -6.1      1.749      3.273
REMARK  10 active torsions:
REMARK  status: ('A' for Active; 'I' for Inactive)
REMARK    1  A    between atoms: N_1  and  C_9 
REMARK    2  A    between atoms: C_6  and  N_8 
REMARK    3  A    between atoms: C_14  and  C_27 
REMARK    4  A    between atoms: C_14  and  C_28 
REMARK    5  A    between atoms: C_21  and  C_29 
REMARK    6  A    between atoms: C_23  and  C_32 
REMARK    7  A    between atoms: O_25  and  C_32 
REMARK    8  A    between atoms: O_25  and  C_29 
REMARK    9  A    between atoms: C_27  and  O_31 
REMARK   10  A    between atoms: C_28  and  O_30 
ROOT
HETATM    1  N   UNL     1     -42.313 -49.480  12.320  1.00  0.00    -0.322 N 
HETATM    2  C   UNL     1     -42.869 -51.464  13.033  1.00  0.00     0.122 A 
HETATM    3  C   UNL     1     -41.948 -50.801  12.219  1.00  0.00     0.140 A 
HETATM    4  N   UNL     1     -43.766 -50.572  13.588  1.00  0.00    -0.346 N 
ATOM      5  HN  UNL     1     -44.545 -50.783  14.211  1.00  0.00     0.167 HD
HETATM    6  C   UNL     1     -42.779 -52.874  13.159  1.00  0.00     0.135 A 
HETATM    7  C   UNL     1     -43.401 -49.398  13.143  1.00  0.00     0.185 A 
HETATM    8  N   UNL     1     -40.958 -51.373  11.513  1.00  0.00    -0.336 N 
ATOM      9  HN  UNL     1     -40.291 -50.864  10.932  1.00  0.00     0.168 HD
HETATM   10  N   UNL     1     -41.798 -53.478  12.430  1.00  0.00    -0.337 N 
ATOM     11  HN  UNL     1     -41.691 -54.493  12.450  1.00  0.00     0.168 HD
HETATM   12  C   UNL     1     -40.966 -52.714  11.678  1.00  0.00     0.183 A 
ENDROOT
BRANCH   6  13
HETATM   13  N   UNL     1     -43.679 -53.624  13.924  1.00  0.00    -0.361 N 
HETATM   14  C   UNL     1     -43.814 -53.291  15.355  1.00  0.00     0.158 C 
HETATM   15  C   UNL     1     -44.613 -54.417  16.066  1.00  0.00     0.163 C 
HETATM   16  O   UNL     1     -45.901 -54.601  15.427  1.00  0.00    -0.381 OA
HETATM   17  C   UNL     1     -45.720 -54.990  14.061  1.00  0.00     0.188 C 
HETATM   18  C   UNL     1     -44.981 -53.897  13.280  1.00  0.00     0.151 C 
BRANCH  15  19
HETATM   19  C   UNL     1     -44.861 -54.076  17.541  1.00  0.00     0.201 C 
BRANCH  19  20
HETATM   20  O   UNL     1     -43.610 -54.061  18.242  1.00  0.00    -0.388 OA
BRANCH  20  21
HETATM   21  C   UNL     1     -43.133 -55.376  18.510  1.00  0.00     0.172 C 
BRANCH  21  22
HETATM   22  C   UNL     1     -41.738 -55.489  17.981  1.00  0.00     0.009 A 
HETATM   23  C   UNL     1     -41.413 -56.494  16.903  1.00  0.00     0.007 A 
HETATM   24  C   UNL     1     -40.885 -56.692  18.297  1.00  0.00     0.007 A 
ENDBRANCH  21  22
ENDBRANCH  20  21
ENDBRANCH  19  20
ENDBRANCH  15  19
ENDBRANCH   6  13
BRANCH   1  25
HETATM   25  C   UNL     1     -41.798 -48.286  11.719  1.00  0.00     0.094 C 
HETATM   26  C   UNL     1     -42.678 -47.019  11.898  1.00  0.00     0.039 C 
HETATM   27  C   UNL     1     -42.065 -46.520  10.538  1.00  0.00     0.006 C 
HETATM   28  C   UNL     1     -42.007 -48.059  10.196  1.00  0.00     0.039 C 
BRANCH  27  29
HETATM   29  C   UNL     1     -43.006 -45.710   9.649  1.00  0.00     0.175 C 
BRANCH  29  30
HETATM   30  O   UNL     1     -42.700 -45.968   8.280  1.00  0.00    -0.400 OA
HETATM   31  H   UNL     1     -43.485 -45.716   7.760  1.00  0.00     0.209 HD
ENDBRANCH  29  30
ENDBRANCH  27  29
BRANCH  27  32
HETATM   32  C   UNL     1     -40.682 -45.842  10.628  1.00  0.00     0.175 C 
BRANCH  32  33
HETATM   33  O   UNL     1     -40.435 -45.073   9.456  1.00  0.00    -0.400 OA
HETATM   34  H   UNL     1     -40.641 -45.654   8.695  1.00  0.00     0.209 HD
ENDBRANCH  32  33
ENDBRANCH  27  32
ENDBRANCH   1  25
TORSDOF 10
ENDMDL
MODEL 8
REMARK VINA RESULT:      -5.9      1.815      2.497
REMARK  10 active torsions:
REMARK  status: ('A' for Active; 'I' for Inactive)
REMARK    1  A    between atoms: N_1  and  C_9 
REMARK    2  A    between atoms: C_6  and  N_8 
REMARK    3  A    between atoms: C_14  and  C_27 
REMARK    4  A    between atoms: C_14  and  C_28 
REMARK    5  A    between atoms: C_21  and  C_29 
REMARK    6  A    between atoms: C_23  and  C_32 
REMARK    7  A    between atoms: O_25  and  C_32 
REMARK    8  A    between atoms: O_25  and  C_29 
REMARK    9  A    between atoms: C_27  and  O_31 
REMARK   10  A    between atoms: C_28  and  O_30 
ROOT
HETATM    1  N   UNL     1     -41.779 -48.828  12.331  1.00  0.00    -0.322 N 
HETATM    2  C   UNL     1     -40.901 -50.435  13.514  1.00  0.00     0.122 A 
HETATM    3  C   UNL     1     -40.618 -49.549  12.472  1.00  0.00     0.140 A 
HETATM    4  N   UNL     1     -42.193 -50.261  13.969  1.00  0.00    -0.346 N 
ATOM      5  HN  UNL     1     -42.663 -50.777  14.713  1.00  0.00     0.167 HD
HETATM    6  C   UNL     1     -39.896 -51.347  13.927  1.00  0.00     0.135 A 
HETATM    7  C   UNL     1     -42.685 -49.292  13.243  1.00  0.00     0.185 A 
HETATM    8  N   UNL     1     -39.463 -49.470  11.790  1.00  0.00    -0.336 N 
ATOM      9  HN  UNL     1     -39.278 -48.807  11.037  1.00  0.00     0.168 HD
HETATM   10  N   UNL     1     -38.725 -51.303  13.231  1.00  0.00    -0.337 N 
ATOM     11  HN  UNL     1     -37.967 -51.948  13.455  1.00  0.00     0.168 HD
HETATM   12  C   UNL     1     -38.579 -50.390  12.238  1.00  0.00     0.183 A 
ENDROOT
BRANCH   6  13
HETATM   13  N   UNL     1     -40.102 -52.292  14.939  1.00  0.00    -0.361 N 
HETATM   14  C   UNL     1     -41.067 -53.379  14.683  1.00  0.00     0.158 C 
HETATM   15  C   UNL     1     -41.367 -54.117  16.015  1.00  0.00     0.163 C 
HETATM   16  O   UNL     1     -40.138 -54.610  16.606  1.00  0.00    -0.381 OA
HETATM   17  C   UNL     1     -39.262 -53.516  16.900  1.00  0.00     0.188 C 
HETATM   18  C   UNL     1     -38.879 -52.768  15.617  1.00  0.00     0.151 C 
BRANCH  15  19
HETATM   19  C   UNL     1     -42.297 -55.316  15.790  1.00  0.00     0.201 C 
BRANCH  19  20
HETATM   20  O   UNL     1     -43.518 -55.112  16.513  1.00  0.00    -0.388 OA
BRANCH  20  21
HETATM   21  C   UNL     1     -44.460 -54.348  15.766  1.00  0.00     0.172 C 
BRANCH  21  22
HETATM   22  C   UNL     1     -44.445 -54.832  14.350  1.00  0.00     0.009 A 
HETATM   23  C   UNL     1     -45.102 -54.019  13.263  1.00  0.00     0.007 A 
HETATM   24  C   UNL     1     -45.704 -55.330  13.688  1.00  0.00     0.007 A 
ENDBRANCH  21  22
ENDBRANCH  20  21
ENDBRANCH  19  20
ENDBRANCH  15  19
ENDBRANCH   6  13
BRANCH   1  25
HETATM   25  C   UNL     1     -42.164 -47.782  11.430  1.00  0.00     0.094 C 
HETATM   26  C   UNL     1     -43.678 -47.728  11.085  1.00  0.00     0.039 C 
HETATM   27  C   UNL     1     -43.241 -47.096   9.712  1.00  0.00     0.006 C 
HETATM   28  C   UNL     1     -41.954 -47.988   9.905  1.00  0.00     0.039 C 
BRANCH  27  29
HETATM   29  C   UNL     1     -44.100 -47.477   8.509  1.00  0.00     0.175 C 
BRANCH  29  30
HETATM   30  O   UNL     1     -43.395 -47.166   7.308  1.00  0.00    -0.400 OA
HETATM   31  H   UNL     1     -42.443 -47.249   7.506  1.00  0.00     0.209 HD
ENDBRANCH  29  30
ENDBRANCH  27  29
BRANCH  27  32
HETATM   32  C   UNL     1     -42.963 -45.578   9.724  1.00  0.00     0.175 C 
BRANCH  32  33
HETATM   33  O   UNL     1     -44.053 -44.875   9.137  1.00  0.00    -0.400 OA
HETATM   34  H   UNL     1     -44.863 -45.369   9.377  1.00  0.00     0.209 HD
ENDBRANCH  32  33
ENDBRANCH  27  32
ENDBRANCH   1  25
TORSDOF 10
ENDMDL
MODEL 9
REMARK VINA RESULT:      -5.9      4.148      5.917
REMARK  10 active torsions:
REMARK  status: ('A' for Active; 'I' for Inactive)
REMARK    1  A    between atoms: N_1  and  C_9 
REMARK    2  A    between atoms: C_6  and  N_8 
REMARK    3  A    between atoms: C_14  and  C_27 
REMARK    4  A    between atoms: C_14  and  C_28 
REMARK    5  A    between atoms: C_21  and  C_29 
REMARK    6  A    between atoms: C_23  and  C_32 
REMARK    7  A    between atoms: O_25  and  C_32 
REMARK    8  A    between atoms: O_25  and  C_29 
REMARK    9  A    between atoms: C_27  and  O_31 
REMARK   10  A    between atoms: C_28  and  O_30 
ROOT
HETATM    1  N   UNL     1     -40.739 -45.045  11.609  1.00  0.00    -0.322 N 
HETATM    2  C   UNL     1     -40.255 -47.164  11.765  1.00  0.00     0.122 A 
HETATM    3  C   UNL     1     -41.080 -46.267  11.083  1.00  0.00     0.140 A 
HETATM    4  N   UNL     1     -39.460 -46.502  12.679  1.00  0.00    -0.346 N 
ATOM      5  HN  UNL     1     -38.774 -46.911  13.315  1.00  0.00     0.167 HD
HETATM    6  C   UNL     1     -40.350 -48.547  11.461  1.00  0.00     0.135 A 
HETATM    7  C   UNL     1     -39.774 -45.240  12.556  1.00  0.00     0.185 A 
HETATM    8  N   UNL     1     -41.990 -46.582  10.146  1.00  0.00    -0.336 N 
ATOM      9  HN  UNL     1     -42.575 -45.906   9.655  1.00  0.00     0.168 HD
HETATM   10  N   UNL     1     -41.285 -48.892  10.531  1.00  0.00    -0.337 N 
ATOM     11  HN  UNL     1     -41.429 -49.871  10.282  1.00  0.00     0.168 HD
HETATM   12  C   UNL     1     -42.023 -47.918   9.941  1.00  0.00     0.183 A 
ENDROOT
BRANCH   6  13
HETATM   13  N   UNL     1     -39.588 -49.520  12.117  1.00  0.00    -0.361 N 
HETATM   14  C   UNL     1     -40.292 -50.689  12.676  1.00  0.00     0.158 C 
HETATM   15  C   UNL     1     -39.325 -51.469  13.608  1.00  0.00     0.163 C 
HETATM   16  O   UNL     1     -38.128 -51.850  12.884  1.00  0.00    -0.381 OA
HETATM   17  C   UNL     1     -37.441 -50.682  12.421  1.00  0.00     0.188 C 
HETATM   18  C   UNL     1     -38.321 -49.886  11.450  1.00  0.00     0.151 C 
BRANCH  15  19
HETATM   19  C   UNL     1     -39.981 -52.747  14.145  1.00  0.00     0.201 C 
BRANCH  19  20
HETATM   20  O   UNL     1     -39.640 -53.850  13.293  1.00  0.00    -0.388 OA
BRANCH  20  21
HETATM   21  C   UNL     1     -39.113 -54.949  14.030  1.00  0.00     0.172 C 
BRANCH  21  22
HETATM   22  C   UNL     1     -39.364 -54.708  15.485  1.00  0.00     0.009 A 
HETATM   23  C   UNL     1     -38.357 -55.158  16.515  1.00  0.00     0.007 A 
HETATM   24  C   UNL     1     -39.689 -55.849  16.415  1.00  0.00     0.007 A 
ENDBRANCH  21  22
ENDBRANCH  20  21
ENDBRANCH  19  20
ENDBRANCH  15  19
ENDBRANCH   6  13
BRANCH   1  25
HETATM   25  C   UNL     1     -41.224 -43.718  11.365  1.00  0.00     0.094 C 
HETATM   26  C   UNL     1     -40.474 -42.588  12.122  1.00  0.00     0.039 C 
HETATM   27  C   UNL     1     -41.828 -41.789  12.068  1.00  0.00     0.006 C 
HETATM   28  C   UNL     1     -42.481 -43.223  12.132  1.00  0.00     0.039 C 
BRANCH  27  29
HETATM   29  C   UNL     1     -42.121 -40.906  13.279  1.00  0.00     0.175 C 
BRANCH  29  30
HETATM   30  O   UNL     1     -43.032 -39.876  12.902  1.00  0.00    -0.400 OA
HETATM   31  H   UNL     1     -43.583 -39.682  13.683  1.00  0.00     0.209 HD
ENDBRANCH  29  30
ENDBRANCH  27  29
BRANCH  27  32
HETATM   32  C   UNL     1     -42.110 -41.025  10.757  1.00  0.00     0.175 C 
BRANCH  32  33
HETATM   33  O   UNL     1     -41.273 -39.878  10.667  1.00  0.00    -0.400 OA
HETATM   34  H   UNL     1     -40.788 -39.822  11.515  1.00  0.00     0.209 HD
ENDBRANCH  32  33
ENDBRANCH  27  32
ENDBRANCH   1  25
TORSDOF 10
ENDMDL
