MODEL 1
REMARK VINA RESULT:      -6.5      0.000      0.000
REMARK  6 active torsions:
REMARK  status: ('A' for Active; 'I' for Inactive)
REMARK    1  A    between atoms: C_2  and  N_3 
REMARK    2  A    between atoms: C_2  and  C_14 
REMARK    3  A    between atoms: N_3  and  C_4 
REMARK    4  A    between atoms: C_4  and  C_5 
REMARK       I    between atoms: C_5  and  N_7 
REMARK    5  A    between atoms: N_7  and  C_8 
REMARK    6  A    between atoms: C_14  and  N_16 
ROOT
HETATM    1  N   UNL     1     -41.853 -50.228  11.524  1.00  0.00     0.098 N 
HETATM    2  H   UNL     1     -42.429 -50.547  10.741  1.00  0.00     0.317 HD
ENDROOT
BRANCH   1   3
HETATM    3  C   UNL     1     -41.013 -49.095  11.059  1.00  0.00     0.241 C 
HETATM    4  C   UNL     1     -39.699 -49.050  11.857  1.00  0.00     0.045 C 
BRANCH   3   5
HETATM    5  C   UNL     1     -41.743 -47.716  11.022  1.00  0.00     0.136 C 
HETATM    6  C   UNL     1     -40.818 -46.541  10.680  1.00  0.00     0.036 C 
BRANCH   5   7
HETATM    7  N   UNL     1     -42.880 -47.719  10.096  1.00  0.00    -0.297 N 
HETATM    8  C   UNL     1     -44.183 -47.447  10.412  1.00  0.00     0.118 A 
HETATM    9  C   UNL     1     -44.877 -47.411   9.222  1.00  0.00    -0.028 A 
HETATM   10  C   UNL     1     -46.311 -47.117   9.001  1.00  0.00     0.051 C 
HETATM   11  C   UNL     1     -43.898 -47.702   8.247  1.00  0.00     0.115 A 
HETATM   12  N   UNL     1     -42.684 -47.881   8.771  1.00  0.00    -0.309 N 
ATOM     13  HN  UNL     1     -41.812 -48.092   8.285  1.00  0.00     0.186 HD
ENDBRANCH   5   7
ENDBRANCH   3   5
ENDBRANCH   1   3
BRANCH   1  14
HETATM   14  C   UNL     1     -41.094 -51.389  12.035  1.00  0.00     0.372 C 
BRANCH  14  15
HETATM   15  C   UNL     1     -42.047 -52.496  12.493  1.00  0.00     0.246 C 
HETATM   16  O   UNL     1     -41.652 -53.623  12.777  1.00  0.00    -0.272 OA
HETATM   17  N   UNL     1     -43.355 -52.094  12.619  1.00  0.00    -0.355 N 
HETATM   18  H   UNL     1     -43.506 -51.095  12.485  1.00  0.00     0.162 HD
BRANCH  17  19
HETATM   19  C   UNL     1     -44.389 -52.936  13.206  1.00  0.00     0.088 C 
HETATM   20  C   UNL     1     -45.705 -52.804  12.438  1.00  0.00     0.051 C 
HETATM   21  C   UNL     1     -46.388 -51.475  12.733  1.00  0.00     0.169 C 
HETATM   22  O   UNL     1     -46.565 -51.289  14.137  1.00  0.00    -0.391 OA
HETATM   23  C   UNL     1     -45.324 -51.273  14.842  1.00  0.00     0.169 C 
HETATM   24  C   UNL     1     -44.608 -52.606  14.686  1.00  0.00     0.051 C 
ENDBRANCH  17  19
ENDBRANCH  14  15
ENDBRANCH   1  14
TORSDOF 6
ENDMDL
MODEL 2
REMARK VINA RESULT:      -6.1      1.249      1.419
REMARK  6 active torsions:
REMARK  status: ('A' for Active; 'I' for Inactive)
REMARK    1  A    between atoms: C_2  and  N_3 
REMARK    2  A    between atoms: C_2  and  C_14 
REMARK    3  A    between atoms: N_3  and  C_4 
REMARK    4  A    between atoms: C_4  and  C_5 
REMARK       I    between atoms: C_5  and  N_7 
REMARK    5  A    between atoms: N_7  and  C_8 
REMARK    6  A    between atoms: C_14  and  N_16 
ROOT
HETATM    1  N   UNL     1     -41.260 -50.051  11.131  1.00  0.00     0.098 N 
HETATM    2  H   UNL     1     -40.933 -50.672  10.386  1.00  0.00     0.317 HD
ENDROOT
BRANCH   1   3
HETATM    3  C   UNL     1     -40.674 -48.704  10.912  1.00  0.00     0.241 C 
HETATM    4  C   UNL     1     -39.414 -48.530  11.776  1.00  0.00     0.045 C 
BRANCH   3   5
HETATM    5  C   UNL     1     -41.681 -47.522  11.071  1.00  0.00     0.136 C 
HETATM    6  C   UNL     1     -41.035 -46.140  10.914  1.00  0.00     0.036 C 
BRANCH   5   7
HETATM    7  N   UNL     1     -42.812 -47.633  10.144  1.00  0.00    -0.297 N 
HETATM    8  C   UNL     1     -44.127 -47.394  10.438  1.00  0.00     0.118 A 
HETATM    9  C   UNL     1     -44.816 -47.465   9.247  1.00  0.00    -0.028 A 
HETATM   10  C   UNL     1     -46.259 -47.246   9.003  1.00  0.00     0.051 C 
HETATM   11  C   UNL     1     -43.820 -47.780   8.295  1.00  0.00     0.115 A 
HETATM   12  N   UNL     1     -42.603 -47.875   8.834  1.00  0.00    -0.309 N 
ATOM     13  HN  UNL     1     -41.720 -48.082   8.365  1.00  0.00     0.186 HD
ENDBRANCH   5   7
ENDBRANCH   3   5
ENDBRANCH   1   3
BRANCH   1  14
HETATM   14  C   UNL     1     -40.916 -50.670  12.427  1.00  0.00     0.372 C 
BRANCH  14  15
HETATM   15  C   UNL     1     -41.233 -52.168  12.410  1.00  0.00     0.246 C 
HETATM   16  O   UNL     1     -40.395 -53.010  12.101  1.00  0.00    -0.272 OA
HETATM   17  N   UNL     1     -42.503 -52.477  12.833  1.00  0.00    -0.355 N 
HETATM   18  H   UNL     1     -43.034 -51.685  13.193  1.00  0.00     0.162 HD
BRANCH  17  19
HETATM   19  C   UNL     1     -42.951 -53.844  13.061  1.00  0.00     0.088 C 
HETATM   20  C   UNL     1     -44.423 -54.009  12.681  1.00  0.00     0.051 C 
HETATM   21  C   UNL     1     -45.337 -53.363  13.715  1.00  0.00     0.169 C 
HETATM   22  O   UNL     1     -45.062 -53.857  15.025  1.00  0.00    -0.391 OA
HETATM   23  C   UNL     1     -43.724 -53.582  15.438  1.00  0.00     0.169 C 
HETATM   24  C   UNL     1     -42.730 -54.273  14.515  1.00  0.00     0.051 C 
ENDBRANCH  17  19
ENDBRANCH  14  15
ENDBRANCH   1  14
TORSDOF 6
ENDMDL
MODEL 3
REMARK VINA RESULT:      -6.0      2.508      6.099
REMARK  6 active torsions:
REMARK  status: ('A' for Active; 'I' for Inactive)
REMARK    1  A    between atoms: C_2  and  N_3 
REMARK    2  A    between atoms: C_2  and  C_14 
REMARK    3  A    between atoms: N_3  and  C_4 
REMARK    4  A    between atoms: C_4  and  C_5 
REMARK       I    between atoms: C_5  and  N_7 
REMARK    5  A    between atoms: N_7  and  C_8 
REMARK    6  A    between atoms: C_14  and  N_16 
ROOT
HETATM    1  N   UNL     1     -42.902 -50.069  12.376  1.00  0.00     0.098 N 
HETATM    2  H   UNL     1     -43.430 -49.720  13.180  1.00  0.00     0.317 HD
ENDROOT
BRANCH   1   3
HETATM    3  C   UNL     1     -42.333 -51.396  12.727  1.00  0.00     0.241 C 
HETATM    4  C   UNL     1     -40.987 -51.599  12.011  1.00  0.00     0.045 C 
BRANCH   3   5
HETATM    5  C   UNL     1     -43.309 -52.596  12.526  1.00  0.00     0.136 C 
HETATM    6  C   UNL     1     -42.811 -53.905  13.152  1.00  0.00     0.036 C 
BRANCH   5   7
HETATM    7  N   UNL     1     -44.655 -52.303  13.029  1.00  0.00    -0.297 N 
HETATM    8  C   UNL     1     -45.011 -52.131  14.339  1.00  0.00     0.118 A 
HETATM    9  C   UNL     1     -46.327 -51.723  14.338  1.00  0.00    -0.028 A 
HETATM   10  C   UNL     1     -47.180 -51.364  15.493  1.00  0.00     0.051 C 
HETATM   11  C   UNL     1     -46.679 -51.707  12.970  1.00  0.00     0.115 A 
HETATM   12  N   UNL     1     -45.666 -52.050  12.173  1.00  0.00    -0.309 N 
ATOM     13  HN  UNL     1     -45.658 -52.107  11.154  1.00  0.00     0.186 HD
ENDBRANCH   5   7
ENDBRANCH   3   5
ENDBRANCH   1   3
BRANCH   1  14
HETATM   14  C   UNL     1     -41.900 -49.047  12.007  1.00  0.00     0.372 C 
BRANCH  14  15
HETATM   15  C   UNL     1     -42.582 -47.823  11.388  1.00  0.00     0.246 C 
HETATM   16  O   UNL     1     -42.248 -46.677  11.671  1.00  0.00    -0.272 OA
HETATM   17  N   UNL     1     -43.539 -48.128  10.452  1.00  0.00    -0.355 N 
HETATM   18  H   UNL     1     -43.605 -49.119  10.220  1.00  0.00     0.162 HD
BRANCH  17  19
HETATM   19  C   UNL     1     -44.181 -47.121   9.619  1.00  0.00     0.088 C 
HETATM   20  C   UNL     1     -45.687 -47.371   9.519  1.00  0.00     0.051 C 
HETATM   21  C   UNL     1     -45.993 -48.554   8.609  1.00  0.00     0.169 C 
HETATM   22  O   UNL     1     -45.391 -48.386   7.327  1.00  0.00    -0.391 OA
HETATM   23  C   UNL     1     -43.968 -48.290   7.405  1.00  0.00     0.169 C 
HETATM   24  C   UNL     1     -43.562 -47.071   8.219  1.00  0.00     0.051 C 
ENDBRANCH  17  19
ENDBRANCH  14  15
ENDBRANCH   1  14
TORSDOF 6
ENDMDL
MODEL 4
REMARK VINA RESULT:      -6.0      2.558      6.464
REMARK  6 active torsions:
REMARK  status: ('A' for Active; 'I' for Inactive)
REMARK    1  A    between atoms: C_2  and  N_3 
REMARK    2  A    between atoms: C_2  and  C_14 
REMARK    3  A    between atoms: N_3  and  C_4 
REMARK    4  A    between atoms: C_4  and  C_5 
REMARK       I    between atoms: C_5  and  N_7 
REMARK    5  A    between atoms: N_7  and  C_8 
REMARK    6  A    between atoms: C_14  and  N_16 
ROOT
HETATM    1  N   UNL     1     -42.491 -51.844  11.966  1.00  0.00     0.098 N 
HETATM    2  H   UNL     1     -43.322 -51.551  11.446  1.00  0.00     0.317 HD
ENDROOT
BRANCH   1   3
HETATM    3  C   UNL     1     -42.922 -52.706  13.097  1.00  0.00     0.241 C 
HETATM    4  C   UNL     1     -42.094 -54.001  13.118  1.00  0.00     0.045 C 
BRANCH   3   5
HETATM    5  C   UNL     1     -44.458 -52.971  13.163  1.00  0.00     0.136 C 
HETATM    6  C   UNL     1     -44.818 -54.451  13.345  1.00  0.00     0.036 C 
BRANCH   5   7
HETATM    7  N   UNL     1     -45.109 -52.185  14.216  1.00  0.00    -0.297 N 
HETATM    8  C   UNL     1     -46.426 -52.250  14.579  1.00  0.00     0.118 A 
HETATM    9  C   UNL     1     -46.564 -51.462  15.702  1.00  0.00    -0.028 A 
HETATM   10  C   UNL     1     -47.778 -51.221  16.514  1.00  0.00     0.051 C 
HETATM   11  C   UNL     1     -45.267 -50.945  15.917  1.00  0.00     0.115 A 
HETATM   12  N   UNL     1     -44.380 -51.387  15.024  1.00  0.00    -0.309 N 
ATOM     13  HN  UNL     1     -43.384 -51.171  14.965  1.00  0.00     0.186 HD
ENDBRANCH   5   7
ENDBRANCH   3   5
ENDBRANCH   1   3
BRANCH   1  14
HETATM   14  C   UNL     1     -41.748 -50.630  12.364  1.00  0.00     0.372 C 
BRANCH  14  15
HETATM   15  C   UNL     1     -42.697 -49.435  12.490  1.00  0.00     0.246 C 
HETATM   16  O   UNL     1     -43.159 -49.079  13.570  1.00  0.00    -0.272 OA
HETATM   17  N   UNL     1     -42.922 -48.771  11.309  1.00  0.00    -0.355 N 
HETATM   18  H   UNL     1     -42.357 -49.097  10.525  1.00  0.00     0.162 HD
BRANCH  17  19
HETATM   19  C   UNL     1     -43.646 -47.509  11.235  1.00  0.00     0.088 C 
HETATM   20  C   UNL     1     -44.387 -47.379   9.903  1.00  0.00     0.051 C 
HETATM   21  C   UNL     1     -43.424 -47.081   8.761  1.00  0.00     0.169 C 
HETATM   22  O   UNL     1     -42.627 -45.932   9.047  1.00  0.00    -0.391 OA
HETATM   23  C   UNL     1     -41.829 -46.104  10.218  1.00  0.00     0.169 C 
HETATM   24  C   UNL     1     -42.713 -46.312  11.439  1.00  0.00     0.051 C 
ENDBRANCH  17  19
ENDBRANCH  14  15
ENDBRANCH   1  14
TORSDOF 6
ENDMDL
MODEL 5
REMARK VINA RESULT:      -5.7      3.151      5.736
REMARK  6 active torsions:
REMARK  status: ('A' for Active; 'I' for Inactive)
REMARK    1  A    between atoms: C_2  and  N_3 
REMARK    2  A    between atoms: C_2  and  C_14 
REMARK    3  A    between atoms: N_3  and  C_4 
REMARK    4  A    between atoms: C_4  and  C_5 
REMARK       I    between atoms: C_5  and  N_7 
REMARK    5  A    between atoms: N_7  and  C_8 
REMARK    6  A    between atoms: C_14  and  N_16 
ROOT
HETATM    1  N   UNL     1     -39.835 -49.873  10.880  1.00  0.00     0.098 N 
HETATM    2  H   UNL     1     -39.493 -50.519  10.164  1.00  0.00     0.317 HD
ENDROOT
BRANCH   1   3
HETATM    3  C   UNL     1     -38.673 -49.389  11.670  1.00  0.00     0.241 C 
HETATM    4  C   UNL     1     -37.377 -50.031  11.150  1.00  0.00     0.045 C 
BRANCH   3   5
HETATM    5  C   UNL     1     -38.836 -49.527  13.216  1.00  0.00     0.136 C 
HETATM    6  C   UNL     1     -37.547 -49.950  13.934  1.00  0.00     0.036 C 
BRANCH   5   7
HETATM    7  N   UNL     1     -39.346 -48.297  13.830  1.00  0.00    -0.297 N 
HETATM    8  C   UNL     1     -39.180 -47.025  13.354  1.00  0.00     0.118 A 
HETATM    9  C   UNL     1     -39.949 -46.203  14.150  1.00  0.00    -0.028 A 
HETATM   10  C   UNL     1     -40.154 -44.742  14.039  1.00  0.00     0.051 C 
HETATM   11  C   UNL     1     -40.520 -47.083  15.096  1.00  0.00     0.115 A 
HETATM   12  N   UNL     1     -40.164 -48.354  14.901  1.00  0.00    -0.309 N 
ATOM     13  HN  UNL     1     -40.444 -49.176  15.436  1.00  0.00     0.186 HD
ENDBRANCH   5   7
ENDBRANCH   3   5
ENDBRANCH   1   3
BRANCH   1  14
HETATM   14  C   UNL     1     -40.870 -50.571  11.670  1.00  0.00     0.372 C 
BRANCH  14  15
HETATM   15  C   UNL     1     -42.020 -49.620  12.013  1.00  0.00     0.246 C 
HETATM   16  O   UNL     1     -42.499 -49.553  13.140  1.00  0.00    -0.272 OA
HETATM   17  N   UNL     1     -42.409 -48.813  10.971  1.00  0.00    -0.355 N 
HETATM   18  H   UNL     1     -41.824 -48.883  10.139  1.00  0.00     0.162 HD
BRANCH  17  19
HETATM   19  C   UNL     1     -43.360 -47.720  11.128  1.00  0.00     0.088 C 
HETATM   20  C   UNL     1     -44.165 -47.505   9.845  1.00  0.00     0.051 C 
HETATM   21  C   UNL     1     -43.321 -46.835   8.768  1.00  0.00     0.169 C 
HETATM   22  O   UNL     1     -42.743 -45.622   9.249  1.00  0.00    -0.391 OA
HETATM   23  C   UNL     1     -41.879 -45.839  10.365  1.00  0.00     0.169 C 
HETATM   24  C   UNL     1     -42.659 -46.420  11.535  1.00  0.00     0.051 C 
ENDBRANCH  17  19
ENDBRANCH  14  15
ENDBRANCH   1  14
TORSDOF 6
ENDMDL
MODEL 6
REMARK VINA RESULT:      -5.7      2.922      6.759
REMARK  6 active torsions:
REMARK  status: ('A' for Active; 'I' for Inactive)
REMARK    1  A    between atoms: C_2  and  N_3 
REMARK    2  A    between atoms: C_2  and  C_14 
REMARK    3  A    between atoms: N_3  and  C_4 
REMARK    4  A    between atoms: C_4  and  C_5 
REMARK       I    between atoms: C_5  and  N_7 
REMARK    5  A    between atoms: N_7  and  C_8 
REMARK    6  A    between atoms: C_14  and  N_16 
ROOT
HETATM    1  N   UNL     1     -42.176 -50.191  11.775  1.00  0.00     0.098 N 
HETATM    2  H   UNL     1     -42.799 -49.525  12.240  1.00  0.00     0.317 HD
ENDROOT
BRANCH   1   3
HETATM    3  C   UNL     1     -41.891 -51.305  12.716  1.00  0.00     0.241 C 
HETATM    4  C   UNL     1     -40.381 -51.587  12.758  1.00  0.00     0.045 C 
BRANCH   3   5
HETATM    5  C   UNL     1     -42.739 -52.593  12.475  1.00  0.00     0.136 C 
HETATM    6  C   UNL     1     -42.144 -53.849  13.125  1.00  0.00     0.036 C 
BRANCH   5   7
HETATM    7  N   UNL     1     -44.127 -52.432  12.919  1.00  0.00    -0.297 N 
HETATM    8  C   UNL     1     -44.539 -51.975  14.141  1.00  0.00     0.118 A 
HETATM    9  C   UNL     1     -45.909 -51.839  14.068  1.00  0.00    -0.028 A 
HETATM   10  C   UNL     1     -46.841 -51.342  15.105  1.00  0.00     0.051 C 
HETATM   11  C   UNL     1     -46.225 -52.268  12.759  1.00  0.00     0.115 A 
HETATM   12  N   UNL     1     -45.147 -52.620  12.057  1.00  0.00    -0.309 N 
ATOM     13  HN  UNL     1     -45.105 -52.953  11.093  1.00  0.00     0.186 HD
ENDBRANCH   5   7
ENDBRANCH   3   5
ENDBRANCH   1   3
BRANCH   1  14
HETATM   14  C   UNL     1     -40.982 -49.454  11.313  1.00  0.00     0.372 C 
BRANCH  14  15
HETATM   15  C   UNL     1     -41.389 -48.164  10.594  1.00  0.00     0.246 C 
HETATM   16  O   UNL     1     -42.367 -48.109   9.856  1.00  0.00    -0.272 OA
HETATM   17  N   UNL     1     -40.606 -47.079  10.904  1.00  0.00    -0.355 N 
HETATM   18  H   UNL     1     -39.921 -47.247  11.641  1.00  0.00     0.162 HD
BRANCH  17  19
HETATM   19  C   UNL     1     -40.924 -45.724  10.472  1.00  0.00     0.088 C 
HETATM   20  C   UNL     1     -39.697 -44.816  10.571  1.00  0.00     0.051 C 
HETATM   21  C   UNL     1     -39.389 -44.457  12.019  1.00  0.00     0.169 C 
HETATM   22  O   UNL     1     -40.530 -43.891  12.662  1.00  0.00    -0.391 OA
HETATM   23  C   UNL     1     -41.637 -44.791  12.694  1.00  0.00     0.169 C 
HETATM   24  C   UNL     1     -42.083 -45.134  11.280  1.00  0.00     0.051 C 
ENDBRANCH  17  19
ENDBRANCH  14  15
ENDBRANCH   1  14
TORSDOF 6
ENDMDL
MODEL 7
REMARK VINA RESULT:      -5.7      2.943      3.439
REMARK  6 active torsions:
REMARK  status: ('A' for Active; 'I' for Inactive)
REMARK    1  A    between atoms: C_2  and  N_3 
REMARK    2  A    between atoms: C_2  and  C_14 
REMARK    3  A    between atoms: N_3  and  C_4 
REMARK    4  A    between atoms: C_4  and  C_5 
REMARK       I    between atoms: C_5  and  N_7 
REMARK    5  A    between atoms: N_7  and  C_8 
REMARK    6  A    between atoms: C_14  and  N_16 
ROOT
HETATM    1  N   UNL     1     -40.155 -50.415  10.968  1.00  0.00     0.098 N 
HETATM    2  H   UNL     1     -39.691 -51.305  10.771  1.00  0.00     0.317 HD
ENDROOT
BRANCH   1   3
HETATM    3  C   UNL     1     -39.122 -49.420  11.354  1.00  0.00     0.241 C 
HETATM    4  C   UNL     1     -37.790 -50.130  11.649  1.00  0.00     0.045 C 
BRANCH   3   5
HETATM    5  C   UNL     1     -39.551 -48.446  12.495  1.00  0.00     0.136 C 
HETATM    6  C   UNL     1     -38.526 -48.342  13.632  1.00  0.00     0.036 C 
BRANCH   5   7
HETATM    7  N   UNL     1     -39.848 -47.101  11.991  1.00  0.00    -0.297 N 
HETATM    8  C   UNL     1     -39.854 -45.945  12.721  1.00  0.00     0.118 A 
HETATM    9  C   UNL     1     -40.028 -44.913  11.823  1.00  0.00    -0.028 A 
HETATM   10  C   UNL     1     -40.068 -43.458  12.089  1.00  0.00     0.051 C 
HETATM   11  C   UNL     1     -40.144 -45.564  10.575  1.00  0.00     0.115 A 
HETATM   12  N   UNL     1     -40.027 -46.890  10.671  1.00  0.00    -0.309 N 
ATOM     13  HN  UNL     1     -40.064 -47.581   9.921  1.00  0.00     0.186 HD
ENDBRANCH   5   7
ENDBRANCH   3   5
ENDBRANCH   1   3
BRANCH   1  14
HETATM   14  C   UNL     1     -41.191 -50.657  11.994  1.00  0.00     0.372 C 
BRANCH  14  15
HETATM   15  C   UNL     1     -41.412 -52.159  12.194  1.00  0.00     0.246 C 
HETATM   16  O   UNL     1     -40.518 -52.980  12.014  1.00  0.00    -0.272 OA
HETATM   17  N   UNL     1     -42.665 -52.486  12.651  1.00  0.00    -0.355 N 
HETATM   18  H   UNL     1     -43.252 -51.686  12.888  1.00  0.00     0.162 HD
BRANCH  17  19
HETATM   19  C   UNL     1     -43.028 -53.832  13.073  1.00  0.00     0.088 C 
HETATM   20  C   UNL     1     -44.512 -54.105  12.820  1.00  0.00     0.051 C 
HETATM   21  C   UNL     1     -45.389 -53.375  13.829  1.00  0.00     0.169 C 
HETATM   22  O   UNL     1     -45.005 -53.690  15.167  1.00  0.00    -0.391 OA
HETATM   23  C   UNL     1     -43.659 -53.310  15.449  1.00  0.00     0.169 C 
HETATM   24  C   UNL     1     -42.693 -54.067  14.549  1.00  0.00     0.051 C 
ENDBRANCH  17  19
ENDBRANCH  14  15
ENDBRANCH   1  14
TORSDOF 6
ENDMDL
MODEL 8
REMARK VINA RESULT:      -5.7      3.606      6.701
REMARK  6 active torsions:
REMARK  status: ('A' for Active; 'I' for Inactive)
REMARK    1  A    between atoms: C_2  and  N_3 
REMARK    2  A    between atoms: C_2  and  C_14 
REMARK    3  A    between atoms: N_3  and  C_4 
REMARK    4  A    between atoms: C_4  and  C_5 
REMARK       I    between atoms: C_5  and  N_7 
REMARK    5  A    between atoms: N_7  and  C_8 
REMARK    6  A    between atoms: C_14  and  N_16 
ROOT
HETATM    1  N   UNL     1     -39.770 -49.887  10.888  1.00  0.00     0.098 N 
HETATM    2  H   UNL     1     -39.502 -50.464  10.086  1.00  0.00     0.317 HD
ENDROOT
BRANCH   1   3
HETATM    3  C   UNL     1     -38.546 -49.563  11.664  1.00  0.00     0.241 C 
HETATM    4  C   UNL     1     -37.294 -49.978  10.874  1.00  0.00     0.045 C 
BRANCH   3   5
HETATM    5  C   UNL     1     -38.541 -50.105  13.128  1.00  0.00     0.136 C 
HETATM    6  C   UNL     1     -37.779 -51.427  13.290  1.00  0.00     0.036 C 
BRANCH   5   7
HETATM    7  N   UNL     1     -38.011 -49.123  14.079  1.00  0.00    -0.297 N 
HETATM    8  C   UNL     1     -37.134 -49.374  15.098  1.00  0.00     0.118 A 
HETATM    9  C   UNL     1     -36.790 -48.151  15.632  1.00  0.00    -0.028 A 
HETATM   10  C   UNL     1     -35.842 -47.859  16.730  1.00  0.00     0.051 C 
HETATM   11  C   UNL     1     -37.540 -47.225  14.872  1.00  0.00     0.115 A 
HETATM   12  N   UNL     1     -38.275 -47.809  13.924  1.00  0.00    -0.309 N 
ATOM     13  HN  UNL     1     -38.892 -47.367  13.243  1.00  0.00     0.186 HD
ENDBRANCH   5   7
ENDBRANCH   3   5
ENDBRANCH   1   3
BRANCH   1  14
HETATM   14  C   UNL     1     -40.807 -50.615  11.648  1.00  0.00     0.372 C 
BRANCH  14  15
HETATM   15  C   UNL     1     -41.973 -49.685  11.994  1.00  0.00     0.246 C 
HETATM   16  O   UNL     1     -42.520 -49.703  13.093  1.00  0.00    -0.272 OA
HETATM   17  N   UNL     1     -42.298 -48.797  10.997  1.00  0.00    -0.355 N 
HETATM   18  H   UNL     1     -41.663 -48.806  10.199  1.00  0.00     0.162 HD
BRANCH  17  19
HETATM   19  C   UNL     1     -43.253 -47.713  11.182  1.00  0.00     0.088 C 
HETATM   20  C   UNL     1     -44.167 -47.573   9.964  1.00  0.00     0.051 C 
HETATM   21  C   UNL     1     -43.431 -46.944   8.788  1.00  0.00     0.169 C 
HETATM   22  O   UNL     1     -42.838 -45.700   9.160  1.00  0.00    -0.391 OA
HETATM   23  C   UNL     1     -41.880 -45.848  10.207  1.00  0.00     0.169 C 
HETATM   24  C   UNL     1     -42.546 -46.383  11.466  1.00  0.00     0.051 C 
ENDBRANCH  17  19
ENDBRANCH  14  15
ENDBRANCH   1  14
TORSDOF 6
ENDMDL
MODEL 9
REMARK VINA RESULT:      -5.6      2.045      3.214
REMARK  6 active torsions:
REMARK  status: ('A' for Active; 'I' for Inactive)
REMARK    1  A    between atoms: C_2  and  N_3 
REMARK    2  A    between atoms: C_2  and  C_14 
REMARK    3  A    between atoms: N_3  and  C_4 
REMARK    4  A    between atoms: C_4  and  C_5 
REMARK       I    between atoms: C_5  and  N_7 
REMARK    5  A    between atoms: N_7  and  C_8 
REMARK    6  A    between atoms: C_14  and  N_16 
ROOT
HETATM    1  N   UNL     1     -41.472 -50.021  11.509  1.00  0.00     0.098 N 
HETATM    2  H   UNL     1     -40.684 -50.114  10.864  1.00  0.00     0.317 HD
ENDROOT
BRANCH   1   3
HETATM    3  C   UNL     1     -41.738 -48.575  11.723  1.00  0.00     0.241 C 
HETATM    4  C   UNL     1     -42.911 -48.392  12.699  1.00  0.00     0.045 C 
BRANCH   3   5
HETATM    5  C   UNL     1     -41.909 -47.745  10.412  1.00  0.00     0.136 C 
HETATM    6  C   UNL     1     -43.371 -47.564   9.986  1.00  0.00     0.036 C 
BRANCH   5   7
HETATM    7  N   UNL     1     -41.268 -46.429  10.505  1.00  0.00    -0.297 N 
HETATM    8  C   UNL     1     -41.875 -45.255  10.859  1.00  0.00     0.118 A 
HETATM    9  C   UNL     1     -40.876 -44.312  10.965  1.00  0.00    -0.028 A 
HETATM   10  C   UNL     1     -40.990 -42.890  11.360  1.00  0.00     0.051 C 
HETATM   11  C   UNL     1     -39.701 -45.020  10.626  1.00  0.00     0.115 A 
HETATM   12  N   UNL     1     -39.933 -46.305  10.354  1.00  0.00    -0.309 N 
ATOM     13  HN  UNL     1     -39.259 -47.026  10.094  1.00  0.00     0.186 HD
ENDBRANCH   5   7
ENDBRANCH   3   5
ENDBRANCH   1   3
BRANCH   1  14
HETATM   14  C   UNL     1     -41.150 -50.776  12.738  1.00  0.00     0.372 C 
BRANCH  14  15
HETATM   15  C   UNL     1     -41.440 -52.267  12.546  1.00  0.00     0.246 C 
HETATM   16  O   UNL     1     -40.666 -53.013  11.955  1.00  0.00    -0.272 OA
HETATM   17  N   UNL     1     -42.599 -52.694  13.148  1.00  0.00    -0.355 N 
HETATM   18  H   UNL     1     -43.063 -51.991  13.722  1.00  0.00     0.162 HD
BRANCH  17  19
HETATM   19  C   UNL     1     -42.972 -54.099  13.239  1.00  0.00     0.088 C 
HETATM   20  C   UNL     1     -44.477 -54.282  13.029  1.00  0.00     0.051 C 
HETATM   21  C   UNL     1     -45.265 -53.824  14.249  1.00  0.00     0.169 C 
HETATM   22  O   UNL     1     -44.806 -54.475  15.433  1.00  0.00    -0.391 OA
HETATM   23  C   UNL     1     -43.433 -54.194  15.708  1.00  0.00     0.169 C 
HETATM   24  C   UNL     1     -42.550 -54.707  14.580  1.00  0.00     0.051 C 
ENDBRANCH  17  19
ENDBRANCH  14  15
ENDBRANCH   1  14
TORSDOF 6
ENDMDL
