MODEL 1
REMARK VINA RESULT:      -5.6      0.000      0.000
REMARK  5 active torsions:
REMARK  status: ('A' for Active; 'I' for Inactive)
REMARK    1  A    between atoms: O_2  and  C_3 
REMARK    2  A    between atoms: C_3  and  C_6 
REMARK    3  A    between atoms: C_6  and  N_7 
REMARK       I    between atoms: N_7  and  C_8 
REMARK    4  A    between atoms: C_8  and  C_10 
REMARK    5  A    between atoms: C_10  and  C_11 
ROOT
HETATM    1  N   UNL     1     -43.224 -53.403  13.568  1.00  0.00    -0.358 N 
HETATM    2  C   UNL     1     -42.142 -54.178  13.917  1.00  0.00     0.223 C 
HETATM    3  O   UNL     1     -42.090 -54.830  14.959  1.00  0.00    -0.273 OA
HETATM    4  H   UNL     1     -43.186 -52.841  12.724  1.00  0.00     0.162 HD
ENDROOT
BRANCH   2   5
HETATM    5  C   UNL     1     -41.006 -54.165  12.915  1.00  0.00     0.161 C 
BRANCH   5   6
HETATM    6  C   UNL     1     -40.736 -52.787  12.428  1.00  0.00     0.036 A 
HETATM    7  C   UNL     1     -40.071 -51.740  13.109  1.00  0.00     0.053 A 
HETATM    8  C   UNL     1     -40.090 -50.672  12.239  1.00  0.00     0.024 A 
HETATM    9  C   UNL     1     -39.560 -49.297  12.347  1.00  0.00     0.070 C 
HETATM   10  N   UNL     1     -40.744 -51.120  11.125  1.00  0.00    -0.305 N 
HETATM   11  N   UNL     1     -41.161 -52.393  11.218  1.00  0.00    -0.304 N 
HETATM   12  H   UNL     1     -40.944 -50.611  10.270  1.00  0.00     0.186 HD
ATOM     13  HN  UNL     1     -41.682 -52.936  10.529  1.00  0.00     0.186 HD
ENDBRANCH   5   6
ENDBRANCH   2   5
BRANCH   1  14
HETATM   14  C   UNL     1     -44.370 -53.221  14.441  1.00  0.00     0.159 C 
BRANCH  14  15
HETATM   15  C   UNL     1     -45.685 -53.784  13.835  1.00  0.00     0.069 C 
HETATM   16  C   UNL     1     -46.853 -53.288  14.700  1.00  0.00     0.047 C 
HETATM   17  C   UNL     1     -45.639 -55.319  13.831  1.00  0.00     0.047 C 
BRANCH  15  18
HETATM   18  O   UNL     1     -45.765 -53.259  12.494  1.00  0.00    -0.384 OA
HETATM   19  C   UNL     1     -46.498 -52.055  12.321  1.00  0.00     0.202 C 
ENDBRANCH  15  18
ENDBRANCH  14  15
ENDBRANCH   1  14
TORSDOF 5
ENDMDL
MODEL 2
REMARK VINA RESULT:      -5.6      2.994      3.569
REMARK  5 active torsions:
REMARK  status: ('A' for Active; 'I' for Inactive)
REMARK    1  A    between atoms: O_2  and  C_3 
REMARK    2  A    between atoms: C_3  and  C_6 
REMARK    3  A    between atoms: C_6  and  N_7 
REMARK       I    between atoms: N_7  and  C_8 
REMARK    4  A    between atoms: C_8  and  C_10 
REMARK    5  A    between atoms: C_10  and  C_11 
ROOT
HETATM    1  N   UNL     1     -43.257 -51.528  12.695  1.00  0.00    -0.358 N 
HETATM    2  C   UNL     1     -42.003 -51.057  12.380  1.00  0.00     0.223 C 
HETATM    3  O   UNL     1     -41.102 -51.777  11.953  1.00  0.00    -0.273 OA
HETATM    4  H   UNL     1     -43.943 -50.898  13.098  1.00  0.00     0.162 HD
ENDROOT
BRANCH   2   5
HETATM    5  C   UNL     1     -41.812 -49.571  12.605  1.00  0.00     0.161 C 
BRANCH   5   6
HETATM    6  C   UNL     1     -42.146 -48.795  11.382  1.00  0.00     0.036 A 
HETATM    7  C   UNL     1     -43.224 -47.899  11.190  1.00  0.00     0.053 A 
HETATM    8  C   UNL     1     -43.099 -47.453   9.894  1.00  0.00     0.024 A 
HETATM    9  C   UNL     1     -43.898 -46.504   9.090  1.00  0.00     0.070 C 
HETATM   10  N   UNL     1     -41.994 -48.086   9.395  1.00  0.00    -0.305 N 
HETATM   11  N   UNL     1     -41.407 -48.918  10.270  1.00  0.00    -0.304 N 
HETATM   12  H   UNL     1     -41.590 -48.001   8.468  1.00  0.00     0.186 HD
ATOM     13  HN  UNL     1     -40.587 -49.508  10.123  1.00  0.00     0.186 HD
ENDBRANCH   5   6
ENDBRANCH   2   5
BRANCH   1  14
HETATM   14  C   UNL     1     -43.603 -52.937  12.628  1.00  0.00     0.159 C 
BRANCH  14  15
HETATM   15  C   UNL     1     -45.044 -53.228  13.131  1.00  0.00     0.069 C 
HETATM   16  C   UNL     1     -45.329 -52.290  14.314  1.00  0.00     0.047 C 
HETATM   17  C   UNL     1     -45.154 -54.694  13.575  1.00  0.00     0.047 C 
BRANCH  15  18
HETATM   18  O   UNL     1     -45.920 -52.951  12.019  1.00  0.00    -0.384 OA
HETATM   19  C   UNL     1     -46.774 -51.823  12.143  1.00  0.00     0.202 C 
ENDBRANCH  15  18
ENDBRANCH  14  15
ENDBRANCH   1  14
TORSDOF 5
ENDMDL
MODEL 3
REMARK VINA RESULT:      -5.5      4.483      7.083
REMARK  5 active torsions:
REMARK  status: ('A' for Active; 'I' for Inactive)
REMARK    1  A    between atoms: O_2  and  C_3 
REMARK    2  A    between atoms: C_3  and  C_6 
REMARK    3  A    between atoms: C_6  and  N_7 
REMARK       I    between atoms: N_7  and  C_8 
REMARK    4  A    between atoms: C_8  and  C_10 
REMARK    5  A    between atoms: C_10  and  C_11 
ROOT
HETATM    1  N   UNL     1     -40.577 -49.433  10.836  1.00  0.00    -0.358 N 
HETATM    2  C   UNL     1     -41.629 -48.599  11.138  1.00  0.00     0.223 C 
HETATM    3  O   UNL     1     -42.352 -48.757  12.120  1.00  0.00    -0.273 OA
HETATM    4  H   UNL     1     -40.051 -49.287   9.981  1.00  0.00     0.162 HD
ENDROOT
BRANCH   2   5
HETATM    5  C   UNL     1     -41.836 -47.464  10.157  1.00  0.00     0.161 C 
BRANCH   5   6
HETATM    6  C   UNL     1     -43.148 -47.583   9.467  1.00  0.00     0.036 A 
HETATM    7  C   UNL     1     -44.438 -47.391  10.015  1.00  0.00     0.053 A 
HETATM    8  C   UNL     1     -45.312 -47.626   8.978  1.00  0.00     0.024 A 
HETATM    9  C   UNL     1     -46.787 -47.585   8.896  1.00  0.00     0.070 C 
HETATM   10  N   UNL     1     -44.527 -47.939   7.903  1.00  0.00    -0.305 N 
HETATM   11  N   UNL     1     -43.211 -47.936   8.174  1.00  0.00    -0.304 N 
HETATM   12  H   UNL     1     -44.821 -48.168   6.959  1.00  0.00     0.186 HD
ATOM     13  HN  UNL     1     -42.440 -48.153   7.544  1.00  0.00     0.186 HD
ENDBRANCH   5   6
ENDBRANCH   2   5
BRANCH   1  14
HETATM   14  C   UNL     1     -40.275 -50.625  11.610  1.00  0.00     0.159 C 
BRANCH  14  15
HETATM   15  C   UNL     1     -38.939 -50.513  12.393  1.00  0.00     0.069 C 
HETATM   16  C   UNL     1     -39.166 -49.568  13.582  1.00  0.00     0.047 C 
HETATM   17  C   UNL     1     -37.842 -49.959  11.473  1.00  0.00     0.047 C 
BRANCH  15  18
HETATM   18  O   UNL     1     -38.623 -51.849  12.838  1.00  0.00    -0.384 OA
HETATM   19  C   UNL     1     -39.491 -52.423  13.804  1.00  0.00     0.202 C 
ENDBRANCH  15  18
ENDBRANCH  14  15
ENDBRANCH   1  14
TORSDOF 5
ENDMDL
MODEL 4
REMARK VINA RESULT:      -5.5      1.564      2.322
REMARK  5 active torsions:
REMARK  status: ('A' for Active; 'I' for Inactive)
REMARK    1  A    between atoms: O_2  and  C_3 
REMARK    2  A    between atoms: C_3  and  C_6 
REMARK    3  A    between atoms: C_6  and  N_7 
REMARK       I    between atoms: N_7  and  C_8 
REMARK    4  A    between atoms: C_8  and  C_10 
REMARK    5  A    between atoms: C_10  and  C_11 
ROOT
HETATM    1  N   UNL     1     -44.183 -53.405  14.356  1.00  0.00    -0.358 N 
HETATM    2  C   UNL     1     -43.611 -53.912  13.212  1.00  0.00     0.223 C 
HETATM    3  O   UNL     1     -44.255 -54.178  12.199  1.00  0.00    -0.273 OA
HETATM    4  H   UNL     1     -43.610 -53.258  15.181  1.00  0.00     0.162 HD
ENDROOT
BRANCH   2   5
HETATM    5  C   UNL     1     -42.113 -54.122  13.295  1.00  0.00     0.161 C 
BRANCH   5   6
HETATM    6  C   UNL     1     -41.376 -52.978  12.698  1.00  0.00     0.036 A 
HETATM    7  C   UNL     1     -40.427 -52.135  13.323  1.00  0.00     0.053 A 
HETATM    8  C   UNL     1     -40.049 -51.233  12.354  1.00  0.00     0.024 A 
HETATM    9  C   UNL     1     -39.092 -50.106  12.368  1.00  0.00     0.070 C 
HETATM   10  N   UNL     1     -40.769 -51.569  11.241  1.00  0.00    -0.305 N 
HETATM   11  N   UNL     1     -41.593 -52.613  11.426  1.00  0.00    -0.304 N 
HETATM   12  H   UNL     1     -40.750 -51.128  10.328  1.00  0.00     0.186 HD
ATOM     13  HN  UNL     1     -42.236 -53.032  10.753  1.00  0.00     0.186 HD
ENDBRANCH   5   6
ENDBRANCH   2   5
BRANCH   1  14
HETATM   14  C   UNL     1     -45.616 -53.217  14.498  1.00  0.00     0.159 C 
BRANCH  14  15
HETATM   15  C   UNL     1     -46.049 -51.735  14.334  1.00  0.00     0.069 C 
HETATM   16  C   UNL     1     -46.459 -51.523  12.868  1.00  0.00     0.047 C 
HETATM   17  C   UNL     1     -44.881 -50.808  14.700  1.00  0.00     0.047 C 
BRANCH  15  18
HETATM   18  O   UNL     1     -47.168 -51.544  15.224  1.00  0.00    -0.384 OA
HETATM   19  C   UNL     1     -46.941 -51.801  16.602  1.00  0.00     0.202 C 
ENDBRANCH  15  18
ENDBRANCH  14  15
ENDBRANCH   1  14
TORSDOF 5
ENDMDL
MODEL 5
REMARK VINA RESULT:      -5.1      3.629      4.857
REMARK  5 active torsions:
REMARK  status: ('A' for Active; 'I' for Inactive)
REMARK    1  A    between atoms: O_2  and  C_3 
REMARK    2  A    between atoms: C_3  and  C_6 
REMARK    3  A    between atoms: C_6  and  N_7 
REMARK       I    between atoms: N_7  and  C_8 
REMARK    4  A    between atoms: C_8  and  C_10 
REMARK    5  A    between atoms: C_10  and  C_11 
ROOT
HETATM    1  N   UNL     1     -42.220 -50.959  12.141  1.00  0.00    -0.358 N 
HETATM    2  C   UNL     1     -41.226 -50.066  11.813  1.00  0.00     0.223 C 
HETATM    3  O   UNL     1     -40.117 -50.412  11.409  1.00  0.00    -0.273 OA
HETATM    4  H   UNL     1     -43.095 -50.617  12.524  1.00  0.00     0.162 HD
ENDROOT
BRANCH   2   5
HETATM    5  C   UNL     1     -41.602 -48.610  11.992  1.00  0.00     0.161 C 
BRANCH   5   6
HETATM    6  C   UNL     1     -42.378 -48.108  10.827  1.00  0.00     0.036 A 
HETATM    7  C   UNL     1     -43.643 -47.474  10.835  1.00  0.00     0.053 A 
HETATM    8  C   UNL     1     -43.927 -47.215   9.513  1.00  0.00     0.024 A 
HETATM    9  C   UNL     1     -45.083 -46.571   8.855  1.00  0.00     0.070 C 
HETATM   10  N   UNL     1     -42.857 -47.694   8.809  1.00  0.00    -0.305 N 
HETATM   11  N   UNL     1     -41.910 -48.255   9.579  1.00  0.00    -0.304 N 
HETATM   12  H   UNL     1     -42.709 -47.675   7.805  1.00  0.00     0.186 HD
ATOM     13  HN  UNL     1     -41.037 -48.692   9.283  1.00  0.00     0.186 HD
ENDBRANCH   5   6
ENDBRANCH   2   5
BRANCH   1  14
HETATM   14  C   UNL     1     -42.018 -52.398  12.118  1.00  0.00     0.159 C 
BRANCH  14  15
HETATM   15  C   UNL     1     -42.875 -53.144  13.177  1.00  0.00     0.069 C 
HETATM   16  C   UNL     1     -42.037 -54.311  13.723  1.00  0.00     0.047 C 
HETATM   17  C   UNL     1     -44.163 -53.670  12.528  1.00  0.00     0.047 C 
BRANCH  15  18
HETATM   18  O   UNL     1     -43.165 -52.178  14.209  1.00  0.00    -0.384 OA
HETATM   19  C   UNL     1     -42.539 -52.380  15.468  1.00  0.00     0.202 C 
ENDBRANCH  15  18
ENDBRANCH  14  15
ENDBRANCH   1  14
TORSDOF 5
ENDMDL
MODEL 6
REMARK VINA RESULT:      -5.0      4.289      6.477
REMARK  5 active torsions:
REMARK  status: ('A' for Active; 'I' for Inactive)
REMARK    1  A    between atoms: O_2  and  C_3 
REMARK    2  A    between atoms: C_3  and  C_6 
REMARK    3  A    between atoms: C_6  and  N_7 
REMARK       I    between atoms: N_7  and  C_8 
REMARK    4  A    between atoms: C_8  and  C_10 
REMARK    5  A    between atoms: C_10  and  C_11 
ROOT
HETATM    1  N   UNL     1     -43.261 -48.279  11.391  1.00  0.00    -0.358 N 
HETATM    2  C   UNL     1     -42.660 -49.285  12.112  1.00  0.00     0.223 C 
HETATM    3  O   UNL     1     -41.615 -49.830  11.764  1.00  0.00    -0.273 OA
HETATM    4  H   UNL     1     -44.154 -47.907  11.698  1.00  0.00     0.162 HD
ENDROOT
BRANCH   2   5
HETATM    5  C   UNL     1     -43.394 -49.680  13.377  1.00  0.00     0.161 C 
BRANCH   5   6
HETATM    6  C   UNL     1     -44.102 -50.976  13.206  1.00  0.00     0.036 A 
HETATM    7  C   UNL     1     -43.710 -52.248  13.685  1.00  0.00     0.053 A 
HETATM    8  C   UNL     1     -44.691 -53.115  13.256  1.00  0.00     0.024 A 
HETATM    9  C   UNL     1     -44.872 -54.571  13.430  1.00  0.00     0.070 C 
HETATM   10  N   UNL     1     -45.583 -52.343  12.565  1.00  0.00    -0.305 N 
HETATM   11  N   UNL     1     -45.243 -51.045  12.505  1.00  0.00    -0.304 N 
HETATM   12  H   UNL     1     -46.440 -52.635  12.107  1.00  0.00     0.186 HD
ATOM     13  HN  UNL     1     -45.738 -50.287  12.035  1.00  0.00     0.186 HD
ENDBRANCH   5   6
ENDBRANCH   2   5
BRANCH   1  14
HETATM   14  C   UNL     1     -42.754 -47.825  10.108  1.00  0.00     0.159 C 
BRANCH  14  15
HETATM   15  C   UNL     1     -43.874 -47.299   9.169  1.00  0.00     0.069 C 
HETATM   16  C   UNL     1     -43.647 -47.910   7.777  1.00  0.00     0.047 C 
HETATM   17  C   UNL     1     -43.815 -45.767   9.096  1.00  0.00     0.047 C 
BRANCH  15  18
HETATM   18  O   UNL     1     -45.120 -47.748   9.741  1.00  0.00    -0.384 OA
HETATM   19  C   UNL     1     -46.223 -47.870   8.856  1.00  0.00     0.202 C 
ENDBRANCH  15  18
ENDBRANCH  14  15
ENDBRANCH   1  14
TORSDOF 5
ENDMDL
MODEL 7
REMARK VINA RESULT:      -5.0      1.999      2.703
REMARK  5 active torsions:
REMARK  status: ('A' for Active; 'I' for Inactive)
REMARK    1  A    between atoms: O_2  and  C_3 
REMARK    2  A    between atoms: C_3  and  C_6 
REMARK    3  A    between atoms: C_6  and  N_7 
REMARK       I    between atoms: N_7  and  C_8 
REMARK    4  A    between atoms: C_8  and  C_10 
REMARK    5  A    between atoms: C_10  and  C_11 
ROOT
HETATM    1  N   UNL     1     -43.608 -51.830  14.309  1.00  0.00    -0.358 N 
HETATM    2  C   UNL     1     -42.987 -51.214  13.246  1.00  0.00     0.223 C 
HETATM    3  O   UNL     1     -43.234 -50.060  12.901  1.00  0.00    -0.273 OA
HETATM    4  H   UNL     1     -43.405 -52.804  14.512  1.00  0.00     0.162 HD
ENDROOT
BRANCH   2   5
HETATM    5  C   UNL     1     -41.970 -52.074  12.524  1.00  0.00     0.161 C 
BRANCH   5   6
HETATM    6  C   UNL     1     -40.811 -51.265  12.067  1.00  0.00     0.036 A 
HETATM    7  C   UNL     1     -39.540 -51.147  12.677  1.00  0.00     0.053 A 
HETATM    8  C   UNL     1     -38.832 -50.279  11.876  1.00  0.00     0.024 A 
HETATM    9  C   UNL     1     -37.453 -49.752  11.961  1.00  0.00     0.070 C 
HETATM   10  N   UNL     1     -39.688 -49.933  10.867  1.00  0.00    -0.305 N 
HETATM   11  N   UNL     1     -40.899 -50.504  10.966  1.00  0.00    -0.304 N 
HETATM   12  H   UNL     1     -39.513 -49.312  10.083  1.00  0.00     0.186 HD
ATOM     13  HN  UNL     1     -41.702 -50.385  10.348  1.00  0.00     0.186 HD
ENDBRANCH   5   6
ENDBRANCH   2   5
BRANCH   1  14
HETATM   14  C   UNL     1     -44.672 -51.197  15.068  1.00  0.00     0.159 C 
BRANCH  14  15
HETATM   15  C   UNL     1     -46.023 -51.956  14.959  1.00  0.00     0.069 C 
HETATM   16  C   UNL     1     -46.479 -51.897  13.493  1.00  0.00     0.047 C 
HETATM   17  C   UNL     1     -47.066 -51.292  15.870  1.00  0.00     0.047 C 
BRANCH  15  18
HETATM   18  O   UNL     1     -45.755 -53.312  15.372  1.00  0.00    -0.384 OA
HETATM   19  C   UNL     1     -46.295 -54.345  14.561  1.00  0.00     0.202 C 
ENDBRANCH  15  18
ENDBRANCH  14  15
ENDBRANCH   1  14
TORSDOF 5
ENDMDL
MODEL 8
REMARK VINA RESULT:      -4.9      4.321      7.431
REMARK  5 active torsions:
REMARK  status: ('A' for Active; 'I' for Inactive)
REMARK    1  A    between atoms: O_2  and  C_3 
REMARK    2  A    between atoms: C_3  and  C_6 
REMARK    3  A    between atoms: C_6  and  N_7 
REMARK       I    between atoms: N_7  and  C_8 
REMARK    4  A    between atoms: C_8  and  C_10 
REMARK    5  A    between atoms: C_10  and  C_11 
ROOT
HETATM    1  N   UNL     1     -40.197 -47.206  12.597  1.00  0.00    -0.358 N 
HETATM    2  C   UNL     1     -40.275 -48.270  11.728  1.00  0.00     0.223 C 
HETATM    3  O   UNL     1     -41.055 -48.307  10.779  1.00  0.00    -0.273 OA
HETATM    4  H   UNL     1     -39.575 -47.255  13.397  1.00  0.00     0.162 HD
ENDROOT
BRANCH   2   5
HETATM    5  C   UNL     1     -39.322 -49.406  12.036  1.00  0.00     0.161 C 
BRANCH   5   6
HETATM    6  C   UNL     1     -40.024 -50.716  12.018  1.00  0.00     0.036 A 
HETATM    7  C   UNL     1     -40.022 -51.715  13.021  1.00  0.00     0.053 A 
HETATM    8  C   UNL     1     -40.809 -52.730  12.522  1.00  0.00     0.024 A 
HETATM    9  C   UNL     1     -41.207 -54.040  13.079  1.00  0.00     0.070 C 
HETATM   10  N   UNL     1     -41.222 -52.301  11.291  1.00  0.00    -0.305 N 
HETATM   11  N   UNL     1     -40.748 -51.090  10.953  1.00  0.00    -0.304 N 
HETATM   12  H   UNL     1     -41.821 -52.783  10.630  1.00  0.00     0.186 HD
ATOM     13  HN  UNL     1     -40.902 -50.575  10.087  1.00  0.00     0.186 HD
ENDBRANCH   5   6
ENDBRANCH   2   5
BRANCH   1  14
HETATM   14  C   UNL     1     -41.090 -46.063  12.517  1.00  0.00     0.159 C 
BRANCH  14  15
HETATM   15  C   UNL     1     -40.346 -44.737  12.197  1.00  0.00     0.069 C 
HETATM   16  C   UNL     1     -39.949 -44.766  10.713  1.00  0.00     0.047 C 
HETATM   17  C   UNL     1     -39.097 -44.616  13.081  1.00  0.00     0.047 C 
BRANCH  15  18
HETATM   18  O   UNL     1     -41.285 -43.676  12.468  1.00  0.00    -0.384 OA
HETATM   19  C   UNL     1     -42.518 -44.049  13.065  1.00  0.00     0.202 C 
ENDBRANCH  15  18
ENDBRANCH  14  15
ENDBRANCH   1  14
TORSDOF 5
ENDMDL
MODEL 9
REMARK VINA RESULT:      -4.8      1.698      2.255
REMARK  5 active torsions:
REMARK  status: ('A' for Active; 'I' for Inactive)
REMARK    1  A    between atoms: O_2  and  C_3 
REMARK    2  A    between atoms: C_3  and  C_6 
REMARK    3  A    between atoms: C_6  and  N_7 
REMARK       I    between atoms: N_7  and  C_8 
REMARK    4  A    between atoms: C_8  and  C_10 
REMARK    5  A    between atoms: C_10  and  C_11 
ROOT
HETATM    1  N   UNL     1     -43.260 -53.605  12.431  1.00  0.00    -0.358 N 
HETATM    2  C   UNL     1     -42.514 -52.449  12.394  1.00  0.00     0.223 C 
HETATM    3  O   UNL     1     -42.953 -51.354  12.738  1.00  0.00    -0.273 OA
HETATM    4  H   UNL     1     -42.862 -54.470  12.080  1.00  0.00     0.162 HD
ENDROOT
BRANCH   2   5
HETATM    5  C   UNL     1     -41.097 -52.629  11.889  1.00  0.00     0.161 C 
BRANCH   5   6
HETATM    6  C   UNL     1     -40.351 -51.343  11.912  1.00  0.00     0.036 A 
HETATM    7  C   UNL     1     -39.425 -50.895  12.884  1.00  0.00     0.053 A 
HETATM    8  C   UNL     1     -39.027 -49.648  12.457  1.00  0.00     0.024 A 
HETATM    9  C   UNL     1     -38.079 -48.663  13.020  1.00  0.00     0.070 C 
HETATM   10  N   UNL     1     -39.714 -49.423  11.296  1.00  0.00    -0.305 N 
HETATM   11  N   UNL     1     -40.536 -50.427  10.951  1.00  0.00    -0.304 N 
HETATM   12  H   UNL     1     -39.673 -48.608  10.693  1.00  0.00     0.186 HD
ATOM     13  HN  UNL     1     -41.157 -50.481  10.144  1.00  0.00     0.186 HD
ENDBRANCH   5   6
ENDBRANCH   2   5
BRANCH   1  14
HETATM   14  C   UNL     1     -44.664 -53.618  12.804  1.00  0.00     0.159 C 
BRANCH  14  15
HETATM   15  C   UNL     1     -44.894 -54.071  14.272  1.00  0.00     0.069 C 
HETATM   16  C   UNL     1     -43.715 -54.969  14.678  1.00  0.00     0.047 C 
HETATM   17  C   UNL     1     -46.215 -54.845  14.376  1.00  0.00     0.047 C 
BRANCH  15  18
HETATM   18  O   UNL     1     -44.930 -52.864  15.062  1.00  0.00    -0.384 OA
HETATM   19  C   UNL     1     -46.179 -52.515  15.640  1.00  0.00     0.202 C 
ENDBRANCH  15  18
ENDBRANCH  14  15
ENDBRANCH   1  14
TORSDOF 5
ENDMDL
