MODEL 1
REMARK VINA RESULT:      -8.1      0.000      0.000
REMARK  7 active torsions:
REMARK  status: ('A' for Active; 'I' for Inactive)
REMARK    1  A    between atoms: N_1  and  C_3 
REMARK    2  A    between atoms: C_14  and  N_16 
REMARK    3  A    between atoms: C_15  and  C_27 
REMARK       I    between atoms: N_16  and  C_17 
REMARK    4  A    between atoms: C_17  and  C_29 
REMARK    5  A    between atoms: C_22  and  O_26 
REMARK    6  A    between atoms: C_22  and  C_31 
REMARK    7  A    between atoms: O_26  and  C_27 
ROOT
HETATM    1  N   UNL     1     -42.862 -49.867  13.280  1.00  0.00    -0.297 N 
HETATM    2  C   UNL     1     -42.342 -49.015  12.339  1.00  0.00     0.142 A 
HETATM    3  C   UNL     1     -42.136 -47.818  13.010  1.00  0.00     0.122 A 
HETATM    4  N   UNL     1     -42.562 -47.907  14.315  1.00  0.00    -0.346 N 
ATOM      5  HN  UNL     1     -42.525 -47.186  15.035  1.00  0.00     0.167 HD
HETATM    6  C   UNL     1     -43.029 -49.132  14.426  1.00  0.00     0.188 A 
HETATM    7  C   UNL     1     -41.583 -46.765  12.269  1.00  0.00     0.140 A 
HETATM    8  N   UNL     1     -42.086 -49.269  11.047  1.00  0.00    -0.336 N 
ATOM      9  HN  UNL     1     -42.253 -50.166  10.592  1.00  0.00     0.168 HD
HETATM   10  N   UNL     1     -41.317 -46.973  10.961  1.00  0.00    -0.337 N 
ATOM     11  HN  UNL     1     -40.925 -46.227  10.386  1.00  0.00     0.168 HD
HETATM   12  C   UNL     1     -41.578 -48.183  10.430  1.00  0.00     0.183 A 
ENDROOT
BRANCH   1  13
HETATM   13  C   UNL     1     -43.103 -51.288  13.071  1.00  0.00     0.264 C 
HETATM   14  C   UNL     1     -43.163 -52.168  14.328  1.00  0.00     0.226 C 
HETATM   15  C   UNL     1     -42.025 -53.181  14.167  1.00  0.00     0.210 C 
HETATM   16  O   UNL     1     -44.384 -52.906  14.391  1.00  0.00    -0.241 OA
HETATM   17  O   UNL     1     -42.594 -54.422  13.736  1.00  0.00    -0.243 OA
HETATM   18  C   UNL     1     -41.163 -52.628  13.046  1.00  0.00     0.181 C 
HETATM   19  S   UNL     1     -44.211 -54.353  13.676  1.00  0.00     0.403 S 
HETATM   20  O   UNL     1     -44.748 -55.366  14.550  1.00  0.00    -0.169 OA
HETATM   21  O   UNL     1     -44.601 -54.210  12.291  1.00  0.00    -0.169 OA
HETATM   22  O   UNL     1     -42.030 -51.791  12.257  1.00  0.00    -0.353 OA
BRANCH  18  23
HETATM   23  C   UNL     1     -39.967 -51.810  13.546  1.00  0.00     0.213 C 
BRANCH  23  24
HETATM   24  O   UNL     1     -39.224 -51.297  12.429  1.00  0.00    -0.315 OA
BRANCH  24  25
HETATM   25  C   UNL     1     -37.945 -50.984  12.732  1.00  0.00     0.293 C 
HETATM   26  O   UNL     1     -36.961 -51.625  12.392  1.00  0.00    -0.259 OA
BRANCH  25  27
HETATM   27  C   UNL     1     -37.869 -49.768  13.567  1.00  0.00     0.039 A 
HETATM   28  C   UNL     1     -38.471 -48.558  13.203  1.00  0.00     0.017 A 
HETATM   29  C   UNL     1     -38.280 -47.428  14.003  1.00  0.00     0.001 A 
HETATM   30  C   UNL     1     -37.502 -47.510  15.160  1.00  0.00     0.000 A 
HETATM   31  C   UNL     1     -36.917 -48.720  15.530  1.00  0.00     0.001 A 
HETATM   32  C   UNL     1     -37.098 -49.846  14.732  1.00  0.00     0.017 A 
ENDBRANCH  25  27
ENDBRANCH  24  25
ENDBRANCH  23  24
ENDBRANCH  18  23
ENDBRANCH   1  13
BRANCH   7  33
HETATM   33  N   UNL     1     -41.364 -45.534  12.908  1.00  0.00    -0.307 N 
HETATM   34  C   UNL     1     -40.364 -44.651  12.573  1.00  0.00     0.257 C 
HETATM   35  O   UNL     1     -39.488 -44.830  11.732  1.00  0.00    -0.267 OA
HETATM   36  H   UNL     1     -41.980 -45.341  13.686  1.00  0.00     0.170 HD
BRANCH  34  37
HETATM   37  C   UNL     1     -40.343 -43.363  13.324  1.00  0.00     0.032 A 
HETATM   38  C   UNL     1     -39.976 -42.204  12.624  1.00  0.00     0.017 A 
HETATM   39  C   UNL     1     -39.997 -40.959  13.253  1.00  0.00     0.001 A 
HETATM   40  C   UNL     1     -40.393 -40.863  14.585  1.00  0.00     0.000 A 
HETATM   41  C   UNL     1     -40.763 -42.010  15.290  1.00  0.00     0.001 A 
HETATM   42  C   UNL     1     -40.740 -43.260  14.664  1.00  0.00     0.017 A 
ENDBRANCH  34  37
ENDBRANCH   7  33
TORSDOF 7
ENDMDL
MODEL 2
REMARK VINA RESULT:      -7.7      2.415      3.328
REMARK  7 active torsions:
REMARK  status: ('A' for Active; 'I' for Inactive)
REMARK    1  A    between atoms: N_1  and  C_3 
REMARK    2  A    between atoms: C_14  and  N_16 
REMARK    3  A    between atoms: C_15  and  C_27 
REMARK       I    between atoms: N_16  and  C_17 
REMARK    4  A    between atoms: C_17  and  C_29 
REMARK    5  A    between atoms: C_22  and  O_26 
REMARK    6  A    between atoms: C_22  and  C_31 
REMARK    7  A    between atoms: O_26  and  C_27 
ROOT
HETATM    1  N   UNL     1     -41.454 -49.235  12.978  1.00  0.00    -0.297 N 
HETATM    2  C   UNL     1     -41.834 -48.486  11.892  1.00  0.00     0.142 A 
HETATM    3  C   UNL     1     -42.196 -47.253  12.413  1.00  0.00     0.122 A 
HETATM    4  N   UNL     1     -42.094 -47.249  13.785  1.00  0.00    -0.346 N 
ATOM      5  HN  UNL     1     -42.288 -46.478  14.424  1.00  0.00     0.167 HD
HETATM    6  C   UNL     1     -41.688 -48.464  14.088  1.00  0.00     0.188 A 
HETATM    7  C   UNL     1     -42.614 -46.278  11.497  1.00  0.00     0.140 A 
HETATM    8  N   UNL     1     -41.858 -48.856  10.603  1.00  0.00    -0.336 N 
ATOM      9  HN  UNL     1     -41.582 -49.777  10.262  1.00  0.00     0.168 HD
HETATM   10  N   UNL     1     -42.662 -46.609  10.188  1.00  0.00    -0.337 N 
ATOM     11  HN  UNL     1     -42.972 -45.931   9.492  1.00  0.00     0.168 HD
HETATM   12  C   UNL     1     -42.294 -47.851   9.818  1.00  0.00     0.183 A 
ENDROOT
BRANCH   1  13
HETATM   13  C   UNL     1     -40.854 -50.560  12.905  1.00  0.00     0.264 C 
HETATM   14  C   UNL     1     -40.221 -51.100  14.195  1.00  0.00     0.226 C 
HETATM   15  C   UNL     1     -38.742 -51.317  13.861  1.00  0.00     0.210 C 
HETATM   16  O   UNL     1     -40.767 -52.371  14.552  1.00  0.00    -0.241 OA
HETATM   17  O   UNL     1     -38.540 -52.714  13.628  1.00  0.00    -0.243 OA
HETATM   18  C   UNL     1     -38.522 -50.572  12.556  1.00  0.00     0.181 C 
HETATM   19  S   UNL     1     -39.887 -53.570  13.901  1.00  0.00     0.403 S 
HETATM   20  O   UNL     1     -39.614 -54.548  14.923  1.00  0.00    -0.169 OA
HETATM   21  O   UNL     1     -40.473 -53.901  12.620  1.00  0.00    -0.169 OA
HETATM   22  O   UNL     1     -39.811 -50.505  11.917  1.00  0.00    -0.353 OA
BRANCH  18  23
HETATM   23  C   UNL     1     -37.966 -49.157  12.750  1.00  0.00     0.213 C 
BRANCH  23  24
HETATM   24  O   UNL     1     -38.173 -48.731  14.106  1.00  0.00    -0.315 OA
BRANCH  24  25
HETATM   25  C   UNL     1     -37.517 -47.591  14.419  1.00  0.00     0.293 C 
HETATM   26  O   UNL     1     -36.302 -47.470  14.481  1.00  0.00    -0.259 OA
BRANCH  25  27
HETATM   27  C   UNL     1     -38.457 -46.490  14.715  1.00  0.00     0.039 A 
HETATM   28  C   UNL     1     -39.098 -46.352  15.951  1.00  0.00     0.017 A 
HETATM   29  C   UNL     1     -40.040 -45.335  16.125  1.00  0.00     0.001 A 
HETATM   30  C   UNL     1     -40.332 -44.460  15.076  1.00  0.00     0.000 A 
HETATM   31  C   UNL     1     -39.679 -44.588  13.851  1.00  0.00     0.001 A 
HETATM   32  C   UNL     1     -38.745 -45.605  13.670  1.00  0.00     0.017 A 
ENDBRANCH  25  27
ENDBRANCH  24  25
ENDBRANCH  23  24
ENDBRANCH  18  23
ENDBRANCH   1  13
BRANCH   7  33
HETATM   33  N   UNL     1     -42.996 -45.017  11.982  1.00  0.00    -0.307 N 
HETATM   34  C   UNL     1     -42.476 -43.824  11.539  1.00  0.00     0.257 C 
HETATM   35  O   UNL     1     -41.569 -43.684  10.723  1.00  0.00    -0.267 OA
HETATM   36  H   UNL     1     -43.672 -45.035  12.733  1.00  0.00     0.170 HD
BRANCH  34  37
HETATM   37  C   UNL     1     -43.066 -42.587  12.129  1.00  0.00     0.032 A 
HETATM   38  C   UNL     1     -43.825 -41.761  11.289  1.00  0.00     0.017 A 
HETATM   39  C   UNL     1     -44.456 -40.623  11.795  1.00  0.00     0.001 A 
HETATM   40  C   UNL     1     -44.337 -40.309  13.147  1.00  0.00     0.000 A 
HETATM   41  C   UNL     1     -43.585 -41.128  13.992  1.00  0.00     0.001 A 
HETATM   42  C   UNL     1     -42.949 -42.267  13.488  1.00  0.00     0.017 A 
ENDBRANCH  34  37
ENDBRANCH   7  33
TORSDOF 7
ENDMDL
MODEL 3
REMARK VINA RESULT:      -7.6      3.646      8.971
REMARK  7 active torsions:
REMARK  status: ('A' for Active; 'I' for Inactive)
REMARK    1  A    between atoms: N_1  and  C_3 
REMARK    2  A    between atoms: C_14  and  N_16 
REMARK    3  A    between atoms: C_15  and  C_27 
REMARK       I    between atoms: N_16  and  C_17 
REMARK    4  A    between atoms: C_17  and  C_29 
REMARK    5  A    between atoms: C_22  and  O_26 
REMARK    6  A    between atoms: C_22  and  C_31 
REMARK    7  A    between atoms: O_26  and  C_27 
ROOT
HETATM    1  N   UNL     1     -39.905 -49.491  12.926  1.00  0.00    -0.297 N 
HETATM    2  C   UNL     1     -40.290 -50.757  12.561  1.00  0.00     0.142 A 
HETATM    3  C   UNL     1     -39.778 -51.589  13.546  1.00  0.00     0.122 A 
HETATM    4  N   UNL     1     -39.053 -50.869  14.469  1.00  0.00    -0.346 N 
ATOM      5  HN  UNL     1     -38.575 -51.221  15.299  1.00  0.00     0.167 HD
HETATM    6  C   UNL     1     -39.117 -49.627  14.041  1.00  0.00     0.188 A 
HETATM    7  C   UNL     1     -40.049 -52.958  13.422  1.00  0.00     0.140 A 
HETATM    8  N   UNL     1     -41.003 -51.124  11.486  1.00  0.00    -0.336 N 
ATOM      9  HN  UNL     1     -41.361 -50.478  10.784  1.00  0.00     0.168 HD
HETATM   10  N   UNL     1     -40.757 -53.375  12.349  1.00  0.00    -0.337 N 
ATOM     11  HN  UNL     1     -40.964 -54.365  12.217  1.00  0.00     0.168 HD
HETATM   12  C   UNL     1     -41.184 -52.460  11.458  1.00  0.00     0.183 A 
ENDROOT
BRANCH   1  13
HETATM   13  C   UNL     1     -40.338 -48.268  12.266  1.00  0.00     0.264 C 
HETATM   14  C   UNL     1     -40.133 -46.958  13.040  1.00  0.00     0.226 C 
HETATM   15  C   UNL     1     -41.538 -46.375  13.227  1.00  0.00     0.210 C 
HETATM   16  O   UNL     1     -39.379 -46.015  12.280  1.00  0.00    -0.241 OA
HETATM   17  O   UNL     1     -41.716 -45.332  12.264  1.00  0.00    -0.243 OA
HETATM   18  C   UNL     1     -42.483 -47.514  12.889  1.00  0.00     0.181 C 
HETATM   19  S   UNL     1     -40.367 -45.066  11.409  1.00  0.00     0.403 S 
HETATM   20  O   UNL     1     -39.968 -43.693  11.592  1.00  0.00    -0.169 OA
HETATM   21  O   UNL     1     -40.533 -45.679  10.110  1.00  0.00    -0.169 OA
HETATM   22  O   UNL     1     -41.748 -48.392  12.015  1.00  0.00    -0.353 OA
BRANCH  18  23
HETATM   23  C   UNL     1     -42.964 -48.291  14.119  1.00  0.00     0.213 C 
BRANCH  23  24
HETATM   24  O   UNL     1     -43.138 -49.677  13.785  1.00  0.00    -0.315 OA
BRANCH  24  25
HETATM   25  C   UNL     1     -43.254 -50.481  14.865  1.00  0.00     0.293 C 
HETATM   26  O   UNL     1     -42.321 -50.944  15.506  1.00  0.00    -0.259 OA
BRANCH  25  27
HETATM   27  C   UNL     1     -44.670 -50.771  15.174  1.00  0.00     0.039 A 
HETATM   28  C   UNL     1     -45.215 -50.613  16.455  1.00  0.00     0.017 A 
HETATM   29  C   UNL     1     -46.539 -50.992  16.687  1.00  0.00     0.001 A 
HETATM   30  C   UNL     1     -47.314 -51.514  15.649  1.00  0.00     0.000 A 
HETATM   31  C   UNL     1     -46.775 -51.655  14.371  1.00  0.00     0.001 A 
HETATM   32  C   UNL     1     -45.453 -51.286  14.136  1.00  0.00     0.017 A 
ENDBRANCH  25  27
ENDBRANCH  24  25
ENDBRANCH  23  24
ENDBRANCH  18  23
ENDBRANCH   1  13
BRANCH   7  33
HETATM   33  N   UNL     1     -39.544 -53.836  14.394  1.00  0.00    -0.307 N 
HETATM   34  C   UNL     1     -40.322 -54.644  15.191  1.00  0.00     0.257 C 
HETATM   35  O   UNL     1     -41.549 -54.669  15.223  1.00  0.00    -0.267 OA
HETATM   36  H   UNL     1     -38.541 -53.813  14.510  1.00  0.00     0.170 HD
BRANCH  34  37
HETATM   37  C   UNL     1     -39.591 -55.560  16.113  1.00  0.00     0.032 A 
HETATM   38  C   UNL     1     -38.232 -55.305  16.347  1.00  0.00     0.017 A 
HETATM   39  C   UNL     1     -37.509 -56.088  17.248  1.00  0.00     0.001 A 
HETATM   40  C   UNL     1     -38.142 -57.125  17.927  1.00  0.00     0.000 A 
HETATM   41  C   UNL     1     -39.495 -57.385  17.704  1.00  0.00     0.001 A 
HETATM   42  C   UNL     1     -40.223 -56.606  16.799  1.00  0.00     0.017 A 
ENDBRANCH  34  37
ENDBRANCH   7  33
TORSDOF 7
ENDMDL
MODEL 4
REMARK VINA RESULT:      -7.5      3.468      7.167
REMARK  7 active torsions:
REMARK  status: ('A' for Active; 'I' for Inactive)
REMARK    1  A    between atoms: N_1  and  C_3 
REMARK    2  A    between atoms: C_14  and  N_16 
REMARK    3  A    between atoms: C_15  and  C_27 
REMARK       I    between atoms: N_16  and  C_17 
REMARK    4  A    between atoms: C_17  and  C_29 
REMARK    5  A    between atoms: C_22  and  O_26 
REMARK    6  A    between atoms: C_22  and  C_31 
REMARK    7  A    between atoms: O_26  and  C_27 
ROOT
HETATM    1  N   UNL     1     -40.215 -46.995  12.056  1.00  0.00    -0.297 N 
HETATM    2  C   UNL     1     -39.327 -48.025  12.231  1.00  0.00     0.142 A 
HETATM    3  C   UNL     1     -38.673 -47.741  13.421  1.00  0.00     0.122 A 
HETATM    4  N   UNL     1     -39.106 -46.544  13.945  1.00  0.00    -0.346 N 
ATOM      5  HN  UNL     1     -38.804 -46.096  14.810  1.00  0.00     0.167 HD
HETATM    6  C   UNL     1     -39.995 -46.108  13.079  1.00  0.00     0.188 A 
HETATM    7  C   UNL     1     -37.709 -48.663  13.850  1.00  0.00     0.140 A 
HETATM    8  N   UNL     1     -39.122 -49.083  11.432  1.00  0.00    -0.336 N 
ATOM      9  HN  UNL     1     -39.626 -49.254  10.562  1.00  0.00     0.168 HD
HETATM   10  N   UNL     1     -37.463 -49.740  13.071  1.00  0.00    -0.337 N 
ATOM     11  HN  UNL     1     -36.761 -50.427  13.343  1.00  0.00     0.168 HD
HETATM   12  C   UNL     1     -38.163 -49.888  11.930  1.00  0.00     0.183 A 
ENDROOT
BRANCH   1  13
HETATM   13  C   UNL     1     -41.227 -46.938  11.010  1.00  0.00     0.264 C 
HETATM   14  C   UNL     1     -42.490 -46.121  11.317  1.00  0.00     0.226 C 
HETATM   15  C   UNL     1     -43.648 -47.121  11.236  1.00  0.00     0.210 C 
HETATM   16  O   UNL     1     -42.721 -45.122  10.324  1.00  0.00    -0.241 OA
HETATM   17  O   UNL     1     -44.301 -46.942   9.976  1.00  0.00    -0.243 OA
HETATM   18  C   UNL     1     -42.987 -48.488  11.249  1.00  0.00     0.181 C 
HETATM   19  S   UNL     1     -43.673 -45.703   9.144  1.00  0.00     0.403 S 
HETATM   20  O   UNL     1     -44.718 -44.746   8.881  1.00  0.00    -0.169 OA
HETATM   21  O   UNL     1     -42.815 -46.246   8.113  1.00  0.00    -0.169 OA
HETATM   22  O   UNL     1     -41.652 -48.287  10.749  1.00  0.00    -0.353 OA
BRANCH  18  23
HETATM   23  C   UNL     1     -42.928 -49.121  12.644  1.00  0.00     0.213 C 
BRANCH  23  24
HETATM   24  O   UNL     1     -42.698 -50.535  12.530  1.00  0.00    -0.315 OA
BRANCH  24  25
HETATM   25  C   UNL     1     -42.841 -51.199  13.699  1.00  0.00     0.293 C 
HETATM   26  O   UNL     1     -41.928 -51.672  14.359  1.00  0.00    -0.259 OA
BRANCH  25  27
HETATM   27  C   UNL     1     -44.263 -51.321  14.081  1.00  0.00     0.039 A 
HETATM   28  C   UNL     1     -45.274 -51.624  13.160  1.00  0.00     0.017 A 
HETATM   29  C   UNL     1     -46.605 -51.634  13.582  1.00  0.00     0.001 A 
HETATM   30  C   UNL     1     -46.923 -51.354  14.913  1.00  0.00     0.000 A 
HETATM   31  C   UNL     1     -45.915 -51.070  15.832  1.00  0.00     0.001 A 
HETATM   32  C   UNL     1     -44.587 -51.050  15.415  1.00  0.00     0.017 A 
ENDBRANCH  25  27
ENDBRANCH  24  25
ENDBRANCH  23  24
ENDBRANCH  18  23
ENDBRANCH   1  13
BRANCH   7  33
HETATM   33  N   UNL     1     -37.019 -48.411  15.046  1.00  0.00    -0.307 N 
HETATM   34  C   UNL     1     -36.728 -49.365  15.992  1.00  0.00     0.257 C 
HETATM   35  O   UNL     1     -37.079 -50.542  15.970  1.00  0.00    -0.267 OA
HETATM   36  H   UNL     1     -36.773 -47.443  15.201  1.00  0.00     0.170 HD
BRANCH  34  37
HETATM   37  C   UNL     1     -35.923 -48.910  17.162  1.00  0.00     0.032 A 
HETATM   38  C   UNL     1     -35.560 -47.557  17.219  1.00  0.00     0.017 A 
HETATM   39  C   UNL     1     -34.860 -47.056  18.318  1.00  0.00     0.001 A 
HETATM   40  C   UNL     1     -34.526 -47.904  19.371  1.00  0.00     0.000 A 
HETATM   41  C   UNL     1     -34.886 -49.253  19.325  1.00  0.00     0.001 A 
HETATM   42  C   UNL     1     -35.584 -49.759  18.224  1.00  0.00     0.017 A 
ENDBRANCH  34  37
ENDBRANCH   7  33
TORSDOF 7
ENDMDL
MODEL 5
REMARK VINA RESULT:      -7.5      3.492      9.062
REMARK  7 active torsions:
REMARK  status: ('A' for Active; 'I' for Inactive)
REMARK    1  A    between atoms: N_1  and  C_3 
REMARK    2  A    between atoms: C_14  and  N_16 
REMARK    3  A    between atoms: C_15  and  C_27 
REMARK       I    between atoms: N_16  and  C_17 
REMARK    4  A    between atoms: C_17  and  C_29 
REMARK    5  A    between atoms: C_22  and  O_26 
REMARK    6  A    between atoms: C_22  and  C_31 
REMARK    7  A    between atoms: O_26  and  C_27 
ROOT
HETATM    1  N   UNL     1     -41.617 -46.139  13.731  1.00  0.00    -0.297 N 
HETATM    2  C   UNL     1     -40.834 -47.237  13.480  1.00  0.00     0.142 A 
HETATM    3  C   UNL     1     -41.661 -48.329  13.700  1.00  0.00     0.122 A 
HETATM    4  N   UNL     1     -42.906 -47.924  14.125  1.00  0.00    -0.346 N 
ATOM      5  HN  UNL     1     -43.709 -48.510  14.352  1.00  0.00     0.167 HD
HETATM    6  C   UNL     1     -42.827 -46.612  14.171  1.00  0.00     0.188 A 
HETATM    7  C   UNL     1     -41.103 -49.597  13.492  1.00  0.00     0.140 A 
HETATM    8  N   UNL     1     -39.546 -47.264  13.105  1.00  0.00    -0.336 N 
ATOM      9  HN  UNL     1     -38.973 -46.434  12.954  1.00  0.00     0.168 HD
HETATM   10  N   UNL     1     -39.806 -49.673  13.122  1.00  0.00    -0.337 N 
ATOM     11  HN  UNL     1     -39.360 -50.578  12.972  1.00  0.00     0.168 HD
HETATM   12  C   UNL     1     -39.111 -48.531  12.955  1.00  0.00     0.183 A 
ENDROOT
BRANCH   1  13
HETATM   13  C   UNL     1     -41.217 -44.760  13.489  1.00  0.00     0.264 C 
HETATM   14  C   UNL     1     -42.273 -43.679  13.760  1.00  0.00     0.226 C 
HETATM   15  C   UNL     1     -42.494 -42.982  12.413  1.00  0.00     0.210 C 
HETATM   16  O   UNL     1     -41.790 -42.695  14.674  1.00  0.00    -0.241 OA
HETATM   17  O   UNL     1     -41.775 -41.744  12.432  1.00  0.00    -0.243 OA
HETATM   18  C   UNL     1     -41.852 -43.899  11.387  1.00  0.00     0.181 C 
HETATM   19  S   UNL     1     -41.088 -41.470  13.872  1.00  0.00     0.403 S 
HETATM   20  O   UNL     1     -41.595 -40.226  14.395  1.00  0.00    -0.169 OA
HETATM   21  O   UNL     1     -39.678 -41.768  13.759  1.00  0.00    -0.169 OA
HETATM   22  O   UNL     1     -40.855 -44.655  12.101  1.00  0.00    -0.353 OA
BRANCH  18  23
HETATM   23  C   UNL     1     -42.847 -44.855  10.720  1.00  0.00     0.213 C 
BRANCH  23  24
HETATM   24  O   UNL     1     -42.178 -45.635   9.716  1.00  0.00    -0.315 OA
BRANCH  24  25
HETATM   25  C   UNL     1     -42.364 -46.967   9.856  1.00  0.00     0.293 C 
HETATM   26  O   UNL     1     -41.580 -47.737  10.391  1.00  0.00    -0.259 OA
BRANCH  25  27
HETATM   27  C   UNL     1     -43.638 -47.402   9.246  1.00  0.00     0.039 A 
HETATM   28  C   UNL     1     -44.851 -47.406   9.945  1.00  0.00     0.017 A 
HETATM   29  C   UNL     1     -45.996 -47.915   9.328  1.00  0.00     0.001 A 
HETATM   30  C   UNL     1     -45.931 -48.407   8.022  1.00  0.00     0.000 A 
HETATM   31  C   UNL     1     -44.725 -48.386   7.322  1.00  0.00     0.001 A 
HETATM   32  C   UNL     1     -43.580 -47.887   7.935  1.00  0.00     0.017 A 
ENDBRANCH  25  27
ENDBRANCH  24  25
ENDBRANCH  23  24
ENDBRANCH  18  23
ENDBRANCH   1  13
BRANCH   7  33
HETATM   33  N   UNL     1     -41.903 -50.730  13.709  1.00  0.00    -0.307 N 
HETATM   34  C   UNL     1     -42.024 -51.778  12.827  1.00  0.00     0.257 C 
HETATM   35  O   UNL     1     -41.519 -51.850  11.710  1.00  0.00    -0.267 OA
HETATM   36  H   UNL     1     -42.440 -50.715  14.566  1.00  0.00     0.170 HD
BRANCH  34  37
HETATM   37  C   UNL     1     -42.868 -52.923  13.275  1.00  0.00     0.032 A 
HETATM   38  C   UNL     1     -42.540 -53.541  14.490  1.00  0.00     0.017 A 
HETATM   39  C   UNL     1     -43.328 -54.577  14.995  1.00  0.00     0.001 A 
HETATM   40  C   UNL     1     -44.454 -54.996  14.291  1.00  0.00     0.000 A 
HETATM   41  C   UNL     1     -44.791 -54.384  13.081  1.00  0.00     0.001 A 
HETATM   42  C   UNL     1     -44.002 -53.349  12.570  1.00  0.00     0.017 A 
ENDBRANCH  34  37
ENDBRANCH   7  33
TORSDOF 7
ENDMDL
MODEL 6
REMARK VINA RESULT:      -7.3      1.705      2.195
REMARK  7 active torsions:
REMARK  status: ('A' for Active; 'I' for Inactive)
REMARK    1  A    between atoms: N_1  and  C_3 
REMARK    2  A    between atoms: C_14  and  N_16 
REMARK    3  A    between atoms: C_15  and  C_27 
REMARK       I    between atoms: N_16  and  C_17 
REMARK    4  A    between atoms: C_17  and  C_29 
REMARK    5  A    between atoms: C_22  and  O_26 
REMARK    6  A    between atoms: C_22  and  C_31 
REMARK    7  A    between atoms: O_26  and  C_27 
ROOT
HETATM    1  N   UNL     1     -42.194 -48.930  12.805  1.00  0.00    -0.297 N 
HETATM    2  C   UNL     1     -42.267 -48.185  11.655  1.00  0.00     0.142 A 
HETATM    3  C   UNL     1     -41.854 -46.912  12.021  1.00  0.00     0.122 A 
HETATM    4  N   UNL     1     -41.581 -46.853  13.369  1.00  0.00    -0.346 N 
ATOM      5  HN  UNL     1     -41.254 -46.050  13.905  1.00  0.00     0.167 HD
HETATM    6  C   UNL     1     -41.837 -48.066  13.810  1.00  0.00     0.188 A 
HETATM    7  C   UNL     1     -41.817 -45.944  11.010  1.00  0.00     0.140 A 
HETATM    8  N   UNL     1     -42.655 -48.587  10.436  1.00  0.00    -0.336 N 
ATOM      9  HN  UNL     1     -42.952 -49.535  10.209  1.00  0.00     0.168 HD
HETATM   10  N   UNL     1     -42.207 -46.301   9.767  1.00  0.00    -0.337 N 
ATOM     11  HN  UNL     1     -42.206 -45.622   9.006  1.00  0.00     0.168 HD
HETATM   12  C   UNL     1     -42.599 -47.572   9.550  1.00  0.00     0.183 A 
ENDROOT
BRANCH   1  13
HETATM   13  C   UNL     1     -42.394 -50.370  12.878  1.00  0.00     0.264 C 
HETATM   14  C   UNL     1     -41.977 -51.059  14.184  1.00  0.00     0.226 C 
HETATM   15  C   UNL     1     -40.891 -52.062  13.785  1.00  0.00     0.210 C 
HETATM   16  O   UNL     1     -43.056 -51.803  14.750  1.00  0.00    -0.241 OA
HETATM   17  O   UNL     1     -41.485 -53.363  13.736  1.00  0.00    -0.243 OA
HETATM   18  C   UNL     1     -40.486 -51.661  12.377  1.00  0.00     0.181 C 
HETATM   19  S   UNL     1     -43.032 -53.336  14.214  1.00  0.00     0.403 S 
HETATM   20  O   UNL     1     -43.181 -54.221  15.341  1.00  0.00    -0.169 OA
HETATM   21  O   UNL     1     -43.866 -53.403  13.034  1.00  0.00    -0.169 OA
HETATM   22  O   UNL     1     -41.618 -50.965  11.823  1.00  0.00    -0.353 OA
BRANCH  18  23
HETATM   23  C   UNL     1     -39.250 -50.756  12.335  1.00  0.00     0.213 C 
BRANCH  23  24
HETATM   24  O   UNL     1     -38.841 -50.422  13.671  1.00  0.00    -0.315 OA
BRANCH  24  25
HETATM   25  C   UNL     1     -38.337 -49.173  13.784  1.00  0.00     0.293 C 
HETATM   26  O   UNL     1     -38.592 -48.238  13.038  1.00  0.00    -0.259 OA
BRANCH  25  27
HETATM   27  C   UNL     1     -37.396 -49.070  14.918  1.00  0.00     0.039 A 
HETATM   28  C   UNL     1     -36.785 -47.866  15.290  1.00  0.00     0.017 A 
HETATM   29  C   UNL     1     -35.838 -47.866  16.317  1.00  0.00     0.001 A 
HETATM   30  C   UNL     1     -35.511 -49.056  16.972  1.00  0.00     0.000 A 
HETATM   31  C   UNL     1     -36.133 -50.251  16.611  1.00  0.00     0.001 A 
HETATM   32  C   UNL     1     -37.071 -50.257  15.582  1.00  0.00     0.017 A 
ENDBRANCH  25  27
ENDBRANCH  24  25
ENDBRANCH  23  24
ENDBRANCH  18  23
ENDBRANCH   1  13
BRANCH   7  33
HETATM   33  N   UNL     1     -41.411 -44.640  11.339  1.00  0.00    -0.307 N 
HETATM   34  C   UNL     1     -42.077 -43.499  10.957  1.00  0.00     0.257 C 
HETATM   35  O   UNL     1     -43.065 -43.442  10.229  1.00  0.00    -0.267 OA
HETATM   36  H   UNL     1     -40.546 -44.581  11.857  1.00  0.00     0.170 HD
BRANCH  34  37
HETATM   37  C   UNL     1     -41.525 -42.211  11.469  1.00  0.00     0.032 A 
HETATM   38  C   UNL     1     -40.451 -42.272  12.368  1.00  0.00     0.017 A 
HETATM   39  C   UNL     1     -39.850 -41.102  12.834  1.00  0.00     0.001 A 
HETATM   40  C   UNL     1     -40.313 -39.864  12.397  1.00  0.00     0.000 A 
HETATM   41  C   UNL     1     -41.380 -39.793  11.499  1.00  0.00     0.001 A 
HETATM   42  C   UNL     1     -41.988 -40.963  11.033  1.00  0.00     0.017 A 
ENDBRANCH  34  37
ENDBRANCH   7  33
TORSDOF 7
ENDMDL
MODEL 7
REMARK VINA RESULT:      -7.2      5.522      7.807
REMARK  7 active torsions:
REMARK  status: ('A' for Active; 'I' for Inactive)
REMARK    1  A    between atoms: N_1  and  C_3 
REMARK    2  A    between atoms: C_14  and  N_16 
REMARK    3  A    between atoms: C_15  and  C_27 
REMARK       I    between atoms: N_16  and  C_17 
REMARK    4  A    between atoms: C_17  and  C_29 
REMARK    5  A    between atoms: C_22  and  O_26 
REMARK    6  A    between atoms: C_22  and  C_31 
REMARK    7  A    between atoms: O_26  and  C_27 
ROOT
HETATM    1  N   UNL     1     -42.107 -53.005  16.857  1.00  0.00    -0.297 N 
HETATM    2  C   UNL     1     -43.408 -53.163  17.262  1.00  0.00     0.142 A 
HETATM    3  C   UNL     1     -43.924 -51.877  17.335  1.00  0.00     0.122 A 
HETATM    4  N   UNL     1     -42.958 -50.943  17.034  1.00  0.00    -0.346 N 
ATOM      5  HN  UNL     1     -43.059 -49.929  17.002  1.00  0.00     0.167 HD
HETATM    6  C   UNL     1     -41.877 -51.654  16.795  1.00  0.00     0.188 A 
HETATM    7  C   UNL     1     -45.266 -51.754  17.715  1.00  0.00     0.140 A 
HETATM    8  N   UNL     1     -44.054 -54.307  17.535  1.00  0.00    -0.336 N 
ATOM      9  HN  UNL     1     -43.636 -55.234  17.469  1.00  0.00     0.168 HD
HETATM   10  N   UNL     1     -45.954 -52.880  18.008  1.00  0.00    -0.337 N 
ATOM     11  HN  UNL     1     -46.930 -52.831  18.300  1.00  0.00     0.168 HD
HETATM   12  C   UNL     1     -45.327 -54.068  17.909  1.00  0.00     0.183 A 
ENDROOT
BRANCH   1  13
HETATM   13  C   UNL     1     -41.208 -54.094  16.501  1.00  0.00     0.264 C 
HETATM   14  C   UNL     1     -39.717 -53.747  16.389  1.00  0.00     0.226 C 
HETATM   15  C   UNL     1     -39.337 -54.061  14.938  1.00  0.00     0.210 C 
HETATM   16  O   UNL     1     -38.922 -54.585  17.228  1.00  0.00    -0.241 OA
HETATM   17  O   UNL     1     -38.655 -55.319  14.921  1.00  0.00    -0.243 OA
HETATM   18  C   UNL     1     -40.661 -54.218  14.211  1.00  0.00     0.181 C 
HETATM   19  S   UNL     1     -38.432 -55.903  16.415  1.00  0.00     0.403 S 
HETATM   20  O   UNL     1     -37.019 -56.081  16.634  1.00  0.00    -0.169 OA
HETATM   21  O   UNL     1     -39.409 -56.946  16.637  1.00  0.00    -0.169 OA
HETATM   22  O   UNL     1     -41.622 -54.591  15.217  1.00  0.00    -0.353 OA
BRANCH  18  23
HETATM   23  C   UNL     1     -41.121 -52.939  13.503  1.00  0.00     0.213 C 
BRANCH  23  24
HETATM   24  O   UNL     1     -42.505 -53.055  13.135  1.00  0.00    -0.315 OA
BRANCH  24  25
HETATM   25  C   UNL     1     -43.214 -51.923  13.344  1.00  0.00     0.293 C 
HETATM   26  O   UNL     1     -42.775 -50.786  13.248  1.00  0.00    -0.259 OA
BRANCH  25  27
HETATM   27  C   UNL     1     -44.605 -52.223  13.743  1.00  0.00     0.039 A 
HETATM   28  C   UNL     1     -45.559 -51.225  13.975  1.00  0.00     0.017 A 
HETATM   29  C   UNL     1     -46.829 -51.583  14.435  1.00  0.00     0.001 A 
HETATM   30  C   UNL     1     -47.144 -52.927  14.653  1.00  0.00     0.000 A 
HETATM   31  C   UNL     1     -46.198 -53.920  14.405  1.00  0.00     0.001 A 
HETATM   32  C   UNL     1     -44.929 -53.567  13.954  1.00  0.00     0.017 A 
ENDBRANCH  25  27
ENDBRANCH  24  25
ENDBRANCH  23  24
ENDBRANCH  18  23
ENDBRANCH   1  13
BRANCH   7  33
HETATM   33  N   UNL     1     -45.826 -50.470  17.808  1.00  0.00    -0.307 N 
HETATM   34  C   UNL     1     -46.825 -50.119  18.685  1.00  0.00     0.257 C 
HETATM   35  O   UNL     1     -47.416 -50.873  19.455  1.00  0.00    -0.267 OA
HETATM   36  H   UNL     1     -45.471 -49.800  17.140  1.00  0.00     0.170 HD
BRANCH  34  37
HETATM   37  C   UNL     1     -47.235 -48.685  18.679  1.00  0.00     0.032 A 
HETATM   38  C   UNL     1     -46.228 -47.718  18.545  1.00  0.00     0.017 A 
HETATM   39  C   UNL     1     -46.551 -46.363  18.469  1.00  0.00     0.001 A 
HETATM   40  C   UNL     1     -47.885 -45.966  18.519  1.00  0.00     0.000 A 
HETATM   41  C   UNL     1     -48.895 -46.921  18.649  1.00  0.00     0.001 A 
HETATM   42  C   UNL     1     -48.575 -48.280  18.729  1.00  0.00     0.017 A 
ENDBRANCH  34  37
ENDBRANCH   7  33
TORSDOF 7
ENDMDL
MODEL 8
REMARK VINA RESULT:      -7.1      3.297      7.974
REMARK  7 active torsions:
REMARK  status: ('A' for Active; 'I' for Inactive)
REMARK    1  A    between atoms: N_1  and  C_3 
REMARK    2  A    between atoms: C_14  and  N_16 
REMARK    3  A    between atoms: C_15  and  C_27 
REMARK       I    between atoms: N_16  and  C_17 
REMARK    4  A    between atoms: C_17  and  C_29 
REMARK    5  A    between atoms: C_22  and  O_26 
REMARK    6  A    between atoms: C_22  and  C_31 
REMARK    7  A    between atoms: O_26  and  C_27 
ROOT
HETATM    1  N   UNL     1     -42.374 -49.803  12.340  1.00  0.00    -0.297 N 
HETATM    2  C   UNL     1     -43.075 -50.618  13.192  1.00  0.00     0.142 A 
HETATM    3  C   UNL     1     -42.122 -51.446  13.767  1.00  0.00     0.122 A 
HETATM    4  N   UNL     1     -40.872 -51.187  13.252  1.00  0.00    -0.346 N 
ATOM      5  HN  UNL     1     -39.990 -51.638  13.497  1.00  0.00     0.167 HD
HETATM    6  C   UNL     1     -41.071 -50.230  12.372  1.00  0.00     0.188 A 
HETATM    7  C   UNL     1     -42.578 -52.379  14.708  1.00  0.00     0.140 A 
HETATM    8  N   UNL     1     -44.396 -50.627  13.425  1.00  0.00    -0.336 N 
ATOM      9  HN  UNL     1     -45.064 -49.999  12.979  1.00  0.00     0.168 HD
HETATM   10  N   UNL     1     -43.903 -52.429  14.968  1.00  0.00    -0.337 N 
ATOM     11  HN  UNL     1     -44.276 -53.103  15.637  1.00  0.00     0.168 HD
HETATM   12  C   UNL     1     -44.723 -51.574  14.327  1.00  0.00     0.183 A 
ENDROOT
BRANCH   1  13
HETATM   13  C   UNL     1     -42.939 -48.669  11.622  1.00  0.00     0.264 C 
HETATM   14  C   UNL     1     -42.023 -47.972  10.607  1.00  0.00     0.226 C 
HETATM   15  C   UNL     1     -41.888 -46.530  11.107  1.00  0.00     0.210 C 
HETATM   16  O   UNL     1     -42.622 -47.918   9.312  1.00  0.00    -0.241 OA
HETATM   17  O   UNL     1     -42.751 -45.705  10.319  1.00  0.00    -0.243 OA
HETATM   18  C   UNL     1     -42.412 -46.558  12.531  1.00  0.00     0.181 C 
HETATM   19  S   UNL     1     -43.468 -46.544   9.134  1.00  0.00     0.403 S 
HETATM   20  O   UNL     1     -43.117 -45.948   7.869  1.00  0.00    -0.169 OA
HETATM   21  O   UNL     1     -44.831 -46.810   9.536  1.00  0.00    -0.169 OA
HETATM   22  O   UNL     1     -43.310 -47.682  12.600  1.00  0.00    -0.353 OA
BRANCH  18  23
HETATM   23  C   UNL     1     -41.307 -46.713  13.583  1.00  0.00     0.213 C 
BRANCH  23  24
HETATM   24  O   UNL     1     -40.027 -46.801  12.938  1.00  0.00    -0.315 OA
BRANCH  24  25
HETATM   25  C   UNL     1     -38.985 -46.671  13.790  1.00  0.00     0.293 C 
HETATM   26  O   UNL     1     -38.516 -45.610  14.176  1.00  0.00    -0.259 OA
BRANCH  25  27
HETATM   27  C   UNL     1     -38.443 -47.988  14.186  1.00  0.00     0.039 A 
HETATM   28  C   UNL     1     -37.858 -48.874  13.274  1.00  0.00     0.017 A 
HETATM   29  C   UNL     1     -37.450 -50.136  13.710  1.00  0.00     0.001 A 
HETATM   30  C   UNL     1     -37.616 -50.506  15.047  1.00  0.00     0.000 A 
HETATM   31  C   UNL     1     -38.183 -49.616  15.958  1.00  0.00     0.001 A 
HETATM   32  C   UNL     1     -38.599 -48.360  15.526  1.00  0.00     0.017 A 
ENDBRANCH  25  27
ENDBRANCH  24  25
ENDBRANCH  23  24
ENDBRANCH  18  23
ENDBRANCH   1  13
BRANCH   7  33
HETATM   33  N   UNL     1     -41.647 -53.240  15.309  1.00  0.00    -0.307 N 
HETATM   34  C   UNL     1     -41.775 -54.609  15.360  1.00  0.00     0.257 C 
HETATM   35  O   UNL     1     -42.732 -55.266  14.960  1.00  0.00    -0.267 OA
HETATM   36  H   UNL     1     -40.867 -52.780  15.757  1.00  0.00     0.170 HD
BRANCH  34  37
HETATM   37  C   UNL     1     -40.641 -55.354  15.981  1.00  0.00     0.032 A 
HETATM   38  C   UNL     1     -39.338 -54.963  15.641  1.00  0.00     0.017 A 
HETATM   39  C   UNL     1     -38.235 -55.579  16.235  1.00  0.00     0.001 A 
HETATM   40  C   UNL     1     -38.429 -56.583  17.180  1.00  0.00     0.000 A 
HETATM   41  C   UNL     1     -39.723 -56.977  17.528  1.00  0.00     0.001 A 
HETATM   42  C   UNL     1     -40.830 -56.365  16.932  1.00  0.00     0.017 A 
ENDBRANCH  34  37
ENDBRANCH   7  33
TORSDOF 7
ENDMDL
MODEL 9
REMARK VINA RESULT:      -7.0      2.047      3.043
REMARK  7 active torsions:
REMARK  status: ('A' for Active; 'I' for Inactive)
REMARK    1  A    between atoms: N_1  and  C_3 
REMARK    2  A    between atoms: C_14  and  N_16 
REMARK    3  A    between atoms: C_15  and  C_27 
REMARK       I    between atoms: N_16  and  C_17 
REMARK    4  A    between atoms: C_17  and  C_29 
REMARK    5  A    between atoms: C_22  and  O_26 
REMARK    6  A    between atoms: C_22  and  C_31 
REMARK    7  A    between atoms: O_26  and  C_27 
ROOT
HETATM    1  N   UNL     1     -43.116 -48.867  12.852  1.00  0.00    -0.297 N 
HETATM    2  C   UNL     1     -42.843 -48.104  11.744  1.00  0.00     0.142 A 
HETATM    3  C   UNL     1     -42.471 -46.864  12.242  1.00  0.00     0.122 A 
HETATM    4  N   UNL     1     -42.560 -46.839  13.615  1.00  0.00    -0.346 N 
ATOM      5  HN  UNL     1     -42.341 -46.064  14.241  1.00  0.00     0.167 HD
HETATM    6  C   UNL     1     -42.989 -48.040  13.939  1.00  0.00     0.188 A 
HETATM    7  C   UNL     1     -42.117 -45.886  11.303  1.00  0.00     0.140 A 
HETATM    8  N   UNL     1     -42.918 -48.466  10.455  1.00  0.00    -0.336 N 
ATOM      9  HN  UNL     1     -43.197 -49.392  10.131  1.00  0.00     0.168 HD
HETATM   10  N   UNL     1     -42.186 -46.203   9.992  1.00  0.00    -0.337 N 
ATOM     11  HN  UNL     1     -41.947 -45.515   9.278  1.00  0.00     0.168 HD
HETATM   12  C   UNL     1     -42.576 -47.445   9.644  1.00  0.00     0.183 A 
ENDROOT
BRANCH   1  13
HETATM   13  C   UNL     1     -43.407 -50.293  12.828  1.00  0.00     0.264 C 
HETATM   14  C   UNL     1     -43.590 -50.982  14.188  1.00  0.00     0.226 C 
HETATM   15  C   UNL     1     -42.491 -52.047  14.253  1.00  0.00     0.210 C 
HETATM   16  O   UNL     1     -44.845 -51.659  14.265  1.00  0.00    -0.241 OA
HETATM   17  O   UNL     1     -43.086 -53.315  13.961  1.00  0.00    -0.243 OA
HETATM   18  C   UNL     1     -41.533 -51.691  13.131  1.00  0.00     0.181 C 
HETATM   19  S   UNL     1     -44.690 -53.199  13.775  1.00  0.00     0.403 S 
HETATM   20  O   UNL     1     -45.330 -54.057  14.741  1.00  0.00    -0.169 OA
HETATM   21  O   UNL     1     -44.981 -53.242  12.359  1.00  0.00    -0.169 OA
HETATM   22  O   UNL     1     -42.306 -50.945  12.172  1.00  0.00    -0.353 OA
BRANCH  18  23
HETATM   23  C   UNL     1     -40.337 -50.853  13.597  1.00  0.00     0.213 C 
BRANCH  23  24
HETATM   24  O   UNL     1     -39.741 -51.453  14.758  1.00  0.00    -0.315 OA
BRANCH  24  25
HETATM   25  C   UNL     1     -38.933 -52.498  14.469  1.00  0.00     0.293 C 
HETATM   26  O   UNL     1     -38.232 -52.595  13.472  1.00  0.00    -0.259 OA
BRANCH  25  27
HETATM   27  C   UNL     1     -39.017 -53.549  15.504  1.00  0.00     0.039 A 
HETATM   28  C   UNL     1     -39.302 -54.887  15.205  1.00  0.00     0.017 A 
HETATM   29  C   UNL     1     -39.453 -55.805  16.247  1.00  0.00     0.001 A 
HETATM   30  C   UNL     1     -39.312 -55.393  17.574  1.00  0.00     0.000 A 
HETATM   31  C   UNL     1     -39.011 -54.064  17.869  1.00  0.00     0.001 A 
HETATM   32  C   UNL     1     -38.868 -53.143  16.835  1.00  0.00     0.017 A 
ENDBRANCH  25  27
ENDBRANCH  24  25
ENDBRANCH  23  24
ENDBRANCH  18  23
ENDBRANCH   1  13
BRANCH   7  33
HETATM   33  N   UNL     1     -41.741 -44.614  11.764  1.00  0.00    -0.307 N 
HETATM   34  C   UNL     1     -40.821 -43.802  11.142  1.00  0.00     0.257 C 
HETATM   35  O   UNL     1     -40.152 -44.087  10.152  1.00  0.00    -0.267 OA
HETATM   36  H   UNL     1     -42.169 -44.331  12.635  1.00  0.00     0.170 HD
BRANCH  34  37
HETATM   37  C   UNL     1     -40.612 -42.456  11.749  1.00  0.00     0.032 A 
HETATM   38  C   UNL     1     -41.442 -41.410  11.320  1.00  0.00     0.017 A 
HETATM   39  C   UNL     1     -41.339 -40.142  11.894  1.00  0.00     0.001 A 
HETATM   40  C   UNL     1     -40.410 -39.914  12.907  1.00  0.00     0.000 A 
HETATM   41  C   UNL     1     -39.582 -40.951  13.343  1.00  0.00     0.001 A 
HETATM   42  C   UNL     1     -39.680 -42.221  12.768  1.00  0.00     0.017 A 
ENDBRANCH  34  37
ENDBRANCH   7  33
TORSDOF 7
ENDMDL
