MODEL 1
REMARK VINA RESULT:      -5.7      0.000      0.000
REMARK  5 active torsions:
REMARK  status: ('A' for Active; 'I' for Inactive)
REMARK    1  A    between atoms: C_2  and  C_4 
REMARK    2  A    between atoms: C_7  and  C_8 
REMARK    3  A    between atoms: C_8  and  C_9 
REMARK       I    between atoms: C_9  and  N_11 
REMARK    4  A    between atoms: N_11  and  C_12 
REMARK    5  A    between atoms: C_12  and  C_13 
ROOT
HETATM    1  C   UNL     1     -41.593 -51.619  11.979  1.00  0.00     0.160 C 
ENDROOT
BRANCH   1   2
HETATM    2  C   UNL     1     -42.759 -52.383  12.515  1.00  0.00     0.025 A 
HETATM    3  N   UNL     1     -44.028 -51.812  12.476  1.00  0.00    -0.356 N 
HETATM    4  C   UNL     1     -44.903 -52.608  13.059  1.00  0.00     0.054 A 
ATOM      5  HN  UNL     1     -44.249 -50.908  12.057  1.00  0.00     0.166 HD
HETATM    6  S   UNL     1     -44.263 -54.088  13.659  1.00  0.00    -0.086 SA
HETATM    7  C   UNL     1     -42.710 -53.628  13.114  1.00  0.00     0.077 A 
BRANCH   4   8
HETATM    8  C   UNL     1     -46.374 -52.310  13.204  1.00  0.00     0.035 C 
HETATM    9  C   UNL     1     -46.626 -51.353  14.369  1.00  0.00     0.016 C 
HETATM   10  C   UNL     1     -46.924 -51.729  11.904  1.00  0.00     0.016 C 
ENDBRANCH   4   8
ENDBRANCH   1   2
BRANCH   1  11
HETATM   11  C   UNL     1     -41.676 -50.119  12.170  1.00  0.00     0.223 C 
HETATM   12  O   UNL     1     -42.128 -49.638  13.212  1.00  0.00    -0.273 OA
HETATM   13  N   UNL     1     -41.316 -49.328  11.099  1.00  0.00    -0.360 N 
HETATM   14  H   UNL     1     -40.930 -49.787  10.274  1.00  0.00     0.162 HD
BRANCH  13  15
HETATM   15  C   UNL     1     -41.411 -47.889  11.195  1.00  0.00     0.129 C 
BRANCH  15  16
HETATM   16  C   UNL     1     -42.662 -47.297  10.563  1.00  0.00     0.029 C 
HETATM   17  C   UNL     1     -42.922 -47.734   9.134  1.00  0.00     0.034 C 
HETATM   18  C   UNL     1     -43.559 -46.521   8.476  1.00  0.00     0.168 C 
HETATM   19  O   UNL     1     -43.480 -45.429   9.400  1.00  0.00    -0.391 OA
HETATM   20  C   UNL     1     -42.545 -45.790  10.418  1.00  0.00     0.173 C 
ENDBRANCH  15  16
ENDBRANCH  13  15
ENDBRANCH   1  11
TORSDOF 5
ENDMDL
MODEL 2
REMARK VINA RESULT:      -5.6      2.897      5.862
REMARK  5 active torsions:
REMARK  status: ('A' for Active; 'I' for Inactive)
REMARK    1  A    between atoms: C_2  and  C_4 
REMARK    2  A    between atoms: C_7  and  C_8 
REMARK    3  A    between atoms: C_8  and  C_9 
REMARK       I    between atoms: C_9  and  N_11 
REMARK    4  A    between atoms: N_11  and  C_12 
REMARK    5  A    between atoms: C_12  and  C_13 
ROOT
HETATM    1  C   UNL     1     -40.130 -49.581  11.232  1.00  0.00     0.160 C 
ENDROOT
BRANCH   1   2
HETATM    2  C   UNL     1     -41.250 -48.612  11.047  1.00  0.00     0.025 A 
HETATM    3  N   UNL     1     -41.809 -48.445   9.783  1.00  0.00    -0.356 N 
HETATM    4  C   UNL     1     -42.727 -47.499   9.813  1.00  0.00     0.054 A 
ATOM      5  HN  UNL     1     -41.546 -48.977   8.953  1.00  0.00     0.166 HD
HETATM    6  S   UNL     1     -42.991 -46.781  11.354  1.00  0.00    -0.086 SA
HETATM    7  C   UNL     1     -41.787 -47.793  12.023  1.00  0.00     0.077 A 
BRANCH   4   8
HETATM    8  C   UNL     1     -43.538 -47.048   8.624  1.00  0.00     0.035 C 
HETATM    9  C   UNL     1     -43.420 -48.047   7.473  1.00  0.00     0.016 C 
HETATM   10  C   UNL     1     -44.999 -46.860   9.023  1.00  0.00     0.016 C 
ENDBRANCH   4   8
ENDBRANCH   1   2
BRANCH   1  11
HETATM   11  C   UNL     1     -40.532 -50.906  11.845  1.00  0.00     0.223 C 
HETATM   12  O   UNL     1     -39.685 -51.663  12.328  1.00  0.00    -0.273 OA
HETATM   13  N   UNL     1     -41.860 -51.264  11.753  1.00  0.00    -0.360 N 
HETATM   14  H   UNL     1     -42.513 -50.585  11.362  1.00  0.00     0.162 HD
BRANCH  13  15
HETATM   15  C   UNL     1     -42.308 -52.535  12.278  1.00  0.00     0.129 C 
BRANCH  15  16
HETATM   16  C   UNL     1     -43.558 -52.454  13.141  1.00  0.00     0.029 C 
HETATM   17  C   UNL     1     -44.783 -53.129  12.554  1.00  0.00     0.034 C 
HETATM   18  C   UNL     1     -45.948 -52.275  13.023  1.00  0.00     0.168 C 
HETATM   19  O   UNL     1     -45.410 -51.106  13.651  1.00  0.00    -0.391 OA
HETATM   20  C   UNL     1     -44.029 -51.020  13.295  1.00  0.00     0.173 C 
ENDBRANCH  15  16
ENDBRANCH  13  15
ENDBRANCH   1  11
TORSDOF 5
ENDMDL
MODEL 3
REMARK VINA RESULT:      -5.5      3.098      6.719
REMARK  5 active torsions:
REMARK  status: ('A' for Active; 'I' for Inactive)
REMARK    1  A    between atoms: C_2  and  C_4 
REMARK    2  A    between atoms: C_7  and  C_8 
REMARK    3  A    between atoms: C_8  and  C_9 
REMARK       I    between atoms: C_9  and  N_11 
REMARK    4  A    between atoms: N_11  and  C_12 
REMARK    5  A    between atoms: C_12  and  C_13 
ROOT
HETATM    1  C   UNL     1     -43.004 -49.225  13.136  1.00  0.00     0.160 C 
ENDROOT
BRANCH   1   2
HETATM    2  C   UNL     1     -43.008 -48.173  12.076  1.00  0.00     0.025 A 
HETATM    3  N   UNL     1     -43.807 -48.341  10.948  1.00  0.00    -0.356 N 
HETATM    4  C   UNL     1     -43.615 -47.347  10.103  1.00  0.00     0.054 A 
ATOM      5  HN  UNL     1     -44.447 -49.121  10.797  1.00  0.00     0.166 HD
HETATM    6  S   UNL     1     -42.496 -46.149  10.621  1.00  0.00    -0.086 SA
HETATM    7  C   UNL     1     -42.239 -47.024  12.067  1.00  0.00     0.077 A 
BRANCH   4   8
HETATM    8  C   UNL     1     -44.312 -47.202   8.773  1.00  0.00     0.035 C 
HETATM    9  C   UNL     1     -43.528 -47.908   7.667  1.00  0.00     0.016 C 
HETATM   10  C   UNL     1     -45.732 -47.754   8.860  1.00  0.00     0.016 C 
ENDBRANCH   4   8
ENDBRANCH   1   2
BRANCH   1  11
HETATM   11  C   UNL     1     -42.276 -50.500  12.762  1.00  0.00     0.223 C 
HETATM   12  O   UNL     1     -41.485 -50.522  11.816  1.00  0.00    -0.273 OA
HETATM   13  N   UNL     1     -42.609 -51.641  13.461  1.00  0.00    -0.360 N 
HETATM   14  H   UNL     1     -43.253 -51.551  14.246  1.00  0.00     0.162 HD
BRANCH  13  15
HETATM   15  C   UNL     1     -41.986 -52.903  13.129  1.00  0.00     0.129 C 
BRANCH  15  16
HETATM   16  C   UNL     1     -42.919 -54.103  13.195  1.00  0.00     0.029 C 
HETATM   17  C   UNL     1     -44.351 -53.819  12.784  1.00  0.00     0.034 C 
HETATM   18  C   UNL     1     -45.187 -54.730  13.668  1.00  0.00     0.168 C 
HETATM   19  O   UNL     1     -44.313 -55.327  14.633  1.00  0.00    -0.391 OA
HETATM   20  C   UNL     1     -43.088 -54.590  14.623  1.00  0.00     0.173 C 
ENDBRANCH  15  16
ENDBRANCH  13  15
ENDBRANCH   1  11
TORSDOF 5
ENDMDL
MODEL 4
REMARK VINA RESULT:      -5.5      1.222      1.693
REMARK  5 active torsions:
REMARK  status: ('A' for Active; 'I' for Inactive)
REMARK    1  A    between atoms: C_2  and  C_4 
REMARK    2  A    between atoms: C_7  and  C_8 
REMARK    3  A    between atoms: C_8  and  C_9 
REMARK       I    between atoms: C_9  and  N_11 
REMARK    4  A    between atoms: N_11  and  C_12 
REMARK    5  A    between atoms: C_12  and  C_13 
ROOT
HETATM    1  C   UNL     1     -41.308 -52.664  11.949  1.00  0.00     0.160 C 
ENDROOT
BRANCH   1   2
HETATM    2  C   UNL     1     -42.634 -52.846  12.611  1.00  0.00     0.025 A 
HETATM    3  N   UNL     1     -43.631 -51.892  12.419  1.00  0.00    -0.356 N 
HETATM    4  C   UNL     1     -44.693 -52.194  13.140  1.00  0.00     0.054 A 
ATOM      5  HN  UNL     1     -43.551 -51.079  11.808  1.00  0.00     0.166 HD
HETATM    6  S   UNL     1     -44.568 -53.641  14.061  1.00  0.00    -0.086 SA
HETATM    7  C   UNL     1     -42.983 -53.874  13.466  1.00  0.00     0.077 A 
BRANCH   4   8
HETATM    8  C   UNL     1     -45.963 -51.382  13.182  1.00  0.00     0.035 C 
HETATM    9  C   UNL     1     -46.887 -51.753  12.022  1.00  0.00     0.016 C 
HETATM   10  C   UNL     1     -46.673 -51.583  14.518  1.00  0.00     0.016 C 
ENDBRANCH   4   8
ENDBRANCH   1   2
BRANCH   1  11
HETATM   11  C   UNL     1     -40.650 -51.324  12.203  1.00  0.00     0.223 C 
HETATM   12  O   UNL     1     -40.310 -50.993  13.341  1.00  0.00    -0.273 OA
HETATM   13  N   UNL     1     -40.539 -50.465  11.130  1.00  0.00    -0.360 N 
HETATM   14  H   UNL     1     -40.819 -50.808  10.211  1.00  0.00     0.162 HD
BRANCH  13  15
HETATM   15  C   UNL     1     -39.961 -49.152  11.308  1.00  0.00     0.129 C 
BRANCH  15  16
HETATM   16  C   UNL     1     -40.976 -48.021  11.382  1.00  0.00     0.029 C 
HETATM   17  C   UNL     1     -42.101 -48.108  10.367  1.00  0.00     0.034 C 
HETATM   18  C   UNL     1     -42.416 -46.662  10.025  1.00  0.00     0.168 C 
HETATM   19  O   UNL     1     -41.419 -45.838  10.641  1.00  0.00    -0.391 OA
HETATM   20  C   UNL     1     -40.339 -46.687  11.036  1.00  0.00     0.173 C 
ENDBRANCH  15  16
ENDBRANCH  13  15
ENDBRANCH   1  11
TORSDOF 5
ENDMDL
MODEL 5
REMARK VINA RESULT:      -5.5      2.346      3.261
REMARK  5 active torsions:
REMARK  status: ('A' for Active; 'I' for Inactive)
REMARK    1  A    between atoms: C_2  and  C_4 
REMARK    2  A    between atoms: C_7  and  C_8 
REMARK    3  A    between atoms: C_8  and  C_9 
REMARK       I    between atoms: C_9  and  N_11 
REMARK    4  A    between atoms: N_11  and  C_12 
REMARK    5  A    between atoms: C_12  and  C_13 
ROOT
HETATM    1  C   UNL     1     -41.649 -52.478  12.046  1.00  0.00     0.160 C 
ENDROOT
BRANCH   1   2
HETATM    2  C   UNL     1     -42.908 -53.004  12.653  1.00  0.00     0.025 A 
HETATM    3  N   UNL     1     -44.095 -52.295  12.489  1.00  0.00    -0.356 N 
HETATM    4  C   UNL     1     -45.070 -52.881  13.156  1.00  0.00     0.054 A 
ATOM      5  HN  UNL     1     -44.196 -51.445  11.934  1.00  0.00     0.166 HD
HETATM    6  S   UNL     1     -44.629 -54.321  13.988  1.00  0.00    -0.086 SA
HETATM    7  C   UNL     1     -43.023 -54.141  13.431  1.00  0.00     0.077 A 
BRANCH   4   8
HETATM    8  C   UNL     1     -46.494 -52.388  13.208  1.00  0.00     0.035 C 
HETATM    9  C   UNL     1     -46.692 -51.412  14.368  1.00  0.00     0.016 C 
HETATM   10  C   UNL     1     -46.873 -51.731  11.884  1.00  0.00     0.016 C 
ENDBRANCH   4   8
ENDBRANCH   1   2
BRANCH   1  11
HETATM   11  C   UNL     1     -41.509 -50.970  12.083  1.00  0.00     0.223 C 
HETATM   12  O   UNL     1     -42.175 -50.292  12.870  1.00  0.00    -0.273 OA
HETATM   13  N   UNL     1     -40.685 -50.392  11.141  1.00  0.00    -0.360 N 
HETATM   14  H   UNL     1     -40.146 -51.010  10.534  1.00  0.00     0.162 HD
BRANCH  13  15
HETATM   15  C   UNL     1     -40.537 -48.955  11.089  1.00  0.00     0.129 C 
BRANCH  15  16
HETATM   16  C   UNL     1     -39.305 -48.422  11.805  1.00  0.00     0.029 C 
HETATM   17  C   UNL     1     -38.300 -49.481  12.217  1.00  0.00     0.034 C 
HETATM   18  C   UNL     1     -37.714 -48.962  13.519  1.00  0.00     0.168 C 
HETATM   19  O   UNL     1     -38.469 -47.810  13.911  1.00  0.00    -0.391 OA
HETATM   20  C   UNL     1     -39.671 -47.796  13.138  1.00  0.00     0.173 C 
ENDBRANCH  15  16
ENDBRANCH  13  15
ENDBRANCH   1  11
TORSDOF 5
ENDMDL
MODEL 6
REMARK VINA RESULT:      -5.4      2.020      2.674
REMARK  5 active torsions:
REMARK  status: ('A' for Active; 'I' for Inactive)
REMARK    1  A    between atoms: C_2  and  C_4 
REMARK    2  A    between atoms: C_7  and  C_8 
REMARK    3  A    between atoms: C_8  and  C_9 
REMARK       I    between atoms: C_9  and  N_11 
REMARK    4  A    between atoms: N_11  and  C_12 
REMARK    5  A    between atoms: C_12  and  C_13 
ROOT
HETATM    1  C   UNL     1     -42.594 -48.648  12.750  1.00  0.00     0.160 C 
ENDROOT
BRANCH   1   2
HETATM    2  C   UNL     1     -43.022 -50.079  12.758  1.00  0.00     0.025 A 
HETATM    3  N   UNL     1     -44.363 -50.391  12.969  1.00  0.00    -0.356 N 
HETATM    4  C   UNL     1     -44.523 -51.699  13.013  1.00  0.00     0.054 A 
ATOM      5  HN  UNL     1     -45.112 -49.707  13.073  1.00  0.00     0.166 HD
HETATM    6  S   UNL     1     -43.091 -52.623  12.779  1.00  0.00    -0.086 SA
HETATM    7  C   UNL     1     -42.194 -51.177  12.621  1.00  0.00     0.077 A 
BRANCH   4   8
HETATM    8  C   UNL     1     -45.843 -52.397  13.229  1.00  0.00     0.035 C 
HETATM    9  C   UNL     1     -45.629 -53.839  13.688  1.00  0.00     0.016 C 
HETATM   10  C   UNL     1     -46.684 -51.630  14.245  1.00  0.00     0.016 C 
ENDBRANCH   4   8
ENDBRANCH   1   2
BRANCH   1  11
HETATM   11  C   UNL     1     -42.494 -48.025  11.373  1.00  0.00     0.223 C 
HETATM   12  O   UNL     1     -41.592 -48.349  10.596  1.00  0.00    -0.273 OA
HETATM   13  N   UNL     1     -43.389 -47.020  11.072  1.00  0.00    -0.360 N 
HETATM   14  H   UNL     1     -44.123 -46.815  11.749  1.00  0.00     0.162 HD
BRANCH  13  15
HETATM   15  C   UNL     1     -43.324 -46.350   9.793  1.00  0.00     0.129 C 
BRANCH  15  16
HETATM   16  C   UNL     1     -44.415 -46.756   8.813  1.00  0.00     0.029 C 
HETATM   17  C   UNL     1     -45.659 -47.345   9.452  1.00  0.00     0.034 C 
HETATM   18  C   UNL     1     -46.145 -48.380   8.452  1.00  0.00     0.168 C 
HETATM   19  O   UNL     1     -45.148 -48.507   7.431  1.00  0.00    -0.391 OA
HETATM   20  C   UNL     1     -43.954 -47.889   7.914  1.00  0.00     0.173 C 
ENDBRANCH  15  16
ENDBRANCH  13  15
ENDBRANCH   1  11
TORSDOF 5
ENDMDL
MODEL 7
REMARK VINA RESULT:      -5.1      3.524      6.976
REMARK  5 active torsions:
REMARK  status: ('A' for Active; 'I' for Inactive)
REMARK    1  A    between atoms: C_2  and  C_4 
REMARK    2  A    between atoms: C_7  and  C_8 
REMARK    3  A    between atoms: C_8  and  C_9 
REMARK       I    between atoms: C_9  and  N_11 
REMARK    4  A    between atoms: N_11  and  C_12 
REMARK    5  A    between atoms: C_12  and  C_13 
ROOT
HETATM    1  C   UNL     1     -40.468 -50.014  11.498  1.00  0.00     0.160 C 
ENDROOT
BRANCH   1   2
HETATM    2  C   UNL     1     -41.062 -48.720  11.049  1.00  0.00     0.025 A 
HETATM    3  N   UNL     1     -42.161 -48.731  10.193  1.00  0.00    -0.356 N 
HETATM    4  C   UNL     1     -42.488 -47.499   9.857  1.00  0.00     0.054 A 
ATOM      5  HN  UNL     1     -42.642 -49.572   9.872  1.00  0.00     0.166 HD
HETATM    6  S   UNL     1     -41.522 -46.264  10.565  1.00  0.00    -0.086 SA
HETATM    7  C   UNL     1     -40.596 -47.458  11.364  1.00  0.00     0.077 A 
BRANCH   4   8
HETATM    8  C   UNL     1     -43.628 -47.131   8.941  1.00  0.00     0.035 C 
HETATM    9  C   UNL     1     -43.495 -47.840   7.593  1.00  0.00     0.016 C 
HETATM   10  C   UNL     1     -44.962 -47.472   9.598  1.00  0.00     0.016 C 
ENDBRANCH   4   8
ENDBRANCH   1   2
BRANCH   1  11
HETATM   11  C   UNL     1     -41.457 -50.991  12.101  1.00  0.00     0.223 C 
HETATM   12  O   UNL     1     -42.510 -50.594  12.605  1.00  0.00    -0.273 OA
HETATM   13  N   UNL     1     -41.082 -52.317  12.145  1.00  0.00    -0.360 N 
HETATM   14  H   UNL     1     -40.209 -52.583  11.692  1.00  0.00     0.162 HD
BRANCH  13  15
HETATM   15  C   UNL     1     -41.958 -53.299  12.746  1.00  0.00     0.129 C 
BRANCH  15  16
HETATM   16  C   UNL     1     -41.305 -54.149  13.825  1.00  0.00     0.029 C 
HETATM   17  C   UNL     1     -41.412 -53.588  15.231  1.00  0.00     0.034 C 
HETATM   18  C   UNL     1     -40.117 -54.005  15.906  1.00  0.00     0.168 C 
HETATM   19  O   UNL     1     -39.266 -54.578  14.906  1.00  0.00    -0.391 OA
HETATM   20  C   UNL     1     -39.801 -54.228  13.629  1.00  0.00     0.173 C 
ENDBRANCH  15  16
ENDBRANCH  13  15
ENDBRANCH   1  11
TORSDOF 5
ENDMDL
MODEL 8
REMARK VINA RESULT:      -5.1      1.764      2.284
REMARK  5 active torsions:
REMARK  status: ('A' for Active; 'I' for Inactive)
REMARK    1  A    between atoms: C_2  and  C_4 
REMARK    2  A    between atoms: C_7  and  C_8 
REMARK    3  A    between atoms: C_8  and  C_9 
REMARK       I    between atoms: C_9  and  N_11 
REMARK    4  A    between atoms: N_11  and  C_12 
REMARK    5  A    between atoms: C_12  and  C_13 
ROOT
HETATM    1  C   UNL     1     -40.205 -49.959  11.121  1.00  0.00     0.160 C 
ENDROOT
BRANCH   1   2
HETATM    2  C   UNL     1     -40.824 -50.928  12.073  1.00  0.00     0.025 A 
HETATM    3  N   UNL     1     -42.210 -51.065  12.107  1.00  0.00    -0.356 N 
HETATM    4  C   UNL     1     -42.560 -51.909  13.057  1.00  0.00     0.054 A 
ATOM      5  HN  UNL     1     -42.859 -50.581  11.486  1.00  0.00     0.166 HD
HETATM    6  S   UNL     1     -41.257 -52.604  13.939  1.00  0.00    -0.086 SA
HETATM    7  C   UNL     1     -40.150 -51.705  12.997  1.00  0.00     0.077 A 
BRANCH   4   8
HETATM    8  C   UNL     1     -43.981 -52.297  13.382  1.00  0.00     0.035 C 
HETATM    9  C   UNL     1     -44.901 -51.077  13.344  1.00  0.00     0.016 C 
HETATM   10  C   UNL     1     -44.470 -53.368  12.412  1.00  0.00     0.016 C 
ENDBRANCH   4   8
ENDBRANCH   1   2
BRANCH   1  11
HETATM   11  C   UNL     1     -40.615 -48.516  11.329  1.00  0.00     0.223 C 
HETATM   12  O   UNL     1     -40.435 -47.957  12.414  1.00  0.00    -0.273 OA
HETATM   13  N   UNL     1     -41.278 -47.895  10.291  1.00  0.00    -0.360 N 
HETATM   14  H   UNL     1     -41.375 -48.404   9.413  1.00  0.00     0.162 HD
BRANCH  13  15
HETATM   15  C   UNL     1     -41.737 -46.532  10.436  1.00  0.00     0.129 C 
BRANCH  15  16
HETATM   16  C   UNL     1     -43.242 -46.356  10.294  1.00  0.00     0.029 C 
HETATM   17  C   UNL     1     -44.051 -47.628  10.463  1.00  0.00     0.034 C 
HETATM   18  C   UNL     1     -45.225 -47.460   9.514  1.00  0.00     0.168 C 
HETATM   19  O   UNL     1     -44.990 -46.285   8.730  1.00  0.00    -0.391 OA
HETATM   20  C   UNL     1     -43.616 -45.927   8.887  1.00  0.00     0.173 C 
ENDBRANCH  15  16
ENDBRANCH  13  15
ENDBRANCH   1  11
TORSDOF 5
ENDMDL
MODEL 9
REMARK VINA RESULT:      -5.0      3.095      6.032
REMARK  5 active torsions:
REMARK  status: ('A' for Active; 'I' for Inactive)
REMARK    1  A    between atoms: C_2  and  C_4 
REMARK    2  A    between atoms: C_7  and  C_8 
REMARK    3  A    between atoms: C_8  and  C_9 
REMARK       I    between atoms: C_9  and  N_11 
REMARK    4  A    between atoms: N_11  and  C_12 
REMARK    5  A    between atoms: C_12  and  C_13 
ROOT
HETATM    1  C   UNL     1     -41.153 -52.018  11.826  1.00  0.00     0.160 C 
ENDROOT
BRANCH   1   2
HETATM    2  C   UNL     1     -41.276 -50.584  12.224  1.00  0.00     0.025 A 
HETATM    3  N   UNL     1     -42.297 -49.808  11.681  1.00  0.00    -0.356 N 
HETATM    4  C   UNL     1     -42.191 -48.562  12.099  1.00  0.00     0.054 A 
ATOM      5  HN  UNL     1     -43.021 -50.154  11.051  1.00  0.00     0.166 HD
HETATM    6  S   UNL     1     -40.889 -48.258  13.181  1.00  0.00    -0.086 SA
HETATM    7  C   UNL     1     -40.427 -49.899  13.073  1.00  0.00     0.077 A 
BRANCH   4   8
HETATM    8  C   UNL     1     -43.124 -47.442  11.710  1.00  0.00     0.035 C 
HETATM    9  C   UNL     1     -42.487 -46.080  11.985  1.00  0.00     0.016 C 
HETATM   10  C   UNL     1     -43.511 -47.566  10.239  1.00  0.00     0.016 C 
ENDBRANCH   4   8
ENDBRANCH   1   2
BRANCH   1  11
HETATM   11  C   UNL     1     -42.121 -52.954  12.519  1.00  0.00     0.223 C 
HETATM   12  O   UNL     1     -41.740 -53.702  13.423  1.00  0.00    -0.273 OA
HETATM   13  N   UNL     1     -43.410 -52.999  12.031  1.00  0.00    -0.360 N 
HETATM   14  H   UNL     1     -43.667 -52.340  11.297  1.00  0.00     0.162 HD
BRANCH  13  15
HETATM   15  C   UNL     1     -44.376 -53.902  12.615  1.00  0.00     0.129 C 
BRANCH  15  16
HETATM   16  C   UNL     1     -45.690 -53.246  13.014  1.00  0.00     0.029 C 
HETATM   17  C   UNL     1     -45.633 -51.736  13.150  1.00  0.00     0.034 C 
HETATM   18  C   UNL     1     -46.602 -51.420  14.276  1.00  0.00     0.168 C 
HETATM   19  O   UNL     1     -47.017 -52.660  14.859  1.00  0.00    -0.391 OA
HETATM   20  C   UNL     1     -46.118 -53.674  14.406  1.00  0.00     0.173 C 
ENDBRANCH  15  16
ENDBRANCH  13  15
ENDBRANCH   1  11
TORSDOF 5
ENDMDL
