MODEL 1
REMARK VINA RESULT:      -5.7      0.000      0.000
REMARK  5 active torsions:
REMARK  status: ('A' for Active; 'I' for Inactive)
REMARK    1  A    between atoms: C_2  and  N_3 
REMARK    2  A    between atoms: C_2  and  C_13 
REMARK    3  A    between atoms: N_3  and  C_4 
REMARK    4  A    between atoms: C_4  and  C_5 
REMARK    5  A    between atoms: C_5  and  N_6 
REMARK       I    between atoms: C_13  and  N_15 
ROOT
HETATM    1  N   UNL     1     -42.139 -49.294  12.759  1.00  0.00     0.098 N 
HETATM    2  H   UNL     1     -41.651 -48.588  13.312  1.00  0.00     0.317 HD
ENDROOT
BRANCH   1   3
HETATM    3  C   UNL     1     -42.002 -50.600  13.456  1.00  0.00     0.307 C 
HETATM    4  C   UNL     1     -40.533 -51.019  13.579  1.00  0.00     0.053 C 
BRANCH   3   5
HETATM    5  C   UNL     1     -42.853 -51.729  12.819  1.00  0.00     0.252 C 
HETATM    6  O   UNL     1     -42.352 -52.515  12.006  1.00  0.00    -0.271 OA
HETATM    7  N   UNL     1     -44.175 -51.853  13.193  1.00  0.00    -0.350 N 
HETATM    8  C   UNL     1     -44.916 -51.068  14.166  1.00  0.00     0.126 C 
HETATM    9  C   UNL     1     -45.002 -52.922  12.674  1.00  0.00     0.126 C 
HETATM   10  C   UNL     1     -46.385 -51.414  13.924  1.00  0.00     0.021 C 
HETATM   11  C   UNL     1     -46.394 -52.323  12.696  1.00  0.00     0.021 C 
ENDBRANCH   3   5
ENDBRANCH   1   3
BRANCH   1  12
HETATM   12  C   UNL     1     -41.583 -49.291  11.394  1.00  0.00     0.292 C 
BRANCH  12  13
HETATM   13  C   UNL     1     -41.634 -47.887  10.787  1.00  0.00     0.178 C 
BRANCH  13  14
HETATM   14  N   UNL     1     -42.803 -47.732   9.944  1.00  0.00    -0.302 N 
HETATM   15  C   UNL     1     -44.066 -47.411  10.351  1.00  0.00     0.118 A 
HETATM   16  C   UNL     1     -44.852 -47.417   9.218  1.00  0.00    -0.028 A 
HETATM   17  C   UNL     1     -46.299 -47.143   9.102  1.00  0.00     0.051 C 
HETATM   18  C   UNL     1     -43.952 -47.753   8.179  1.00  0.00     0.115 A 
HETATM   19  N   UNL     1     -42.707 -47.942   8.619  1.00  0.00    -0.310 N 
ATOM     20  HN  UNL     1     -41.877 -48.188   8.078  1.00  0.00     0.186 HD
ENDBRANCH  13  14
ENDBRANCH  12  13
ENDBRANCH   1  12
TORSDOF 5
ENDMDL
MODEL 2
REMARK VINA RESULT:      -5.7      2.005      3.027
REMARK  5 active torsions:
REMARK  status: ('A' for Active; 'I' for Inactive)
REMARK    1  A    between atoms: C_2  and  N_3 
REMARK    2  A    between atoms: C_2  and  C_13 
REMARK    3  A    between atoms: N_3  and  C_4 
REMARK    4  A    between atoms: C_4  and  C_5 
REMARK    5  A    between atoms: C_5  and  N_6 
REMARK       I    between atoms: C_13  and  N_15 
ROOT
HETATM    1  N   UNL     1     -42.071 -52.549  11.661  1.00  0.00     0.098 N 
HETATM    2  H   UNL     1     -42.872 -52.308  11.075  1.00  0.00     0.317 HD
ENDROOT
BRANCH   1   3
HETATM    3  C   UNL     1     -42.588 -53.002  12.980  1.00  0.00     0.307 C 
HETATM    4  C   UNL     1     -41.843 -54.246  13.477  1.00  0.00     0.053 C 
BRANCH   3   5
HETATM    5  C   UNL     1     -44.122 -53.227  12.992  1.00  0.00     0.252 C 
HETATM    6  O   UNL     1     -44.656 -53.984  12.173  1.00  0.00    -0.271 OA
HETATM    7  N   UNL     1     -44.878 -52.584  13.951  1.00  0.00    -0.350 N 
HETATM    8  C   UNL     1     -44.427 -51.711  15.021  1.00  0.00     0.126 C 
HETATM    9  C   UNL     1     -46.306 -52.800  14.047  1.00  0.00     0.126 C 
HETATM   10  C   UNL     1     -45.693 -51.031  15.544  1.00  0.00     0.021 C 
HETATM   11  C   UNL     1     -46.816 -51.493  14.617  1.00  0.00     0.021 C 
ENDBRANCH   3   5
ENDBRANCH   1   3
BRANCH   1  12
HETATM   12  C   UNL     1     -41.181 -51.378  11.746  1.00  0.00     0.292 C 
BRANCH  12  13
HETATM   13  C   UNL     1     -41.894 -50.195  12.403  1.00  0.00     0.178 C 
BRANCH  13  14
HETATM   14  N   UNL     1     -41.661 -48.973  11.656  1.00  0.00    -0.302 N 
HETATM   15  C   UNL     1     -40.617 -48.108  11.812  1.00  0.00     0.118 A 
HETATM   16  C   UNL     1     -40.833 -47.076  10.924  1.00  0.00    -0.028 A 
HETATM   17  C   UNL     1     -40.005 -45.875  10.693  1.00  0.00     0.051 C 
HETATM   18  C   UNL     1     -42.042 -47.427  10.279  1.00  0.00     0.115 A 
HETATM   19  N   UNL     1     -42.545 -48.581  10.721  1.00  0.00    -0.310 N 
ATOM     20  HN  UNL     1     -43.398 -49.053  10.422  1.00  0.00     0.186 HD
ENDBRANCH  13  14
ENDBRANCH  12  13
ENDBRANCH   1  12
TORSDOF 5
ENDMDL
MODEL 3
REMARK VINA RESULT:      -5.7      3.212      6.061
REMARK  5 active torsions:
REMARK  status: ('A' for Active; 'I' for Inactive)
REMARK    1  A    between atoms: C_2  and  N_3 
REMARK    2  A    between atoms: C_2  and  C_13 
REMARK    3  A    between atoms: N_3  and  C_4 
REMARK    4  A    between atoms: C_4  and  C_5 
REMARK    5  A    between atoms: C_5  and  N_6 
REMARK       I    between atoms: C_13  and  N_15 
ROOT
HETATM    1  N   UNL     1     -42.476 -51.866  11.866  1.00  0.00     0.098 N 
HETATM    2  H   UNL     1     -41.870 -52.008  11.056  1.00  0.00     0.317 HD
ENDROOT
BRANCH   1   3
HETATM    3  C   UNL     1     -41.967 -50.690  12.620  1.00  0.00     0.307 C 
HETATM    4  C   UNL     1     -43.110 -49.771  13.065  1.00  0.00     0.053 C 
BRANCH   3   5
HETATM    5  C   UNL     1     -40.878 -49.895  11.854  1.00  0.00     0.252 C 
HETATM    6  O   UNL     1     -41.190 -49.066  10.991  1.00  0.00    -0.271 OA
HETATM    7  N   UNL     1     -39.553 -50.115  12.170  1.00  0.00    -0.350 N 
HETATM    8  C   UNL     1     -39.000 -50.997  13.183  1.00  0.00     0.126 C 
HETATM    9  C   UNL     1     -38.496 -49.361  11.528  1.00  0.00     0.126 C 
HETATM   10  C   UNL     1     -37.509 -51.092  12.860  1.00  0.00     0.021 C 
HETATM   11  C   UNL     1     -37.323 -50.319  11.556  1.00  0.00     0.021 C 
ENDBRANCH   3   5
ENDBRANCH   1   3
BRANCH   1  12
HETATM   12  C   UNL     1     -42.505 -53.109  12.657  1.00  0.00     0.292 C 
BRANCH  12  13
HETATM   13  C   UNL     1     -43.859 -53.810  12.523  1.00  0.00     0.178 C 
BRANCH  13  14
HETATM   14  N   UNL     1     -44.931 -52.955  12.994  1.00  0.00    -0.302 N 
HETATM   15  C   UNL     1     -45.262 -52.701  14.294  1.00  0.00     0.118 A 
HETATM   16  C   UNL     1     -46.364 -51.874  14.259  1.00  0.00    -0.028 A 
HETATM   17  C   UNL     1     -47.124 -51.308  15.393  1.00  0.00     0.051 C 
HETATM   18  C   UNL     1     -46.611 -51.691  12.878  1.00  0.00     0.115 A 
HETATM   19  N   UNL     1     -45.739 -52.345  12.108  1.00  0.00    -0.310 N 
ATOM     20  HN  UNL     1     -45.696 -52.376  11.090  1.00  0.00     0.186 HD
ENDBRANCH  13  14
ENDBRANCH  12  13
ENDBRANCH   1  12
TORSDOF 5
ENDMDL
MODEL 4
REMARK VINA RESULT:      -5.4      3.107      4.646
REMARK  5 active torsions:
REMARK  status: ('A' for Active; 'I' for Inactive)
REMARK    1  A    between atoms: C_2  and  N_3 
REMARK    2  A    between atoms: C_2  and  C_13 
REMARK    3  A    between atoms: N_3  and  C_4 
REMARK    4  A    between atoms: C_4  and  C_5 
REMARK    5  A    between atoms: C_5  and  N_6 
REMARK       I    between atoms: C_13  and  N_15 
ROOT
HETATM    1  N   UNL     1     -42.110 -51.867  11.873  1.00  0.00     0.098 N 
HETATM    2  H   UNL     1     -42.801 -51.993  11.132  1.00  0.00     0.317 HD
ENDROOT
BRANCH   1   3
HETATM    3  C   UNL     1     -42.484 -52.757  13.005  1.00  0.00     0.307 C 
HETATM    4  C   UNL     1     -41.615 -54.019  13.036  1.00  0.00     0.053 C 
BRANCH   3   5
HETATM    5  C   UNL     1     -43.992 -53.116  13.029  1.00  0.00     0.252 C 
HETATM    6  O   UNL     1     -44.460 -53.933  12.227  1.00  0.00    -0.271 OA
HETATM    7  N   UNL     1     -44.798 -52.524  13.980  1.00  0.00    -0.350 N 
HETATM    8  C   UNL     1     -44.422 -51.595  15.031  1.00  0.00     0.126 C 
HETATM    9  C   UNL     1     -46.202 -52.864  14.087  1.00  0.00     0.126 C 
HETATM   10  C   UNL     1     -45.741 -51.019  15.548  1.00  0.00     0.021 C 
HETATM   11  C   UNL     1     -46.823 -51.596  14.636  1.00  0.00     0.021 C 
ENDBRANCH   3   5
ENDBRANCH   1   3
BRANCH   1  12
HETATM   12  C   UNL     1     -42.061 -50.440  12.235  1.00  0.00     0.292 C 
BRANCH  12  13
HETATM   13  C   UNL     1     -41.027 -49.696  11.385  1.00  0.00     0.178 C 
BRANCH  13  14
HETATM   14  N   UNL     1     -39.690 -49.895  11.910  1.00  0.00    -0.302 N 
HETATM   15  C   UNL     1     -39.328 -49.944  13.225  1.00  0.00     0.118 A 
HETATM   16  C   UNL     1     -37.959 -50.105  13.244  1.00  0.00    -0.028 A 
HETATM   17  C   UNL     1     -37.063 -50.210  14.415  1.00  0.00     0.051 C 
HETATM   18  C   UNL     1     -37.599 -50.143  11.877  1.00  0.00     0.115 A 
HETATM   19  N   UNL     1     -38.650 -50.018  11.065  1.00  0.00    -0.310 N 
ATOM     20  HN  UNL     1     -38.663 -50.015  10.045  1.00  0.00     0.186 HD
ENDBRANCH  13  14
ENDBRANCH  12  13
ENDBRANCH   1  12
TORSDOF 5
ENDMDL
MODEL 5
REMARK VINA RESULT:      -5.3      3.821      6.485
REMARK  5 active torsions:
REMARK  status: ('A' for Active; 'I' for Inactive)
REMARK    1  A    between atoms: C_2  and  N_3 
REMARK    2  A    between atoms: C_2  and  C_13 
REMARK    3  A    between atoms: N_3  and  C_4 
REMARK    4  A    between atoms: C_4  and  C_5 
REMARK    5  A    between atoms: C_5  and  N_6 
REMARK       I    between atoms: C_13  and  N_15 
ROOT
HETATM    1  N   UNL     1     -41.192 -46.960  11.986  1.00  0.00     0.098 N 
HETATM    2  H   UNL     1     -41.757 -46.329  12.557  1.00  0.00     0.317 HD
ENDROOT
BRANCH   1   3
HETATM    3  C   UNL     1     -41.130 -46.402  10.609  1.00  0.00     0.307 C 
HETATM    4  C   UNL     1     -39.861 -45.568  10.399  1.00  0.00     0.053 C 
BRANCH   3   5
HETATM    5  C   UNL     1     -42.397 -45.600  10.215  1.00  0.00     0.252 C 
HETATM    6  O   UNL     1     -42.524 -44.415  10.547  1.00  0.00    -0.271 OA
HETATM    7  N   UNL     1     -43.372 -46.227   9.467  1.00  0.00    -0.350 N 
HETATM    8  C   UNL     1     -43.374 -47.581   8.941  1.00  0.00     0.126 C 
HETATM    9  C   UNL     1     -44.550 -45.513   9.022  1.00  0.00     0.126 C 
HETATM   10  C   UNL     1     -44.815 -47.837   8.500  1.00  0.00     0.021 C 
HETATM   11  C   UNL     1     -45.600 -46.600   8.932  1.00  0.00     0.021 C 
ENDBRANCH   3   5
ENDBRANCH   1   3
BRANCH   1  12
HETATM   12  C   UNL     1     -41.782 -48.309  12.052  1.00  0.00     0.292 C 
BRANCH  12  13
HETATM   13  C   UNL     1     -41.034 -49.277  11.133  1.00  0.00     0.178 C 
BRANCH  13  14
HETATM   14  N   UNL     1     -39.748 -49.636  11.699  1.00  0.00    -0.302 N 
HETATM   15  C   UNL     1     -39.474 -49.878  13.014  1.00  0.00     0.118 A 
HETATM   16  C   UNL     1     -38.122 -50.139  13.087  1.00  0.00    -0.028 A 
HETATM   17  C   UNL     1     -37.310 -50.455  14.281  1.00  0.00     0.051 C 
HETATM   18  C   UNL     1     -37.680 -50.028  11.748  1.00  0.00     0.115 A 
HETATM   19  N   UNL     1     -38.667 -49.725  10.903  1.00  0.00    -0.310 N 
ATOM     20  HN  UNL     1     -38.615 -49.593   9.893  1.00  0.00     0.186 HD
ENDBRANCH  13  14
ENDBRANCH  12  13
ENDBRANCH   1  12
TORSDOF 5
ENDMDL
MODEL 6
REMARK VINA RESULT:      -5.2      2.676      6.153
REMARK  5 active torsions:
REMARK  status: ('A' for Active; 'I' for Inactive)
REMARK    1  A    between atoms: C_2  and  N_3 
REMARK    2  A    between atoms: C_2  and  C_13 
REMARK    3  A    between atoms: N_3  and  C_4 
REMARK    4  A    between atoms: C_4  and  C_5 
REMARK    5  A    between atoms: C_5  and  N_6 
REMARK       I    between atoms: C_13  and  N_15 
ROOT
HETATM    1  N   UNL     1     -40.043 -50.653  12.668  1.00  0.00     0.098 N 
HETATM    2  H   UNL     1     -40.731 -50.138  13.221  1.00  0.00     0.317 HD
ENDROOT
BRANCH   1   3
HETATM    3  C   UNL     1     -39.369 -49.687  11.760  1.00  0.00     0.307 C 
HETATM    4  C   UNL     1     -37.849 -49.884  11.760  1.00  0.00     0.053 C 
BRANCH   3   5
HETATM    5  C   UNL     1     -39.741 -48.210  12.050  1.00  0.00     0.252 C 
HETATM    6  O   UNL     1     -39.076 -47.536  12.845  1.00  0.00    -0.271 OA
HETATM    7  N   UNL     1     -40.816 -47.655  11.386  1.00  0.00    -0.350 N 
HETATM    8  C   UNL     1     -41.672 -48.267  10.384  1.00  0.00     0.126 C 
HETATM    9  C   UNL     1     -41.175 -46.265  11.574  1.00  0.00     0.126 C 
HETATM   10  C   UNL     1     -42.872 -47.328  10.257  1.00  0.00     0.021 C 
HETATM   11  C   UNL     1     -42.669 -46.258  11.329  1.00  0.00     0.021 C 
ENDBRANCH   3   5
ENDBRANCH   1   3
BRANCH   1  12
HETATM   12  C   UNL     1     -40.730 -51.748  11.962  1.00  0.00     0.292 C 
BRANCH  12  13
HETATM   13  C   UNL     1     -40.959 -52.940  12.894  1.00  0.00     0.178 C 
BRANCH  13  14
HETATM   14  N   UNL     1     -42.359 -53.314  12.919  1.00  0.00    -0.302 N 
HETATM   15  C   UNL     1     -42.942 -54.242  13.733  1.00  0.00     0.118 A 
HETATM   16  C   UNL     1     -44.273 -54.290  13.375  1.00  0.00    -0.028 A 
HETATM   17  C   UNL     1     -45.346 -55.136  13.939  1.00  0.00     0.051 C 
HETATM   18  C   UNL     1     -44.381 -53.342  12.331  1.00  0.00     0.115 A 
HETATM   19  N   UNL     1     -43.220 -52.746  12.055  1.00  0.00    -0.310 N 
ATOM     20  HN  UNL     1     -43.029 -52.030  11.354  1.00  0.00     0.186 HD
ENDBRANCH  13  14
ENDBRANCH  12  13
ENDBRANCH   1  12
TORSDOF 5
ENDMDL
MODEL 7
REMARK VINA RESULT:      -5.2      3.087      6.339
REMARK  5 active torsions:
REMARK  status: ('A' for Active; 'I' for Inactive)
REMARK    1  A    between atoms: C_2  and  N_3 
REMARK    2  A    between atoms: C_2  and  C_13 
REMARK    3  A    between atoms: N_3  and  C_4 
REMARK    4  A    between atoms: C_4  and  C_5 
REMARK    5  A    between atoms: C_5  and  N_6 
REMARK       I    between atoms: C_13  and  N_15 
ROOT
HETATM    1  N   UNL     1     -41.628 -48.358   9.927  1.00  0.00     0.098 N 
HETATM    2  H   UNL     1     -40.942 -47.740   9.492  1.00  0.00     0.317 HD
ENDROOT
BRANCH   1   3
HETATM    3  C   UNL     1     -42.766 -47.523  10.396  1.00  0.00     0.307 C 
HETATM    4  C   UNL     1     -43.927 -47.544   9.396  1.00  0.00     0.053 C 
BRANCH   3   5
HETATM    5  C   UNL     1     -42.355 -46.069  10.746  1.00  0.00     0.252 C 
HETATM    6  O   UNL     1     -41.909 -45.313   9.875  1.00  0.00    -0.271 OA
HETATM    7  N   UNL     1     -42.521 -45.628  12.042  1.00  0.00    -0.350 N 
HETATM    8  C   UNL     1     -43.078 -46.345  13.176  1.00  0.00     0.126 C 
HETATM    9  C   UNL     1     -42.209 -44.264  12.414  1.00  0.00     0.126 C 
HETATM   10  C   UNL     1     -42.704 -45.510  14.401  1.00  0.00     0.021 C 
HETATM   11  C   UNL     1     -41.817 -44.384  13.872  1.00  0.00     0.021 C 
ENDBRANCH   3   5
ENDBRANCH   1   3
BRANCH   1  12
HETATM   12  C   UNL     1     -40.966 -49.114  11.004  1.00  0.00     0.292 C 
BRANCH  12  13
HETATM   13  C   UNL     1     -41.987 -49.619  12.025  1.00  0.00     0.178 C 
BRANCH  13  14
HETATM   14  N   UNL     1     -41.824 -51.041  12.259  1.00  0.00    -0.302 N 
HETATM   15  C   UNL     1     -42.436 -51.785  13.225  1.00  0.00     0.118 A 
HETATM   16  C   UNL     1     -41.948 -53.068  13.094  1.00  0.00    -0.028 A 
HETATM   17  C   UNL     1     -42.280 -54.263  13.897  1.00  0.00     0.051 C 
HETATM   18  C   UNL     1     -41.045 -52.982  12.009  1.00  0.00     0.115 A 
HETATM   19  N   UNL     1     -40.970 -51.751  11.499  1.00  0.00    -0.310 N 
ATOM     20  HN  UNL     1     -40.401 -51.425  10.718  1.00  0.00     0.186 HD
ENDBRANCH  13  14
ENDBRANCH  12  13
ENDBRANCH   1  12
TORSDOF 5
ENDMDL
MODEL 8
REMARK VINA RESULT:      -5.1      3.371      6.850
REMARK  5 active torsions:
REMARK  status: ('A' for Active; 'I' for Inactive)
REMARK    1  A    between atoms: C_2  and  N_3 
REMARK    2  A    between atoms: C_2  and  C_13 
REMARK    3  A    between atoms: N_3  and  C_4 
REMARK    4  A    between atoms: C_4  and  C_5 
REMARK    5  A    between atoms: C_5  and  N_6 
REMARK       I    between atoms: C_13  and  N_15 
ROOT
HETATM    1  N   UNL     1     -42.396 -48.602  10.579  1.00  0.00     0.098 N 
HETATM    2  H   UNL     1     -41.480 -48.356  10.199  1.00  0.00     0.317 HD
ENDROOT
BRANCH   1   3
HETATM    3  C   UNL     1     -43.173 -47.345  10.752  1.00  0.00     0.307 C 
HETATM    4  C   UNL     1     -44.504 -47.400   9.995  1.00  0.00     0.053 C 
BRANCH   3   5
HETATM    5  C   UNL     1     -42.369 -46.072  10.381  1.00  0.00     0.252 C 
HETATM    6  O   UNL     1     -42.524 -45.526   9.282  1.00  0.00    -0.271 OA
HETATM    7  N   UNL     1     -41.495 -45.546  11.310  1.00  0.00    -0.350 N 
HETATM    8  C   UNL     1     -41.225 -46.010  12.660  1.00  0.00     0.126 C 
HETATM    9  C   UNL     1     -40.761 -44.328  11.041  1.00  0.00     0.126 C 
HETATM   10  C   UNL     1     -39.954 -45.277  13.088  1.00  0.00     0.021 C 
HETATM   11  C   UNL     1     -39.496 -44.499  11.856  1.00  0.00     0.021 C 
ENDBRANCH   3   5
ENDBRANCH   1   3
BRANCH   1  12
HETATM   12  C   UNL     1     -42.201 -49.354  11.830  1.00  0.00     0.292 C 
BRANCH  12  13
HETATM   13  C   UNL     1     -41.122 -50.426  11.661  1.00  0.00     0.178 C 
BRANCH  13  14
HETATM   14  N   UNL     1     -39.823 -49.918  12.058  1.00  0.00    -0.302 N 
HETATM   15  C   UNL     1     -39.525 -49.252  13.212  1.00  0.00     0.118 A 
HETATM   16  C   UNL     1     -38.187 -48.928  13.138  1.00  0.00    -0.028 A 
HETATM   17  C   UNL     1     -37.363 -48.197  14.124  1.00  0.00     0.051 C 
HETATM   18  C   UNL     1     -37.776 -49.453  11.891  1.00  0.00     0.115 A 
HETATM   19  N   UNL     1     -38.769 -50.057  11.235  1.00  0.00    -0.310 N 
ATOM     20  HN  UNL     1     -38.736 -50.516  10.325  1.00  0.00     0.186 HD
ENDBRANCH  13  14
ENDBRANCH  12  13
ENDBRANCH   1  12
TORSDOF 5
ENDMDL
MODEL 9
REMARK VINA RESULT:      -4.9      2.832      5.162
REMARK  5 active torsions:
REMARK  status: ('A' for Active; 'I' for Inactive)
REMARK    1  A    between atoms: C_2  and  N_3 
REMARK    2  A    between atoms: C_2  and  C_13 
REMARK    3  A    between atoms: N_3  and  C_4 
REMARK    4  A    between atoms: C_4  and  C_5 
REMARK    5  A    between atoms: C_5  and  N_6 
REMARK       I    between atoms: C_13  and  N_15 
ROOT
HETATM    1  N   UNL     1     -43.095 -50.166  12.243  1.00  0.00     0.098 N 
HETATM    2  H   UNL     1     -43.690 -50.374  13.047  1.00  0.00     0.317 HD
ENDROOT
BRANCH   1   3
HETATM    3  C   UNL     1     -41.911 -51.064  12.305  1.00  0.00     0.307 C 
HETATM    4  C   UNL     1     -42.325 -52.539  12.336  1.00  0.00     0.053 C 
BRANCH   3   5
HETATM    5  C   UNL     1     -40.948 -50.729  13.473  1.00  0.00     0.252 C 
HETATM    6  O   UNL     1     -41.319 -50.837  14.648  1.00  0.00    -0.271 OA
HETATM    7  N   UNL     1     -39.661 -50.329  13.177  1.00  0.00    -0.350 N 
HETATM    8  C   UNL     1     -39.033 -50.201  11.873  1.00  0.00     0.126 C 
HETATM    9  C   UNL     1     -38.701 -50.059  14.227  1.00  0.00     0.126 C 
HETATM   10  C   UNL     1     -37.747 -49.412  12.125  1.00  0.00     0.021 C 
HETATM   11  C   UNL     1     -37.788 -49.024  13.602  1.00  0.00     0.021 C 
ENDBRANCH   3   5
ENDBRANCH   1   3
BRANCH   1  12
HETATM   12  C   UNL     1     -42.754 -48.734  12.267  1.00  0.00     0.292 C 
BRANCH  12  13
HETATM   13  C   UNL     1     -42.034 -48.322  10.981  1.00  0.00     0.178 C 
BRANCH  13  14
HETATM   14  N   UNL     1     -41.116 -47.227  11.231  1.00  0.00    -0.302 N 
HETATM   15  C   UNL     1     -40.613 -46.844  12.441  1.00  0.00     0.118 A 
HETATM   16  C   UNL     1     -39.823 -45.740  12.200  1.00  0.00    -0.028 A 
HETATM   17  C   UNL     1     -39.052 -44.933  13.169  1.00  0.00     0.051 C 
HETATM   18  C   UNL     1     -39.921 -45.547  10.802  1.00  0.00     0.115 A 
HETATM   19  N   UNL     1     -40.705 -46.452  10.212  1.00  0.00    -0.310 N 
ATOM     20  HN  UNL     1     -40.937 -46.536   9.222  1.00  0.00     0.186 HD
ENDBRANCH  13  14
ENDBRANCH  12  13
ENDBRANCH   1  12
TORSDOF 5
ENDMDL
