MODEL 1
REMARK VINA RESULT:      -5.7      0.000      0.000
REMARK  5 active torsions:
REMARK  status: ('A' for Active; 'I' for Inactive)
REMARK    1  A    between atoms: C_9  and  C_10 
REMARK    2  A    between atoms: C_10  and  C_11 
REMARK    3  A    between atoms: C_11  and  N_12 
REMARK       I    between atoms: N_12  and  C_13 
REMARK       I    between atoms: C_13  and  N_15 
REMARK    4  A    between atoms: C_18  and  C_19 
REMARK    5  A    between atoms: C_19  and  O_20 
ROOT
HETATM    1  N   UNL     1     -40.366 -52.141  14.248  1.00  0.00    -0.343 N 
HETATM    2  C   UNL     1     -41.092 -52.704  13.218  1.00  0.00     0.318 C 
HETATM    3  O   UNL     1     -40.578 -53.020  12.151  1.00  0.00    -0.247 OA
HETATM    4  N   UNL     1     -42.459 -52.840  13.480  1.00  0.00    -0.334 N 
HETATM    5  C   UNL     1     -43.275 -53.288  12.349  1.00  0.00     0.128 C 
HETATM    6  C   UNL     1     -44.755 -52.967  12.543  1.00  0.00     0.027 C 
HETATM    7  C   UNL     1     -45.300 -53.495  13.879  1.00  0.00     0.012 C 
HETATM    8  C   UNL     1     -44.403 -53.004  15.024  1.00  0.00     0.027 C 
HETATM    9  C   UNL     1     -42.919 -53.290  14.793  1.00  0.00     0.128 C 
HETATM   10  H   UNL     1     -40.889 -51.417  14.719  1.00  0.00     0.164 HD
ENDROOT
BRANCH   1  11
HETATM   11  C   UNL     1     -38.938 -51.897  14.041  1.00  0.00     0.129 C 
BRANCH  11  12
HETATM   12  C   UNL     1     -38.538 -50.431  14.244  1.00  0.00     0.062 C 
BRANCH  12  13
HETATM   13  C   UNL     1     -39.045 -49.518  13.165  1.00  0.00    -0.009 A 
HETATM   14  C   UNL     1     -38.527 -49.337  11.852  1.00  0.00     0.030 A 
HETATM   15  C   UNL     1     -37.362 -49.990  11.203  1.00  0.00     0.070 C 
HETATM   16  N   UNL     1     -39.244 -48.453  11.148  1.00  0.00    -0.303 N 
HETATM   17  N   UNL     1     -40.213 -48.064  11.988  1.00  0.00    -0.300 N 
ATOM     18  HN  UNL     1     -39.089 -48.145  10.189  1.00  0.00     0.186 HD
HETATM   19  C   UNL     1     -41.182 -47.094  11.528  1.00  0.00     0.177 C 
HETATM   20  C   UNL     1     -40.149 -48.676  13.214  1.00  0.00     0.032 A 
HETATM   21  C   UNL     1     -41.122 -48.428  14.308  1.00  0.00     0.070 C 
ENDBRANCH  12  13
ENDBRANCH  11  12
ENDBRANCH   1  11
BRANCH   7  22
HETATM   22  C   UNL     1     -45.462 -55.021  13.887  1.00  0.00     0.168 C 
BRANCH  22  23
HETATM   23  O   UNL     1     -46.719 -55.385  14.444  1.00  0.00    -0.400 OA
HETATM   24  H   UNL     1     -46.549 -55.864  15.275  1.00  0.00     0.209 HD
ENDBRANCH  22  23
ENDBRANCH   7  22
TORSDOF 5
ENDMDL
MODEL 2
REMARK VINA RESULT:      -5.6      3.004      7.515
REMARK  5 active torsions:
REMARK  status: ('A' for Active; 'I' for Inactive)
REMARK    1  A    between atoms: C_9  and  C_10 
REMARK    2  A    between atoms: C_10  and  C_11 
REMARK    3  A    between atoms: C_11  and  N_12 
REMARK       I    between atoms: N_12  and  C_13 
REMARK       I    between atoms: C_13  and  N_15 
REMARK    4  A    between atoms: C_18  and  C_19 
REMARK    5  A    between atoms: C_19  and  O_20 
ROOT
HETATM    1  N   UNL     1     -42.399 -51.126  11.966  1.00  0.00    -0.343 N 
HETATM    2  C   UNL     1     -42.101 -50.039  12.762  1.00  0.00     0.318 C 
HETATM    3  O   UNL     1     -41.776 -50.158  13.938  1.00  0.00    -0.247 OA
HETATM    4  N   UNL     1     -42.244 -48.801  12.129  1.00  0.00    -0.334 N 
HETATM    5  C   UNL     1     -42.086 -47.629  12.993  1.00  0.00     0.128 C 
HETATM    6  C   UNL     1     -42.704 -46.374  12.382  1.00  0.00     0.027 C 
HETATM    7  C   UNL     1     -42.192 -46.101  10.960  1.00  0.00     0.012 C 
HETATM    8  C   UNL     1     -42.373 -47.362  10.103  1.00  0.00     0.027 C 
HETATM    9  C   UNL     1     -41.791 -48.620  10.750  1.00  0.00     0.128 C 
HETATM   10  H   UNL     1     -43.176 -50.934  11.350  1.00  0.00     0.164 HD
ENDROOT
BRANCH   1  11
HETATM   11  C   UNL     1     -42.344 -52.462  12.562  1.00  0.00     0.129 C 
BRANCH  11  12
HETATM   12  C   UNL     1     -43.639 -53.262  12.380  1.00  0.00     0.062 C 
BRANCH  12  13
HETATM   13  C   UNL     1     -44.536 -53.229  13.583  1.00  0.00    -0.009 A 
HETATM   14  C   UNL     1     -45.750 -52.506  13.753  1.00  0.00     0.030 A 
HETATM   15  C   UNL     1     -46.446 -51.601  12.804  1.00  0.00     0.070 C 
HETATM   16  N   UNL     1     -46.301 -52.728  14.953  1.00  0.00    -0.303 N 
HETATM   17  N   UNL     1     -45.460 -53.580  15.554  1.00  0.00    -0.300 N 
ATOM     18  HN  UNL     1     -47.165 -52.336  15.326  1.00  0.00     0.186 HD
HETATM   19  C   UNL     1     -45.771 -54.033  16.891  1.00  0.00     0.177 C 
HETATM   20  C   UNL     1     -44.384 -53.925  14.776  1.00  0.00     0.032 A 
HETATM   21  C   UNL     1     -43.325 -54.871  15.209  1.00  0.00     0.070 C 
ENDBRANCH  12  13
ENDBRANCH  11  12
ENDBRANCH   1  11
BRANCH   7  22
HETATM   22  C   UNL     1     -40.743 -45.595  10.942  1.00  0.00     0.168 C 
BRANCH  22  23
HETATM   23  O   UNL     1     -40.360 -45.228   9.621  1.00  0.00    -0.400 OA
HETATM   24  H   UNL     1     -40.288 -46.044   9.095  1.00  0.00     0.209 HD
ENDBRANCH  22  23
ENDBRANCH   7  22
TORSDOF 5
ENDMDL
MODEL 3
REMARK VINA RESULT:      -5.6      2.608      3.799
REMARK  5 active torsions:
REMARK  status: ('A' for Active; 'I' for Inactive)
REMARK    1  A    between atoms: C_9  and  C_10 
REMARK    2  A    between atoms: C_10  and  C_11 
REMARK    3  A    between atoms: C_11  and  N_12 
REMARK       I    between atoms: N_12  and  C_13 
REMARK       I    between atoms: C_13  and  N_15 
REMARK    4  A    between atoms: C_18  and  C_19 
REMARK    5  A    between atoms: C_19  and  O_20 
ROOT
HETATM    1  N   UNL     1     -42.720 -50.004  12.138  1.00  0.00    -0.343 N 
HETATM    2  C   UNL     1     -42.600 -51.181  12.848  1.00  0.00     0.318 C 
HETATM    3  O   UNL     1     -41.526 -51.574  13.290  1.00  0.00    -0.247 OA
HETATM    4  N   UNL     1     -43.792 -51.902  12.979  1.00  0.00    -0.334 N 
HETATM    5  C   UNL     1     -43.662 -53.226  13.590  1.00  0.00     0.128 C 
HETATM    6  C   UNL     1     -44.858 -54.124  13.280  1.00  0.00     0.027 C 
HETATM    7  C   UNL     1     -46.197 -53.463  13.640  1.00  0.00     0.012 C 
HETATM    8  C   UNL     1     -46.273 -52.077  12.983  1.00  0.00     0.027 C 
HETATM    9  C   UNL     1     -45.047 -51.208  13.263  1.00  0.00     0.128 C 
HETATM   10  H   UNL     1     -43.368 -50.097  11.370  1.00  0.00     0.164 HD
ENDROOT
BRANCH   1  11
HETATM   11  C   UNL     1     -41.512 -49.215  11.891  1.00  0.00     0.129 C 
BRANCH  11  12
HETATM   12  C   UNL     1     -41.497 -48.545  10.512  1.00  0.00     0.062 C 
BRANCH  12  13
HETATM   13  C   UNL     1     -42.033 -47.142  10.522  1.00  0.00    -0.009 A 
HETATM   14  C   UNL     1     -43.306 -46.685  10.078  1.00  0.00     0.030 A 
HETATM   15  C   UNL     1     -44.429 -47.458   9.490  1.00  0.00     0.070 C 
HETATM   16  N   UNL     1     -43.454 -45.367  10.256  1.00  0.00    -0.303 N 
HETATM   17  N   UNL     1     -42.298 -44.972  10.806  1.00  0.00    -0.300 N 
ATOM     18  HN  UNL     1     -44.264 -44.792  10.025  1.00  0.00     0.186 HD
HETATM   19  C   UNL     1     -42.128 -43.574  11.135  1.00  0.00     0.177 C 
HETATM   20  C   UNL     1     -41.407 -45.997  10.999  1.00  0.00     0.032 A 
HETATM   21  C   UNL     1     -40.067 -45.818  11.612  1.00  0.00     0.070 C 
ENDBRANCH  12  13
ENDBRANCH  11  12
ENDBRANCH   1  11
BRANCH   7  22
HETATM   22  C   UNL     1     -46.433 -53.395  15.155  1.00  0.00     0.168 C 
BRANCH  22  23
HETATM   23  O   UNL     1     -45.967 -54.583  15.785  1.00  0.00    -0.400 OA
HETATM   24  H   UNL     1     -45.626 -54.340  16.663  1.00  0.00     0.209 HD
ENDBRANCH  22  23
ENDBRANCH   7  22
TORSDOF 5
ENDMDL
MODEL 4
REMARK VINA RESULT:      -5.6      3.085      3.600
REMARK  5 active torsions:
REMARK  status: ('A' for Active; 'I' for Inactive)
REMARK    1  A    between atoms: C_9  and  C_10 
REMARK    2  A    between atoms: C_10  and  C_11 
REMARK    3  A    between atoms: C_11  and  N_12 
REMARK       I    between atoms: N_12  and  C_13 
REMARK       I    between atoms: C_13  and  N_15 
REMARK    4  A    between atoms: C_18  and  C_19 
REMARK    5  A    between atoms: C_19  and  O_20 
ROOT
HETATM    1  N   UNL     1     -43.137 -48.966  14.352  1.00  0.00    -0.343 N 
HETATM    2  C   UNL     1     -43.375 -50.095  13.594  1.00  0.00     0.318 C 
HETATM    3  O   UNL     1     -42.625 -50.447  12.691  1.00  0.00    -0.247 OA
HETATM    4  N   UNL     1     -44.558 -50.768  13.914  1.00  0.00    -0.334 N 
HETATM    5  C   UNL     1     -44.912 -51.876  13.024  1.00  0.00     0.128 C 
HETATM    6  C   UNL     1     -46.390 -52.247  13.126  1.00  0.00     0.027 C 
HETATM    7  C   UNL     1     -46.829 -52.521  14.573  1.00  0.00     0.012 C 
HETATM    8  C   UNL     1     -46.423 -51.335  15.460  1.00  0.00     0.027 C 
HETATM    9  C   UNL     1     -44.953 -50.944  15.311  1.00  0.00     0.128 C 
HETATM   10  H   UNL     1     -43.991 -48.467  14.554  1.00  0.00     0.164 HD
ENDROOT
BRANCH   1  11
HETATM   11  C   UNL     1     -41.957 -48.157  14.044  1.00  0.00     0.129 C 
BRANCH  11  12
HETATM   12  C   UNL     1     -42.299 -46.738  13.575  1.00  0.00     0.062 C 
BRANCH  12  13
HETATM   13  C   UNL     1     -41.694 -46.385  12.247  1.00  0.00    -0.009 A 
HETATM   14  C   UNL     1     -42.160 -46.736  10.949  1.00  0.00     0.030 A 
HETATM   15  C   UNL     1     -43.349 -47.536  10.562  1.00  0.00     0.070 C 
HETATM   16  N   UNL     1     -41.381 -46.231   9.984  1.00  0.00    -0.303 N 
HETATM   17  N   UNL     1     -40.425 -45.562  10.643  1.00  0.00    -0.300 N 
ATOM     18  HN  UNL     1     -41.491 -46.332   8.976  1.00  0.00     0.186 HD
HETATM   19  C   UNL     1     -39.403 -44.882   9.878  1.00  0.00     0.177 C 
HETATM   20  C   UNL     1     -40.565 -45.612  12.006  1.00  0.00     0.032 A 
HETATM   21  C   UNL     1     -39.645 -44.932  12.953  1.00  0.00     0.070 C 
ENDBRANCH  12  13
ENDBRANCH  11  12
ENDBRANCH   1  11
BRANCH   7  22
HETATM   22  C   UNL     1     -46.289 -53.853  15.110  1.00  0.00     0.168 C 
BRANCH  22  23
HETATM   23  O   UNL     1     -46.911 -54.946  14.446  1.00  0.00    -0.400 OA
HETATM   24  H   UNL     1     -47.759 -54.632  14.086  1.00  0.00     0.209 HD
ENDBRANCH  22  23
ENDBRANCH   7  22
TORSDOF 5
ENDMDL
MODEL 5
REMARK VINA RESULT:      -5.6      2.620      7.235
REMARK  5 active torsions:
REMARK  status: ('A' for Active; 'I' for Inactive)
REMARK    1  A    between atoms: C_9  and  C_10 
REMARK    2  A    between atoms: C_10  and  C_11 
REMARK    3  A    between atoms: C_11  and  N_12 
REMARK       I    between atoms: N_12  and  C_13 
REMARK       I    between atoms: C_13  and  N_15 
REMARK    4  A    between atoms: C_18  and  C_19 
REMARK    5  A    between atoms: C_19  and  O_20 
ROOT
HETATM    1  N   UNL     1     -42.418 -51.270  12.158  1.00  0.00    -0.343 N 
HETATM    2  C   UNL     1     -41.230 -50.591  12.335  1.00  0.00     0.318 C 
HETATM    3  O   UNL     1     -40.174 -51.169  12.569  1.00  0.00    -0.247 OA
HETATM    4  N   UNL     1     -41.343 -49.199  12.269  1.00  0.00    -0.334 N 
HETATM    5  C   UNL     1     -40.130 -48.451  12.608  1.00  0.00     0.128 C 
HETATM    6  C   UNL     1     -40.430 -47.000  12.975  1.00  0.00     0.027 C 
HETATM    7  C   UNL     1     -41.255 -46.281  11.897  1.00  0.00     0.012 C 
HETATM    8  C   UNL     1     -42.505 -47.111  11.574  1.00  0.00     0.027 C 
HETATM    9  C   UNL     1     -42.193 -48.574  11.256  1.00  0.00     0.128 C 
HETATM   10  H   UNL     1     -43.192 -50.781  12.583  1.00  0.00     0.164 HD
ENDROOT
BRANCH   1  11
HETATM   11  C   UNL     1     -42.411 -52.728  12.277  1.00  0.00     0.129 C 
BRANCH  11  12
HETATM   12  C   UNL     1     -43.809 -53.352  12.186  1.00  0.00     0.062 C 
BRANCH  12  13
HETATM   13  C   UNL     1     -44.577 -53.287  13.474  1.00  0.00    -0.009 A 
HETATM   14  C   UNL     1     -44.332 -54.001  14.681  1.00  0.00     0.030 A 
HETATM   15  C   UNL     1     -43.267 -54.990  14.987  1.00  0.00     0.070 C 
HETATM   16  N   UNL     1     -45.208 -53.681  15.640  1.00  0.00    -0.303 N 
HETATM   17  N   UNL     1     -46.012 -52.774  15.068  1.00  0.00    -0.300 N 
ATOM     18  HN  UNL     1     -45.255 -54.044  16.591  1.00  0.00     0.186 HD
HETATM   19  C   UNL     1     -47.088 -52.209  15.852  1.00  0.00     0.177 C 
HETATM   20  C   UNL     1     -45.677 -52.490  13.769  1.00  0.00     0.032 A 
HETATM   21  C   UNL     1     -46.402 -51.503  12.929  1.00  0.00     0.070 C 
ENDBRANCH  12  13
ENDBRANCH  11  12
ENDBRANCH   1  11
BRANCH   7  22
HETATM   22  C   UNL     1     -40.433 -45.965  10.640  1.00  0.00     0.168 C 
BRANCH  22  23
HETATM   23  O   UNL     1     -41.288 -45.573   9.572  1.00  0.00    -0.400 OA
HETATM   24  H   UNL     1     -41.871 -46.325   9.367  1.00  0.00     0.209 HD
ENDBRANCH  22  23
ENDBRANCH   7  22
TORSDOF 5
ENDMDL
MODEL 6
REMARK VINA RESULT:      -5.5      2.312      3.218
REMARK  5 active torsions:
REMARK  status: ('A' for Active; 'I' for Inactive)
REMARK    1  A    between atoms: C_9  and  C_10 
REMARK    2  A    between atoms: C_10  and  C_11 
REMARK    3  A    between atoms: C_11  and  N_12 
REMARK       I    between atoms: N_12  and  C_13 
REMARK       I    between atoms: C_13  and  N_15 
REMARK    4  A    between atoms: C_18  and  C_19 
REMARK    5  A    between atoms: C_19  and  O_20 
ROOT
HETATM    1  N   UNL     1     -41.858 -52.949  15.537  1.00  0.00    -0.343 N 
HETATM    2  C   UNL     1     -42.653 -51.827  15.420  1.00  0.00     0.318 C 
HETATM    3  O   UNL     1     -42.251 -50.706  15.713  1.00  0.00    -0.247 OA
HETATM    4  N   UNL     1     -43.957 -52.084  14.985  1.00  0.00    -0.334 N 
HETATM    5  C   UNL     1     -44.865 -50.935  15.003  1.00  0.00     0.128 C 
HETATM    6  C   UNL     1     -46.332 -51.359  14.983  1.00  0.00     0.027 C 
HETATM    7  C   UNL     1     -46.651 -52.315  13.823  1.00  0.00     0.012 C 
HETATM    8  C   UNL     1     -45.664 -53.491  13.848  1.00  0.00     0.027 C 
HETATM    9  C   UNL     1     -44.201 -53.051  13.916  1.00  0.00     0.128 C 
HETATM   10  H   UNL     1     -42.381 -53.742  15.877  1.00  0.00     0.164 HD
ENDROOT
BRANCH   1  11
HETATM   11  C   UNL     1     -40.497 -52.787  16.050  1.00  0.00     0.129 C 
BRANCH  11  12
HETATM   12  C   UNL     1     -39.414 -53.128  15.019  1.00  0.00     0.062 C 
BRANCH  12  13
HETATM   13  C   UNL     1     -39.291 -52.110  13.922  1.00  0.00    -0.009 A 
HETATM   14  C   UNL     1     -39.985 -52.069  12.680  1.00  0.00     0.030 A 
HETATM   15  C   UNL     1     -41.001 -53.008  12.140  1.00  0.00     0.070 C 
HETATM   16  N   UNL     1     -39.641 -51.002  11.949  1.00  0.00    -0.303 N 
HETATM   17  N   UNL     1     -38.738 -50.359  12.701  1.00  0.00    -0.300 N 
ATOM     18  HN  UNL     1     -39.988 -50.738  11.027  1.00  0.00     0.186 HD
HETATM   19  C   UNL     1     -38.156 -49.137  12.193  1.00  0.00     0.177 C 
HETATM   20  C   UNL     1     -38.493 -50.973  13.903  1.00  0.00     0.032 A 
HETATM   21  C   UNL     1     -37.549 -50.444  14.920  1.00  0.00     0.070 C 
ENDBRANCH  12  13
ENDBRANCH  11  12
ENDBRANCH   1  11
BRANCH   7  22
HETATM   22  C   UNL     1     -46.667 -51.605  12.463  1.00  0.00     0.168 C 
BRANCH  22  23
HETATM   23  O   UNL     1     -46.717 -52.556  11.406  1.00  0.00    -0.400 OA
HETATM   24  H   UNL     1     -46.065 -52.289  10.734  1.00  0.00     0.209 HD
ENDBRANCH  22  23
ENDBRANCH   7  22
TORSDOF 5
ENDMDL
MODEL 7
REMARK VINA RESULT:      -5.4      1.914      2.452
REMARK  5 active torsions:
REMARK  status: ('A' for Active; 'I' for Inactive)
REMARK    1  A    between atoms: C_9  and  C_10 
REMARK    2  A    between atoms: C_10  and  C_11 
REMARK    3  A    between atoms: C_11  and  N_12 
REMARK       I    between atoms: N_12  and  C_13 
REMARK       I    between atoms: C_13  and  N_15 
REMARK    4  A    between atoms: C_18  and  C_19 
REMARK    5  A    between atoms: C_19  and  O_20 
ROOT
HETATM    1  N   UNL     1     -41.684 -50.695  13.115  1.00  0.00    -0.343 N 
HETATM    2  C   UNL     1     -42.398 -51.801  12.701  1.00  0.00     0.318 C 
HETATM    3  O   UNL     1     -41.905 -52.671  11.991  1.00  0.00    -0.247 OA
HETATM    4  N   UNL     1     -43.732 -51.820  13.120  1.00  0.00    -0.334 N 
HETATM    5  C   UNL     1     -44.551 -52.900  12.565  1.00  0.00     0.128 C 
HETATM    6  C   UNL     1     -46.046 -52.601  12.667  1.00  0.00     0.027 C 
HETATM    7  C   UNL     1     -46.475 -52.242  14.098  1.00  0.00     0.012 C 
HETATM    8  C   UNL     1     -45.579 -51.116  14.631  1.00  0.00     0.027 C 
HETATM    9  C   UNL     1     -44.086 -51.408  14.478  1.00  0.00     0.128 C 
HETATM   10  H   UNL     1     -42.253 -49.861  13.106  1.00  0.00     0.164 HD
ENDROOT
BRANCH   1  11
HETATM   11  C   UNL     1     -40.298 -50.554  12.669  1.00  0.00     0.129 C 
BRANCH  11  12
HETATM   12  C   UNL     1     -40.147 -49.671  11.424  1.00  0.00     0.062 C 
BRANCH  12  13
HETATM   13  C   UNL     1     -40.512 -48.235  11.663  1.00  0.00    -0.009 A 
HETATM   14  C   UNL     1     -39.927 -47.320  12.584  1.00  0.00     0.030 A 
HETATM   15  C   UNL     1     -38.815 -47.537  13.544  1.00  0.00     0.070 C 
HETATM   16  N   UNL     1     -40.492 -46.109  12.513  1.00  0.00    -0.303 N 
HETATM   17  N   UNL     1     -41.429 -46.231  11.564  1.00  0.00    -0.300 N 
ATOM     18  HN  UNL     1     -40.261 -45.280  13.060  1.00  0.00     0.186 HD
HETATM   19  C   UNL     1     -42.236 -45.078  11.234  1.00  0.00     0.177 C 
HETATM   20  C   UNL     1     -41.484 -47.485  11.010  1.00  0.00     0.032 A 
HETATM   21  C   UNL     1     -42.423 -47.865   9.925  1.00  0.00     0.070 C 
ENDBRANCH  12  13
ENDBRANCH  11  12
ENDBRANCH   1  11
BRANCH   7  22
HETATM   22  C   UNL     1     -46.488 -53.459  15.032  1.00  0.00     0.168 C 
BRANCH  22  23
HETATM   23  O   UNL     1     -46.994 -54.603  14.354  1.00  0.00    -0.400 OA
HETATM   24  H   UNL     1     -46.317 -54.896  13.719  1.00  0.00     0.209 HD
ENDBRANCH  22  23
ENDBRANCH   7  22
TORSDOF 5
ENDMDL
MODEL 8
REMARK VINA RESULT:      -5.3      2.519      4.005
REMARK  5 active torsions:
REMARK  status: ('A' for Active; 'I' for Inactive)
REMARK    1  A    between atoms: C_9  and  C_10 
REMARK    2  A    between atoms: C_10  and  C_11 
REMARK    3  A    between atoms: C_11  and  N_12 
REMARK       I    between atoms: N_12  and  C_13 
REMARK       I    between atoms: C_13  and  N_15 
REMARK    4  A    between atoms: C_18  and  C_19 
REMARK    5  A    between atoms: C_19  and  O_20 
ROOT
HETATM    1  N   UNL     1     -39.450 -49.670  12.423  1.00  0.00    -0.343 N 
HETATM    2  C   UNL     1     -39.074 -50.426  13.514  1.00  0.00     0.318 C 
HETATM    3  O   UNL     1     -38.375 -49.974  14.414  1.00  0.00    -0.247 OA
HETATM    4  N   UNL     1     -39.519 -51.751  13.482  1.00  0.00    -0.334 N 
HETATM    5  C   UNL     1     -39.004 -52.614  14.548  1.00  0.00     0.128 C 
HETATM    6  C   UNL     1     -39.128 -54.096  14.200  1.00  0.00     0.027 C 
HETATM    7  C   UNL     1     -40.558 -54.486  13.797  1.00  0.00     0.012 C 
HETATM    8  C   UNL     1     -41.049 -53.545  12.688  1.00  0.00     0.027 C 
HETATM    9  C   UNL     1     -40.874 -52.065  13.031  1.00  0.00     0.128 C 
HETATM   10  H   UNL     1     -39.434 -50.213  11.571  1.00  0.00     0.164 HD
ENDROOT
BRANCH   1  11
HETATM   11  C   UNL     1     -38.974 -48.289  12.334  1.00  0.00     0.129 C 
BRANCH  11  12
HETATM   12  C   UNL     1     -40.042 -47.254  12.709  1.00  0.00     0.062 C 
BRANCH  12  13
HETATM   13  C   UNL     1     -41.009 -46.963  11.598  1.00  0.00    -0.009 A 
HETATM   14  C   UNL     1     -40.875 -46.017  10.543  1.00  0.00     0.030 A 
HETATM   15  C   UNL     1     -39.763 -45.075  10.261  1.00  0.00     0.070 C 
HETATM   16  N   UNL     1     -41.926 -46.040   9.715  1.00  0.00    -0.303 N 
HETATM   17  N   UNL     1     -42.731 -46.984  10.222  1.00  0.00    -0.300 N 
ATOM     18  HN  UNL     1     -42.080 -45.468   8.885  1.00  0.00     0.186 HD
HETATM   19  C   UNL     1     -43.978 -47.267   9.547  1.00  0.00     0.177 C 
HETATM   20  C   UNL     1     -42.229 -47.580  11.350  1.00  0.00     0.032 A 
HETATM   21  C   UNL     1     -42.923 -48.669  12.084  1.00  0.00     0.070 C 
ENDBRANCH  12  13
ENDBRANCH  11  12
ENDBRANCH   1  11
BRANCH   7  22
HETATM   22  C   UNL     1     -41.520 -54.517  14.993  1.00  0.00     0.168 C 
BRANCH  22  23
HETATM   23  O   UNL     1     -42.829 -54.879  14.570  1.00  0.00    -0.400 OA
HETATM   24  H   UNL     1     -43.100 -55.663  15.079  1.00  0.00     0.209 HD
ENDBRANCH  22  23
ENDBRANCH   7  22
TORSDOF 5
ENDMDL
MODEL 9
REMARK VINA RESULT:      -5.2      2.110      3.297
REMARK  5 active torsions:
REMARK  status: ('A' for Active; 'I' for Inactive)
REMARK    1  A    between atoms: C_9  and  C_10 
REMARK    2  A    between atoms: C_10  and  C_11 
REMARK    3  A    between atoms: C_11  and  N_12 
REMARK       I    between atoms: N_12  and  C_13 
REMARK       I    between atoms: C_13  and  N_15 
REMARK    4  A    between atoms: C_18  and  C_19 
REMARK    5  A    between atoms: C_19  and  O_20 
ROOT
HETATM    1  N   UNL     1     -42.615 -51.472  12.239  1.00  0.00    -0.343 N 
HETATM    2  C   UNL     1     -42.883 -52.302  13.308  1.00  0.00     0.318 C 
HETATM    3  O   UNL     1     -42.010 -52.964  13.858  1.00  0.00    -0.247 OA
HETATM    4  N   UNL     1     -44.231 -52.355  13.677  1.00  0.00    -0.334 N 
HETATM    5  C   UNL     1     -44.564 -53.344  14.704  1.00  0.00     0.128 C 
HETATM    6  C   UNL     1     -46.054 -53.681  14.718  1.00  0.00     0.027 C 
HETATM    7  C   UNL     1     -46.938 -52.430  14.829  1.00  0.00     0.012 C 
HETATM    8  C   UNL     1     -46.538 -51.426  13.738  1.00  0.00     0.027 C 
HETATM    9  C   UNL     1     -45.037 -51.135  13.705  1.00  0.00     0.128 C 
HETATM   10  H   UNL     1     -43.351 -51.505  11.548  1.00  0.00     0.164 HD
ENDROOT
BRANCH   1  11
HETATM   11  C   UNL     1     -41.242 -51.403  11.737  1.00  0.00     0.129 C 
BRANCH  11  12
HETATM   12  C   UNL     1     -40.816 -49.989  11.325  1.00  0.00     0.062 C 
BRANCH  12  13
HETATM   13  C   UNL     1     -40.118 -49.232  12.417  1.00  0.00    -0.009 A 
HETATM   14  C   UNL     1     -40.700 -48.470  13.469  1.00  0.00     0.030 A 
HETATM   15  C   UNL     1     -42.133 -48.219  13.765  1.00  0.00     0.070 C 
HETATM   16  N   UNL     1     -39.773 -47.946  14.279  1.00  0.00    -0.303 N 
HETATM   17  N   UNL     1     -38.607 -48.358  13.764  1.00  0.00    -0.300 N 
ATOM     18  HN  UNL     1     -39.921 -47.363  15.103  1.00  0.00     0.186 HD
HETATM   19  C   UNL     1     -37.381 -47.960  14.419  1.00  0.00     0.177 C 
HETATM   20  C   UNL     1     -38.750 -49.142  12.649  1.00  0.00     0.032 A 
HETATM   21  C   UNL     1     -37.608 -49.738  11.910  1.00  0.00     0.070 C 
ENDBRANCH  12  13
ENDBRANCH  11  12
ENDBRANCH   1  11
BRANCH   7  22
HETATM   22  C   UNL     1     -46.898 -51.804  16.230  1.00  0.00     0.168 C 
BRANCH  22  23
HETATM   23  O   UNL     1     -48.217 -51.534  16.692  1.00  0.00    -0.400 OA
HETATM   24  H   UNL     1     -48.438 -52.203  17.364  1.00  0.00     0.209 HD
ENDBRANCH  22  23
ENDBRANCH   7  22
TORSDOF 5
ENDMDL
