MODEL 1
REMARK VINA RESULT:      -5.9      0.000      0.000
REMARK  4 active torsions:
REMARK  status: ('A' for Active; 'I' for Inactive)
REMARK       I    between atoms: C_2  and  N_3 
REMARK       I    between atoms: C_2  and  N_13 
REMARK    1  A    between atoms: N_3  and  C_4 
REMARK    2  A    between atoms: C_4  and  C_5 
REMARK    3  A    between atoms: C_5  and  N_6 
REMARK    4  A    between atoms: N_13  and  C_14 
ROOT
HETATM    1  O   UNL     1     -42.090 -50.775  13.197  1.00  0.00    -0.247 OA
HETATM    2  C   UNL     1     -41.885 -51.444  12.192  1.00  0.00     0.320 C 
HETATM    3  N   UNL     1     -40.929 -51.087  11.266  1.00  0.00    -0.341 N 
HETATM    4  N   UNL     1     -42.553 -52.588  11.827  1.00  0.00    -0.308 N 
HETATM    5  H   UNL     1     -40.577 -51.803  10.649  1.00  0.00     0.164 HD
HETATM    6  H   UNL     1     -42.579 -52.783  10.838  1.00  0.00     0.170 HD
ENDROOT
BRANCH   3   7
HETATM    7  C   UNL     1     -40.089 -49.926  11.511  1.00  0.00     0.145 C 
BRANCH   7   8
HETATM    8  C   UNL     1     -38.619 -50.265  11.813  1.00  0.00     0.156 C 
BRANCH   8   9
HETATM    9  N   UNL     1     -38.334 -50.467  13.223  1.00  0.00    -0.267 N 
HETATM   10  C   UNL     1     -38.044 -49.468  14.109  1.00  0.00     0.245 A 
HETATM   11  O   UNL     1     -37.860 -48.288  13.843  1.00  0.00    -0.271 OA
HETATM   12  C   UNL     1     -38.006 -50.052  15.510  1.00  0.00     0.227 A 
HETATM   13  N   UNL     1     -38.321 -51.422  15.231  1.00  0.00    -0.334 N 
HETATM   14  C   UNL     1     -38.579 -51.629  13.892  1.00  0.00     0.325 A 
HETATM   15  H   UNL     1     -38.531 -52.140  15.912  1.00  0.00     0.164 HD
HETATM   16  O   UNL     1     -38.995 -52.685  13.449  1.00  0.00    -0.247 OA
ENDBRANCH   8   9
ENDBRANCH   7   8
ENDBRANCH   3   7
BRANCH   4  17
HETATM   17  C   UNL     1     -43.465 -53.281  12.652  1.00  0.00     0.051 A 
HETATM   18  C   UNL     1     -43.071 -54.186  13.636  1.00  0.00     0.032 A 
HETATM   19  C   UNL     1     -44.029 -54.827  14.418  1.00  0.00     0.019 A 
HETATM   20  C   UNL     1     -45.364 -54.548  14.182  1.00  0.00     0.088 A 
HETATM   21  N   UNL     1     -45.793 -53.698  13.223  1.00  0.00    -0.373 N 
HETATM   22  C   UNL     1     -44.834 -53.091  12.482  1.00  0.00     0.117 A 
ATOM     23  HN  UNL     1     -46.785 -53.523  13.066  1.00  0.00     0.164 HD
ENDBRANCH   4  17
TORSDOF 4
ENDMDL
MODEL 2
REMARK VINA RESULT:      -5.8      2.999      7.281
REMARK  4 active torsions:
REMARK  status: ('A' for Active; 'I' for Inactive)
REMARK       I    between atoms: C_2  and  N_3 
REMARK       I    between atoms: C_2  and  N_13 
REMARK    1  A    between atoms: N_3  and  C_4 
REMARK    2  A    between atoms: C_4  and  C_5 
REMARK    3  A    between atoms: C_5  and  N_6 
REMARK    4  A    between atoms: N_13  and  C_14 
ROOT
HETATM    1  O   UNL     1     -42.565 -49.777  13.108  1.00  0.00    -0.247 OA
HETATM    2  C   UNL     1     -42.100 -50.366  12.141  1.00  0.00     0.320 C 
HETATM    3  N   UNL     1     -42.217 -51.733  12.001  1.00  0.00    -0.341 N 
HETATM    4  N   UNL     1     -41.403 -49.801  11.102  1.00  0.00    -0.308 N 
HETATM    5  H   UNL     1     -42.117 -52.124  11.077  1.00  0.00     0.164 HD
HETATM    6  H   UNL     1     -40.752 -50.409  10.629  1.00  0.00     0.170 HD
ENDROOT
BRANCH   3   7
HETATM    7  C   UNL     1     -42.969 -52.495  12.985  1.00  0.00     0.145 C 
BRANCH   7   8
HETATM    8  C   UNL     1     -43.979 -53.484  12.378  1.00  0.00     0.156 C 
BRANCH   8   9
HETATM    9  N   UNL     1     -45.153 -53.713  13.201  1.00  0.00    -0.267 N 
HETATM   10  C   UNL     1     -45.239 -54.653  14.189  1.00  0.00     0.245 A 
HETATM   11  O   UNL     1     -44.411 -55.514  14.451  1.00  0.00    -0.271 OA
HETATM   12  C   UNL     1     -46.540 -54.450  14.945  1.00  0.00     0.227 A 
HETATM   13  N   UNL     1     -47.073 -53.315  14.251  1.00  0.00    -0.334 N 
HETATM   14  C   UNL     1     -46.211 -52.856  13.278  1.00  0.00     0.325 A 
HETATM   15  H   UNL     1     -47.877 -52.767  14.526  1.00  0.00     0.164 HD
HETATM   16  O   UNL     1     -46.397 -51.826  12.654  1.00  0.00    -0.247 OA
ENDBRANCH   8   9
ENDBRANCH   7   8
ENDBRANCH   3   7
BRANCH   4  17
HETATM   17  C   UNL     1     -41.267 -48.411  10.890  1.00  0.00     0.051 A 
HETATM   18  C   UNL     1     -40.267 -47.642  11.481  1.00  0.00     0.032 A 
HETATM   19  C   UNL     1     -40.191 -46.276  11.217  1.00  0.00     0.019 A 
HETATM   20  C   UNL     1     -41.133 -45.717  10.371  1.00  0.00     0.088 A 
HETATM   21  N   UNL     1     -42.134 -46.418   9.797  1.00  0.00    -0.373 N 
HETATM   22  C   UNL     1     -42.177 -47.745  10.074  1.00  0.00     0.117 A 
ATOM     23  HN  UNL     1     -42.821 -45.974   9.187  1.00  0.00     0.164 HD
ENDBRANCH   4  17
TORSDOF 4
ENDMDL
MODEL 3
REMARK VINA RESULT:      -5.7      2.609      6.958
REMARK  4 active torsions:
REMARK  status: ('A' for Active; 'I' for Inactive)
REMARK       I    between atoms: C_2  and  N_3 
REMARK       I    between atoms: C_2  and  N_13 
REMARK    1  A    between atoms: N_3  and  C_4 
REMARK    2  A    between atoms: C_4  and  C_5 
REMARK    3  A    between atoms: C_5  and  N_6 
REMARK    4  A    between atoms: N_13  and  C_14 
ROOT
HETATM    1  O   UNL     1     -42.090 -50.661  13.204  1.00  0.00    -0.247 OA
HETATM    2  C   UNL     1     -41.775 -51.137  12.121  1.00  0.00     0.320 C 
HETATM    3  N   UNL     1     -42.059 -52.446  11.795  1.00  0.00    -0.341 N 
HETATM    4  N   UNL     1     -41.102 -50.491  11.113  1.00  0.00    -0.308 N 
HETATM    5  H   UNL     1     -42.078 -52.698  10.818  1.00  0.00     0.164 HD
HETATM    6  H   UNL     1     -40.565 -51.082  10.496  1.00  0.00     0.170 HD
ENDROOT
BRANCH   3   7
HETATM    7  C   UNL     1     -42.812 -53.271  12.726  1.00  0.00     0.145 C 
BRANCH   7   8
HETATM    8  C   UNL     1     -44.288 -53.469  12.339  1.00  0.00     0.156 C 
BRANCH   8   9
HETATM    9  N   UNL     1     -45.204 -53.451  13.466  1.00  0.00    -0.267 N 
HETATM   10  C   UNL     1     -46.065 -52.428  13.751  1.00  0.00     0.245 A 
HETATM   11  O   UNL     1     -46.114 -51.339  13.196  1.00  0.00    -0.271 OA
HETATM   12  C   UNL     1     -46.988 -52.865  14.876  1.00  0.00     0.227 A 
HETATM   13  N   UNL     1     -46.514 -54.199  15.101  1.00  0.00    -0.334 N 
HETATM   14  C   UNL     1     -45.515 -54.546  14.215  1.00  0.00     0.325 A 
HETATM   15  H   UNL     1     -46.950 -54.900  15.685  1.00  0.00     0.164 HD
HETATM   16  O   UNL     1     -45.057 -55.672  14.135  1.00  0.00    -0.247 OA
ENDBRANCH   8   9
ENDBRANCH   7   8
ENDBRANCH   3   7
BRANCH   4  17
HETATM   17  C   UNL     1     -40.825 -49.106  11.093  1.00  0.00     0.051 A 
HETATM   18  C   UNL     1     -39.768 -48.529  11.794  1.00  0.00     0.032 A 
HETATM   19  C   UNL     1     -39.551 -47.155  11.719  1.00  0.00     0.019 A 
HETATM   20  C   UNL     1     -40.413 -46.394  10.947  1.00  0.00     0.088 A 
HETATM   21  N   UNL     1     -41.465 -46.907  10.272  1.00  0.00    -0.373 N 
HETATM   22  C   UNL     1     -41.645 -48.248  10.366  1.00  0.00     0.117 A 
ATOM     23  HN  UNL     1     -42.089 -46.318   9.722  1.00  0.00     0.164 HD
ENDBRANCH   4  17
TORSDOF 4
ENDMDL
MODEL 4
REMARK VINA RESULT:      -5.6      0.976      2.093
REMARK  4 active torsions:
REMARK  status: ('A' for Active; 'I' for Inactive)
REMARK       I    between atoms: C_2  and  N_3 
REMARK       I    between atoms: C_2  and  N_13 
REMARK    1  A    between atoms: N_3  and  C_4 
REMARK    2  A    between atoms: C_4  and  C_5 
REMARK    3  A    between atoms: C_5  and  N_6 
REMARK    4  A    between atoms: N_13  and  C_14 
ROOT
HETATM    1  O   UNL     1     -41.996 -50.600  13.034  1.00  0.00    -0.247 OA
HETATM    2  C   UNL     1     -41.689 -51.289  12.070  1.00  0.00     0.320 C 
HETATM    3  N   UNL     1     -40.762 -50.864  11.142  1.00  0.00    -0.341 N 
HETATM    4  N   UNL     1     -42.202 -52.523  11.756  1.00  0.00    -0.308 N 
HETATM    5  H   UNL     1     -40.311 -51.562  10.570  1.00  0.00     0.164 HD
HETATM    6  H   UNL     1     -42.183 -52.770  10.778  1.00  0.00     0.170 HD
ENDROOT
BRANCH   3   7
HETATM    7  C   UNL     1     -40.076 -49.598  11.339  1.00  0.00     0.145 C 
BRANCH   7   8
HETATM    8  C   UNL     1     -38.619 -49.738  11.811  1.00  0.00     0.156 C 
BRANCH   8   9
HETATM    9  N   UNL     1     -38.476 -49.956  13.240  1.00  0.00    -0.267 N 
HETATM   10  C   UNL     1     -38.447 -51.184  13.840  1.00  0.00     0.245 A 
HETATM   11  O   UNL     1     -38.656 -52.263  13.303  1.00  0.00    -0.271 OA
HETATM   12  C   UNL     1     -38.086 -51.004  15.304  1.00  0.00     0.227 A 
HETATM   13  N   UNL     1     -37.923 -49.582  15.361  1.00  0.00    -0.334 N 
HETATM   14  C   UNL     1     -38.087 -48.994  14.124  1.00  0.00     0.325 A 
HETATM   15  H   UNL     1     -37.546 -49.052  16.136  1.00  0.00     0.164 HD
HETATM   16  O   UNL     1     -37.865 -47.816  13.911  1.00  0.00    -0.247 OA
ENDBRANCH   8   9
ENDBRANCH   7   8
ENDBRANCH   3   7
BRANCH   4  17
HETATM   17  C   UNL     1     -43.042 -53.281  12.602  1.00  0.00     0.051 A 
HETATM   18  C   UNL     1     -44.431 -53.301  12.481  1.00  0.00     0.032 A 
HETATM   19  C   UNL     1     -45.194 -54.080  13.348  1.00  0.00     0.019 A 
HETATM   20  C   UNL     1     -44.539 -54.813  14.322  1.00  0.00     0.088 A 
HETATM   21  N   UNL     1     -43.199 -54.804  14.492  1.00  0.00    -0.373 N 
HETATM   22  C   UNL     1     -42.487 -54.037  13.631  1.00  0.00     0.117 A 
ATOM     23  HN  UNL     1     -42.747 -55.346  15.228  1.00  0.00     0.164 HD
ENDBRANCH   4  17
TORSDOF 4
ENDMDL
MODEL 5
REMARK VINA RESULT:      -5.6      2.523      3.613
REMARK  4 active torsions:
REMARK  status: ('A' for Active; 'I' for Inactive)
REMARK       I    between atoms: C_2  and  N_3 
REMARK       I    between atoms: C_2  and  N_13 
REMARK    1  A    between atoms: N_3  and  C_4 
REMARK    2  A    between atoms: C_4  and  C_5 
REMARK    3  A    between atoms: C_5  and  N_6 
REMARK    4  A    between atoms: N_13  and  C_14 
ROOT
HETATM    1  O   UNL     1     -42.356 -50.642  13.173  1.00  0.00    -0.247 OA
HETATM    2  C   UNL     1     -42.038 -51.340  12.219  1.00  0.00     0.320 C 
HETATM    3  N   UNL     1     -41.048 -50.959  11.340  1.00  0.00    -0.341 N 
HETATM    4  N   UNL     1     -42.600 -52.544  11.870  1.00  0.00    -0.308 N 
HETATM    5  H   UNL     1     -40.606 -51.676  10.784  1.00  0.00     0.164 HD
HETATM    6  H   UNL     1     -42.546 -52.786  10.892  1.00  0.00     0.170 HD
ENDROOT
BRANCH   3   7
HETATM    7  C   UNL     1     -40.306 -49.732  11.580  1.00  0.00     0.145 C 
BRANCH   7   8
HETATM    8  C   UNL     1     -40.886 -48.496  10.872  1.00  0.00     0.156 C 
BRANCH   8   9
HETATM    9  N   UNL     1     -41.588 -47.580  11.754  1.00  0.00    -0.267 N 
HETATM   10  C   UNL     1     -40.987 -46.603  12.497  1.00  0.00     0.245 A 
HETATM   11  O   UNL     1     -39.785 -46.426  12.634  1.00  0.00    -0.271 OA
HETATM   12  C   UNL     1     -42.064 -45.736  13.125  1.00  0.00     0.227 A 
HETATM   13  N   UNL     1     -43.243 -46.364  12.607  1.00  0.00    -0.334 N 
HETATM   14  C   UNL     1     -42.939 -47.400  11.749  1.00  0.00     0.325 A 
HETATM   15  H   UNL     1     -44.189 -46.013  12.675  1.00  0.00     0.164 HD
HETATM   16  O   UNL     1     -43.779 -47.990  11.092  1.00  0.00    -0.247 OA
ENDBRANCH   8   9
ENDBRANCH   7   8
ENDBRANCH   3   7
BRANCH   4  17
HETATM   17  C   UNL     1     -43.518 -53.261  12.668  1.00  0.00     0.051 A 
HETATM   18  C   UNL     1     -43.131 -54.212  13.611  1.00  0.00     0.032 A 
HETATM   19  C   UNL     1     -44.094 -54.874  14.368  1.00  0.00     0.019 A 
HETATM   20  C   UNL     1     -45.427 -54.570  14.149  1.00  0.00     0.088 A 
HETATM   21  N   UNL     1     -45.849 -53.676  13.228  1.00  0.00    -0.373 N 
HETATM   22  C   UNL     1     -44.885 -53.049  12.510  1.00  0.00     0.117 A 
ATOM     23  HN  UNL     1     -46.840 -53.484  13.082  1.00  0.00     0.164 HD
ENDBRANCH   4  17
TORSDOF 4
ENDMDL
MODEL 6
REMARK VINA RESULT:      -5.4      2.344      6.320
REMARK  4 active torsions:
REMARK  status: ('A' for Active; 'I' for Inactive)
REMARK       I    between atoms: C_2  and  N_3 
REMARK       I    between atoms: C_2  and  N_13 
REMARK    1  A    between atoms: N_3  and  C_4 
REMARK    2  A    between atoms: C_4  and  C_5 
REMARK    3  A    between atoms: C_5  and  N_6 
REMARK    4  A    between atoms: N_13  and  C_14 
ROOT
HETATM    1  O   UNL     1     -42.700 -51.366  13.385  1.00  0.00    -0.247 OA
HETATM    2  C   UNL     1     -42.417 -52.036  12.401  1.00  0.00     0.320 C 
HETATM    3  N   UNL     1     -43.279 -52.986  11.897  1.00  0.00    -0.341 N 
HETATM    4  N   UNL     1     -41.247 -51.973  11.684  1.00  0.00    -0.308 N 
HETATM    5  H   UNL     1     -43.160 -53.273  10.938  1.00  0.00     0.164 HD
HETATM    6  H   UNL     1     -40.985 -52.817  11.197  1.00  0.00     0.170 HD
ENDROOT
BRANCH   3   7
HETATM    7  C   UNL     1     -44.591 -53.158  12.502  1.00  0.00     0.145 C 
BRANCH   7   8
HETATM    8  C   UNL     1     -44.768 -54.487  13.255  1.00  0.00     0.156 C 
BRANCH   8   9
HETATM    9  N   UNL     1     -44.383 -54.432  14.655  1.00  0.00    -0.267 N 
HETATM   10  C   UNL     1     -43.098 -54.523  15.112  1.00  0.00     0.245 A 
HETATM   11  O   UNL     1     -42.104 -54.783  14.449  1.00  0.00    -0.271 OA
HETATM   12  C   UNL     1     -43.088 -54.223  16.601  1.00  0.00     0.227 A 
HETATM   13  N   UNL     1     -44.478 -53.960  16.826  1.00  0.00    -0.334 N 
HETATM   14  C   UNL     1     -45.209 -54.019  15.658  1.00  0.00     0.325 A 
HETATM   15  H   UNL     1     -44.889 -53.585  17.671  1.00  0.00     0.164 HD
HETATM   16  O   UNL     1     -46.383 -53.701  15.589  1.00  0.00    -0.247 OA
ENDBRANCH   8   9
ENDBRANCH   7   8
ENDBRANCH   3   7
BRANCH   4  17
HETATM   17  C   UNL     1     -40.250 -50.989  11.861  1.00  0.00     0.051 A 
HETATM   18  C   UNL     1     -39.152 -51.156  12.703  1.00  0.00     0.032 A 
HETATM   19  C   UNL     1     -38.203 -50.143  12.820  1.00  0.00     0.019 A 
HETATM   20  C   UNL     1     -38.390 -48.980  12.093  1.00  0.00     0.088 A 
HETATM   21  N   UNL     1     -39.451 -48.764  11.286  1.00  0.00    -0.373 N 
HETATM   22  C   UNL     1     -40.354 -49.772  11.194  1.00  0.00     0.117 A 
ATOM     23  HN  UNL     1     -39.567 -47.890  10.773  1.00  0.00     0.164 HD
ENDBRANCH   4  17
TORSDOF 4
ENDMDL
MODEL 7
REMARK VINA RESULT:      -5.4      2.541      6.877
REMARK  4 active torsions:
REMARK  status: ('A' for Active; 'I' for Inactive)
REMARK       I    between atoms: C_2  and  N_3 
REMARK       I    between atoms: C_2  and  N_13 
REMARK    1  A    between atoms: N_3  and  C_4 
REMARK    2  A    between atoms: C_4  and  C_5 
REMARK    3  A    between atoms: C_5  and  N_6 
REMARK    4  A    between atoms: N_13  and  C_14 
ROOT
HETATM    1  O   UNL     1     -41.674 -52.351  13.539  1.00  0.00    -0.247 OA
HETATM    2  C   UNL     1     -42.340 -52.069  12.552  1.00  0.00     0.320 C 
HETATM    3  N   UNL     1     -43.386 -52.864  12.132  1.00  0.00    -0.341 N 
HETATM    4  N   UNL     1     -42.155 -50.986  11.728  1.00  0.00    -0.308 N 
HETATM    5  H   UNL     1     -44.088 -52.448  11.539  1.00  0.00     0.164 HD
HETATM    6  H   UNL     1     -42.474 -51.099  10.777  1.00  0.00     0.170 HD
ENDROOT
BRANCH   3   7
HETATM    7  C   UNL     1     -43.759 -54.032  12.914  1.00  0.00     0.145 C 
BRANCH   7   8
HETATM    8  C   UNL     1     -45.270 -54.161  13.171  1.00  0.00     0.156 C 
BRANCH   8   9
HETATM    9  N   UNL     1     -45.789 -53.220  14.148  1.00  0.00    -0.267 N 
HETATM   10  C   UNL     1     -46.263 -51.972  13.851  1.00  0.00     0.245 A 
HETATM   11  O   UNL     1     -46.214 -51.413  12.765  1.00  0.00    -0.271 OA
HETATM   12  C   UNL     1     -46.895 -51.380  15.099  1.00  0.00     0.227 A 
HETATM   13  N   UNL     1     -46.704 -52.456  16.026  1.00  0.00    -0.334 N 
HETATM   14  C   UNL     1     -46.117 -53.552  15.429  1.00  0.00     0.325 A 
HETATM   15  H   UNL     1     -47.103 -52.527  16.952  1.00  0.00     0.164 HD
HETATM   16  O   UNL     1     -45.980 -54.624  15.991  1.00  0.00    -0.247 OA
ENDBRANCH   8   9
ENDBRANCH   7   8
ENDBRANCH   3   7
BRANCH   4  17
HETATM   17  C   UNL     1     -41.273 -49.916  11.996  1.00  0.00     0.051 A 
HETATM   18  C   UNL     1     -41.494 -48.978  13.002  1.00  0.00     0.032 A 
HETATM   19  C   UNL     1     -40.574 -47.953  13.214  1.00  0.00     0.019 A 
HETATM   20  C   UNL     1     -39.458 -47.894  12.398  1.00  0.00     0.088 A 
HETATM   21  N   UNL     1     -39.216 -48.766  11.395  1.00  0.00    -0.373 N 
HETATM   22  C   UNL     1     -40.131 -49.751  11.218  1.00  0.00     0.117 A 
ATOM     23  HN  UNL     1     -38.389 -48.687  10.802  1.00  0.00     0.164 HD
ENDBRANCH   4  17
TORSDOF 4
ENDMDL
MODEL 8
REMARK VINA RESULT:      -5.4      3.033      6.287
REMARK  4 active torsions:
REMARK  status: ('A' for Active; 'I' for Inactive)
REMARK       I    between atoms: C_2  and  N_3 
REMARK       I    between atoms: C_2  and  N_13 
REMARK    1  A    between atoms: N_3  and  C_4 
REMARK    2  A    between atoms: C_4  and  C_5 
REMARK    3  A    between atoms: C_5  and  N_6 
REMARK    4  A    between atoms: N_13  and  C_14 
ROOT
HETATM    1  O   UNL     1     -40.973 -49.482  12.842  1.00  0.00    -0.247 OA
HETATM    2  C   UNL     1     -41.001 -49.910  11.696  1.00  0.00     0.320 C 
HETATM    3  N   UNL     1     -40.785 -51.242  11.415  1.00  0.00    -0.341 N 
HETATM    4  N   UNL     1     -41.219 -49.173  10.558  1.00  0.00    -0.308 N 
HETATM    5  H   UNL     1     -41.126 -51.602  10.536  1.00  0.00     0.164 HD
HETATM    6  H   UNL     1     -40.816 -49.546   9.711  1.00  0.00     0.170 HD
ENDROOT
BRANCH   3   7
HETATM    7  C   UNL     1     -40.585 -52.184  12.505  1.00  0.00     0.145 C 
BRANCH   7   8
HETATM    8  C   UNL     1     -41.278 -53.541  12.299  1.00  0.00     0.156 C 
BRANCH   8   9
HETATM    9  N   UNL     1     -42.225 -53.890  13.343  1.00  0.00    -0.267 N 
HETATM   10  C   UNL     1     -43.577 -53.988  13.166  1.00  0.00     0.245 A 
HETATM   11  O   UNL     1     -44.204 -53.687  12.160  1.00  0.00    -0.271 OA
HETATM   12  C   UNL     1     -44.194 -54.564  14.428  1.00  0.00     0.227 A 
HETATM   13  N   UNL     1     -43.023 -54.755  15.230  1.00  0.00    -0.334 N 
HETATM   14  C   UNL     1     -41.872 -54.419  14.548  1.00  0.00     0.325 A 
HETATM   15  H   UNL     1     -42.973 -55.250  16.111  1.00  0.00     0.164 HD
HETATM   16  O   UNL     1     -40.753 -54.625  14.986  1.00  0.00    -0.247 OA
ENDBRANCH   8   9
ENDBRANCH   7   8
ENDBRANCH   3   7
BRANCH   4  17
HETATM   17  C   UNL     1     -41.629 -47.822  10.543  1.00  0.00     0.051 A 
HETATM   18  C   UNL     1     -40.761 -46.757  10.781  1.00  0.00     0.032 A 
HETATM   19  C   UNL     1     -41.237 -45.449  10.742  1.00  0.00     0.019 A 
HETATM   20  C   UNL     1     -42.580 -45.245  10.474  1.00  0.00     0.088 A 
HETATM   21  N   UNL     1     -43.462 -46.247  10.263  1.00  0.00    -0.373 N 
HETATM   22  C   UNL     1     -42.964 -47.507  10.307  1.00  0.00     0.117 A 
ATOM     23  HN  UNL     1     -44.448 -46.064  10.080  1.00  0.00     0.164 HD
ENDBRANCH   4  17
TORSDOF 4
ENDMDL
MODEL 9
REMARK VINA RESULT:      -5.3      2.061      2.998
REMARK  4 active torsions:
REMARK  status: ('A' for Active; 'I' for Inactive)
REMARK       I    between atoms: C_2  and  N_3 
REMARK       I    between atoms: C_2  and  N_13 
REMARK    1  A    between atoms: N_3  and  C_4 
REMARK    2  A    between atoms: C_4  and  C_5 
REMARK    3  A    between atoms: C_5  and  N_6 
REMARK    4  A    between atoms: N_13  and  C_14 
ROOT
HETATM    1  O   UNL     1     -41.921 -51.463  13.541  1.00  0.00    -0.247 OA
HETATM    2  C   UNL     1     -42.008 -51.843  12.381  1.00  0.00     0.320 C 
HETATM    3  N   UNL     1     -41.093 -51.462  11.423  1.00  0.00    -0.341 N 
HETATM    4  N   UNL     1     -42.991 -52.649  11.860  1.00  0.00    -0.308 N 
HETATM    5  H   UNL     1     -41.010 -52.031  10.594  1.00  0.00     0.164 HD
HETATM    6  H   UNL     1     -43.171 -52.540  10.874  1.00  0.00     0.170 HD
ENDROOT
BRANCH   3   7
HETATM    7  C   UNL     1     -39.952 -50.645  11.804  1.00  0.00     0.145 C 
BRANCH   7   8
HETATM    8  C   UNL     1     -40.015 -49.196  11.291  1.00  0.00     0.156 C 
BRANCH   8   9
HETATM    9  N   UNL     1     -40.643 -48.267  12.213  1.00  0.00    -0.267 N 
HETATM   10  C   UNL     1     -41.993 -48.096  12.346  1.00  0.00     0.245 A 
HETATM   11  O   UNL     1     -42.864 -48.592  11.645  1.00  0.00    -0.271 OA
HETATM   12  C   UNL     1     -42.256 -47.194  13.539  1.00  0.00     0.227 A 
HETATM   13  N   UNL     1     -40.916 -46.954  13.988  1.00  0.00    -0.334 N 
HETATM   14  C   UNL     1     -39.991 -47.650  13.238  1.00  0.00     0.325 A 
HETATM   15  H   UNL     1     -40.645 -46.502  14.850  1.00  0.00     0.164 HD
HETATM   16  O   UNL     1     -38.807 -47.701  13.522  1.00  0.00    -0.247 OA
ENDBRANCH   8   9
ENDBRANCH   7   8
ENDBRANCH   3   7
BRANCH   4  17
HETATM   17  C   UNL     1     -43.965 -53.324  12.629  1.00  0.00     0.051 A 
HETATM   18  C   UNL     1     -43.681 -54.442  13.411  1.00  0.00     0.032 A 
HETATM   19  C   UNL     1     -44.694 -55.050  14.149  1.00  0.00     0.019 A 
HETATM   20  C   UNL     1     -45.971 -54.522  14.074  1.00  0.00     0.088 A 
HETATM   21  N   UNL     1     -46.297 -53.456  13.309  1.00  0.00    -0.373 N 
HETATM   22  C   UNL     1     -45.287 -52.888  12.605  1.00  0.00     0.117 A 
ATOM     23  HN  UNL     1     -47.251 -53.099  13.265  1.00  0.00     0.164 HD
ENDBRANCH   4  17
TORSDOF 4
ENDMDL
