MODEL 1
REMARK VINA RESULT:      -6.6      0.000      0.000
REMARK  4 active torsions:
REMARK  status: ('A' for Active; 'I' for Inactive)
REMARK    1  A    between atoms: C_2  and  N_3 
REMARK    2  A    between atoms: C_2  and  C_22 
REMARK       I    between atoms: N_3  and  C_4 
REMARK       I    between atoms: C_4  and  N_6 
REMARK    3  A    between atoms: N_6  and  C_7 
REMARK    4  A    between atoms: C_10  and  C_14 
REMARK       I    between atoms: C_14  and  N_16 
ROOT
HETATM    1  C   UNL     1     -40.995 -49.020  11.092  1.00  0.00     0.051 A 
HETATM    2  C   UNL     1     -39.926 -48.401  11.732  1.00  0.00     0.033 A 
HETATM    3  C   UNL     1     -39.726 -47.033  11.556  1.00  0.00     0.037 A 
HETATM    4  C   UNL     1     -40.637 -46.309  10.790  1.00  0.00     0.100 A 
HETATM    5  N   UNL     1     -41.681 -46.889  10.148  1.00  0.00    -0.359 N 
ATOM      6  HN  UNL     1     -42.323 -46.345   9.571  1.00  0.00     0.165 HD
HETATM    7  C   UNL     1     -41.832 -48.226  10.309  1.00  0.00     0.118 A 
ENDROOT
BRANCH   1   8
HETATM    8  N   UNL     1     -41.176 -50.408  11.253  1.00  0.00    -0.308 N 
HETATM    9  C   UNL     1     -41.763 -50.943  12.381  1.00  0.00     0.321 C 
HETATM   10  N   UNL     1     -41.889 -52.303  12.269  1.00  0.00    -0.338 N 
HETATM   11  O   UNL     1     -42.219 -50.300  13.316  1.00  0.00    -0.247 OA
HETATM   12  H   UNL     1     -41.123 -52.794  11.831  1.00  0.00     0.164 HD
HETATM   13  H   UNL     1     -41.324 -50.956  10.418  1.00  0.00     0.170 HD
BRANCH  10  14
HETATM   14  C   UNL     1     -42.730 -53.043  13.188  1.00  0.00     0.086 C 
HETATM   15  C   UNL     1     -42.004 -54.236  13.804  1.00  0.00     0.032 C 
BRANCH  14  16
HETATM   16  C   UNL     1     -43.961 -53.473  12.432  1.00  0.00     0.008 A 
HETATM   17  C   UNL     1     -45.312 -52.904  12.812  1.00  0.00     0.007 A 
HETATM   18  C   UNL     1     -45.001 -54.344  13.093  1.00  0.00     0.007 A 
ENDBRANCH  14  16
ENDBRANCH  10  14
ENDBRANCH   1   8
BRANCH   4  19
HETATM   19  C   UNL     1     -40.429 -44.831  10.652  1.00  0.00     0.270 C 
HETATM   20  O   UNL     1     -39.695 -44.460   9.730  1.00  0.00    -0.266 OA
HETATM   21  N   UNL     1     -41.002 -43.918  11.553  1.00  0.00    -0.347 N 
HETATM   22  C   UNL     1     -41.605 -44.256  12.842  1.00  0.00     0.126 C 
HETATM   23  C   UNL     1     -40.604 -42.513  11.417  1.00  0.00     0.126 C 
HETATM   24  C   UNL     1     -42.793 -43.347  13.151  1.00  0.00     0.020 C 
HETATM   25  C   UNL     1     -42.389 -41.879  13.084  1.00  0.00     0.003 C 
HETATM   26  C   UNL     1     -41.753 -41.561  11.734  1.00  0.00     0.020 C 
ENDBRANCH   4  19
TORSDOF 4
ENDMDL
MODEL 2
REMARK VINA RESULT:      -6.0      1.967      8.519
REMARK  4 active torsions:
REMARK  status: ('A' for Active; 'I' for Inactive)
REMARK    1  A    between atoms: C_2  and  N_3 
REMARK    2  A    between atoms: C_2  and  C_22 
REMARK       I    between atoms: N_3  and  C_4 
REMARK       I    between atoms: C_4  and  N_6 
REMARK    3  A    between atoms: N_6  and  C_7 
REMARK    4  A    between atoms: C_10  and  C_14 
REMARK       I    between atoms: C_14  and  N_16 
ROOT
HETATM    1  C   UNL     1     -40.807 -49.673  12.241  1.00  0.00     0.051 A 
HETATM    2  C   UNL     1     -41.303 -49.698  13.540  1.00  0.00     0.033 A 
HETATM    3  C   UNL     1     -42.080 -50.779  13.952  1.00  0.00     0.037 A 
HETATM    4  C   UNL     1     -42.290 -51.837  13.069  1.00  0.00     0.100 A 
HETATM    5  N   UNL     1     -41.825 -51.833  11.795  1.00  0.00    -0.359 N 
ATOM      6  HN  UNL     1     -42.011 -52.607  11.156  1.00  0.00     0.165 HD
HETATM    7  C   UNL     1     -41.102 -50.754  11.412  1.00  0.00     0.118 A 
ENDROOT
BRANCH   1   8
HETATM    8  N   UNL     1     -40.044 -48.565  11.823  1.00  0.00    -0.308 N 
HETATM    9  C   UNL     1     -40.595 -47.527  11.100  1.00  0.00     0.321 C 
HETATM   10  N   UNL     1     -39.670 -46.542  10.876  1.00  0.00    -0.338 N 
HETATM   11  O   UNL     1     -41.774 -47.427  10.792  1.00  0.00    -0.247 OA
HETATM   12  H   UNL     1     -38.729 -46.842  10.667  1.00  0.00     0.164 HD
HETATM   13  H   UNL     1     -39.270 -48.288  12.409  1.00  0.00     0.170 HD
BRANCH  10  14
HETATM   14  C   UNL     1     -40.084 -45.237  10.400  1.00  0.00     0.086 C 
HETATM   15  C   UNL     1     -39.064 -44.616   9.449  1.00  0.00     0.032 C 
BRANCH  14  16
HETATM   16  C   UNL     1     -40.318 -44.366  11.608  1.00  0.00     0.008 A 
HETATM   17  C   UNL     1     -41.687 -43.764  11.845  1.00  0.00     0.007 A 
HETATM   18  C   UNL     1     -40.540 -42.881  11.450  1.00  0.00     0.007 A 
ENDBRANCH  14  16
ENDBRANCH  10  14
ENDBRANCH   1   8
BRANCH   4  19
HETATM   19  C   UNL     1     -43.090 -53.011  13.548  1.00  0.00     0.270 C 
HETATM   20  O   UNL     1     -42.490 -54.086  13.644  1.00  0.00    -0.266 OA
HETATM   21  N   UNL     1     -44.462 -52.902  13.831  1.00  0.00    -0.347 N 
HETATM   22  C   UNL     1     -45.326 -51.785  13.451  1.00  0.00     0.126 C 
HETATM   23  C   UNL     1     -45.176 -54.145  14.141  1.00  0.00     0.126 C 
HETATM   24  C   UNL     1     -46.390 -51.522  14.514  1.00  0.00     0.020 C 
HETATM   25  C   UNL     1     -47.194 -52.784  14.806  1.00  0.00     0.003 C 
HETATM   26  C   UNL     1     -46.265 -53.932  15.189  1.00  0.00     0.020 C 
ENDBRANCH   4  19
TORSDOF 4
ENDMDL
MODEL 3
REMARK VINA RESULT:      -6.0      1.798      2.129
REMARK  4 active torsions:
REMARK  status: ('A' for Active; 'I' for Inactive)
REMARK    1  A    between atoms: C_2  and  N_3 
REMARK    2  A    between atoms: C_2  and  C_22 
REMARK       I    between atoms: N_3  and  C_4 
REMARK       I    between atoms: C_4  and  N_6 
REMARK    3  A    between atoms: N_6  and  C_7 
REMARK    4  A    between atoms: C_10  and  C_14 
REMARK       I    between atoms: C_14  and  N_16 
ROOT
HETATM    1  C   UNL     1     -41.978 -49.468  11.636  1.00  0.00     0.051 A 
HETATM    2  C   UNL     1     -42.919 -48.624  12.216  1.00  0.00     0.033 A 
HETATM    3  C   UNL     1     -42.843 -47.253  11.977  1.00  0.00     0.037 A 
HETATM    4  C   UNL     1     -41.861 -46.769  11.114  1.00  0.00     0.100 A 
HETATM    5  N   UNL     1     -40.928 -47.570  10.543  1.00  0.00    -0.359 N 
ATOM      6  HN  UNL     1     -40.201 -47.193   9.933  1.00  0.00     0.165 HD
HETATM    7  C   UNL     1     -41.005 -48.894  10.820  1.00  0.00     0.118 A 
ENDROOT
BRANCH   1   8
HETATM    8  N   UNL     1     -42.044 -50.850  11.903  1.00  0.00    -0.308 N 
HETATM    9  C   UNL     1     -41.410 -51.417  12.989  1.00  0.00     0.321 C 
HETATM   10  N   UNL     1     -41.682 -52.758  13.069  1.00  0.00    -0.338 N 
HETATM   11  O   UNL     1     -40.782 -50.805  13.842  1.00  0.00    -0.247 OA
HETATM   12  H   UNL     1     -41.715 -53.266  12.197  1.00  0.00     0.164 HD
HETATM   13  H   UNL     1     -42.881 -51.337  11.620  1.00  0.00     0.170 HD
BRANCH  10  14
HETATM   14  C   UNL     1     -41.373 -53.502  14.274  1.00  0.00     0.086 C 
HETATM   15  C   UNL     1     -40.023 -54.208  14.189  1.00  0.00     0.032 C 
BRANCH  14  16
HETATM   16  C   UNL     1     -42.497 -54.479  14.505  1.00  0.00     0.008 A 
HETATM   17  C   UNL     1     -43.454 -54.262  15.658  1.00  0.00     0.007 A 
HETATM   18  C   UNL     1     -42.477 -55.399  15.701  1.00  0.00     0.007 A 
ENDBRANCH  14  16
ENDBRANCH  10  14
ENDBRANCH   1   8
BRANCH   4  19
HETATM   19  C   UNL     1     -41.828 -45.297  10.835  1.00  0.00     0.270 C 
HETATM   20  O   UNL     1     -42.494 -44.902   9.872  1.00  0.00    -0.266 OA
HETATM   21  N   UNL     1     -41.045 -44.419  11.601  1.00  0.00    -0.347 N 
HETATM   22  C   UNL     1     -39.989 -44.810  12.535  1.00  0.00     0.126 C 
HETATM   23  C   UNL     1     -40.965 -43.028  11.142  1.00  0.00     0.126 C 
HETATM   24  C   UNL     1     -39.936 -43.870  13.736  1.00  0.00     0.020 C 
HETATM   25  C   UNL     1     -39.785 -42.420  13.289  1.00  0.00     0.003 C 
HETATM   26  C   UNL     1     -40.892 -42.046  12.308  1.00  0.00     0.020 C 
ENDBRANCH   4  19
TORSDOF 4
ENDMDL
MODEL 4
REMARK VINA RESULT:      -5.9      3.052      9.419
REMARK  4 active torsions:
REMARK  status: ('A' for Active; 'I' for Inactive)
REMARK    1  A    between atoms: C_2  and  N_3 
REMARK    2  A    between atoms: C_2  and  C_22 
REMARK       I    between atoms: N_3  and  C_4 
REMARK       I    between atoms: C_4  and  N_6 
REMARK    3  A    between atoms: N_6  and  C_7 
REMARK    4  A    between atoms: C_10  and  C_14 
REMARK       I    between atoms: C_14  and  N_16 
ROOT
HETATM    1  C   UNL     1     -40.253 -52.013  12.401  1.00  0.00     0.051 A 
HETATM    2  C   UNL     1     -40.945 -53.212  12.267  1.00  0.00     0.033 A 
HETATM    3  C   UNL     1     -40.738 -54.225  13.201  1.00  0.00     0.037 A 
HETATM    4  C   UNL     1     -39.888 -53.989  14.279  1.00  0.00     0.100 A 
HETATM    5  N   UNL     1     -39.196 -52.833  14.428  1.00  0.00    -0.359 N 
ATOM      6  HN  UNL     1     -38.558 -52.689  15.211  1.00  0.00     0.165 HD
HETATM    7  C   UNL     1     -39.390 -51.878  13.486  1.00  0.00     0.118 A 
ENDROOT
BRANCH   1   8
HETATM    8  N   UNL     1     -40.447 -51.002  11.439  1.00  0.00    -0.308 N 
HETATM    9  C   UNL     1     -41.316 -49.950  11.647  1.00  0.00     0.321 C 
HETATM   10  N   UNL     1     -41.275 -49.068  10.599  1.00  0.00    -0.338 N 
HETATM   11  O   UNL     1     -41.959 -49.753  12.668  1.00  0.00    -0.247 OA
HETATM   12  H   UNL     1     -41.195 -49.465   9.675  1.00  0.00     0.164 HD
HETATM   13  H   UNL     1     -39.665 -50.772  10.844  1.00  0.00     0.170 HD
BRANCH  10  14
HETATM   14  C   UNL     1     -41.873 -47.752  10.720  1.00  0.00     0.086 C 
HETATM   15  C   UNL     1     -42.811 -47.433   9.559  1.00  0.00     0.032 C 
BRANCH  14  16
HETATM   16  C   UNL     1     -40.751 -46.751  10.819  1.00  0.00     0.008 A 
HETATM   17  C   UNL     1     -40.724 -45.765  11.967  1.00  0.00     0.007 A 
HETATM   18  C   UNL     1     -41.010 -45.284  10.575  1.00  0.00     0.007 A 
ENDBRANCH  14  16
ENDBRANCH  10  14
ENDBRANCH   1   8
BRANCH   4  19
HETATM   19  C   UNL     1     -39.716 -55.076  15.296  1.00  0.00     0.270 C 
HETATM   20  O   UNL     1     -38.644 -55.690  15.274  1.00  0.00    -0.266 OA
HETATM   21  N   UNL     1     -40.739 -55.410  16.199  1.00  0.00    -0.347 N 
HETATM   22  C   UNL     1     -42.135 -54.981  16.104  1.00  0.00     0.126 C 
HETATM   23  C   UNL     1     -40.522 -56.591  17.042  1.00  0.00     0.126 C 
HETATM   24  C   UNL     1     -42.738 -54.750  17.487  1.00  0.00     0.020 C 
HETATM   25  C   UNL     1     -42.586 -55.988  18.363  1.00  0.00     0.003 C 
HETATM   26  C   UNL     1     -41.124 -56.416  18.434  1.00  0.00     0.020 C 
ENDBRANCH   4  19
TORSDOF 4
ENDMDL
MODEL 5
REMARK VINA RESULT:      -5.7      3.195      9.454
REMARK  4 active torsions:
REMARK  status: ('A' for Active; 'I' for Inactive)
REMARK    1  A    between atoms: C_2  and  N_3 
REMARK    2  A    between atoms: C_2  and  C_22 
REMARK       I    between atoms: N_3  and  C_4 
REMARK       I    between atoms: C_4  and  N_6 
REMARK    3  A    between atoms: N_6  and  C_7 
REMARK    4  A    between atoms: C_10  and  C_14 
REMARK       I    between atoms: C_14  and  N_16 
ROOT
HETATM    1  C   UNL     1     -43.501 -51.577  13.499  1.00  0.00     0.051 A 
HETATM    2  C   UNL     1     -43.155 -52.716  12.779  1.00  0.00     0.033 A 
HETATM    3  C   UNL     1     -42.743 -53.856  13.467  1.00  0.00     0.037 A 
HETATM    4  C   UNL     1     -42.745 -53.845  14.860  1.00  0.00     0.100 A 
HETATM    5  N   UNL     1     -43.069 -52.745  15.584  1.00  0.00    -0.359 N 
ATOM      6  HN  UNL     1     -43.040 -52.749  16.604  1.00  0.00     0.165 HD
HETATM    7  C   UNL     1     -43.433 -51.641  14.889  1.00  0.00     0.118 A 
ENDROOT
BRANCH   1   8
HETATM    8  N   UNL     1     -43.892 -50.420  12.797  1.00  0.00    -0.308 N 
HETATM    9  C   UNL     1     -42.974 -49.581  12.199  1.00  0.00     0.321 C 
HETATM   10  N   UNL     1     -43.604 -48.568  11.523  1.00  0.00    -0.338 N 
HETATM   11  O   UNL     1     -41.765 -49.761  12.167  1.00  0.00    -0.247 OA
HETATM   12  H   UNL     1     -44.422 -48.171  11.962  1.00  0.00     0.164 HD
HETATM   13  H   UNL     1     -44.788 -50.439  12.333  1.00  0.00     0.170 HD
BRANCH  10  14
HETATM   14  C   UNL     1     -42.872 -47.742  10.584  1.00  0.00     0.086 C 
HETATM   15  C   UNL     1     -42.247 -46.521  11.252  1.00  0.00     0.032 C 
BRANCH  14  16
HETATM   16  C   UNL     1     -43.826 -47.347   9.486  1.00  0.00     0.008 A 
HETATM   17  C   UNL     1     -43.502 -47.697   8.049  1.00  0.00     0.007 A 
HETATM   18  C   UNL     1     -43.454 -46.267   8.500  1.00  0.00     0.007 A 
ENDBRANCH  14  16
ENDBRANCH  10  14
ENDBRANCH   1   8
BRANCH   4  19
HETATM   19  C   UNL     1     -42.342 -55.097  15.579  1.00  0.00     0.270 C 
HETATM   20  O   UNL     1     -43.184 -55.999  15.631  1.00  0.00    -0.266 OA
HETATM   21  N   UNL     1     -41.088 -55.221  16.198  1.00  0.00    -0.347 N 
HETATM   22  C   UNL     1     -40.160 -54.124  16.474  1.00  0.00     0.126 C 
HETATM   23  C   UNL     1     -40.861 -56.425  17.004  1.00  0.00     0.126 C 
HETATM   24  C   UNL     1     -38.709 -54.578  16.333  1.00  0.00     0.020 C 
HETATM   25  C   UNL     1     -38.428 -55.790  17.213  1.00  0.00     0.003 C 
HETATM   26  C   UNL     1     -39.417 -56.911  16.911  1.00  0.00     0.020 C 
ENDBRANCH   4  19
TORSDOF 4
ENDMDL
MODEL 6
REMARK VINA RESULT:      -5.6      1.647      8.737
REMARK  4 active torsions:
REMARK  status: ('A' for Active; 'I' for Inactive)
REMARK    1  A    between atoms: C_2  and  N_3 
REMARK    2  A    between atoms: C_2  and  C_22 
REMARK       I    between atoms: N_3  and  C_4 
REMARK       I    between atoms: C_4  and  N_6 
REMARK    3  A    between atoms: N_6  and  C_7 
REMARK    4  A    between atoms: C_10  and  C_14 
REMARK       I    between atoms: C_14  and  N_16 
ROOT
HETATM    1  C   UNL     1     -40.336 -47.815  11.489  1.00  0.00     0.051 A 
HETATM    2  C   UNL     1     -39.674 -48.156  12.663  1.00  0.00     0.033 A 
HETATM    3  C   UNL     1     -39.684 -49.483  13.090  1.00  0.00     0.037 A 
HETATM    4  C   UNL     1     -40.308 -50.444  12.296  1.00  0.00     0.100 A 
HETATM    5  N   UNL     1     -40.967 -50.136  11.153  1.00  0.00    -0.359 N 
ATOM      6  HN  UNL     1     -41.440 -50.851  10.599  1.00  0.00     0.165 HD
HETATM    7  C   UNL     1     -40.970 -48.833  10.780  1.00  0.00     0.118 A 
ENDROOT
BRANCH   1   8
HETATM    8  N   UNL     1     -40.344 -46.467  11.077  1.00  0.00    -0.308 N 
HETATM    9  C   UNL     1     -41.207 -45.540  11.624  1.00  0.00     0.321 C 
HETATM   10  N   UNL     1     -40.973 -44.291  11.109  1.00  0.00    -0.338 N 
HETATM   11  O   UNL     1     -42.001 -45.757  12.528  1.00  0.00    -0.247 OA
HETATM   12  H   UNL     1     -40.754 -44.241  10.125  1.00  0.00     0.164 HD
HETATM   13  H   UNL     1     -39.470 -46.074  10.762  1.00  0.00     0.170 HD
BRANCH  10  14
HETATM   14  C   UNL     1     -41.547 -43.117  11.736  1.00  0.00     0.086 C 
HETATM   15  C   UNL     1     -42.811 -42.641  11.026  1.00  0.00     0.032 C 
BRANCH  14  16
HETATM   16  C   UNL     1     -40.485 -42.047  11.754  1.00  0.00     0.008 A 
HETATM   17  C   UNL     1     -40.057 -41.438  13.072  1.00  0.00     0.007 A 
HETATM   18  C   UNL     1     -40.842 -40.620  12.090  1.00  0.00     0.007 A 
ENDBRANCH  14  16
ENDBRANCH  10  14
ENDBRANCH   1   8
BRANCH   4  19
HETATM   19  C   UNL     1     -40.267 -51.872  12.751  1.00  0.00     0.270 C 
HETATM   20  O   UNL     1     -39.147 -52.374  12.893  1.00  0.00    -0.266 OA
HETATM   21  N   UNL     1     -41.441 -52.613  12.962  1.00  0.00    -0.347 N 
HETATM   22  C   UNL     1     -42.782 -52.231  12.521  1.00  0.00     0.126 C 
HETATM   23  C   UNL     1     -41.281 -54.042  13.252  1.00  0.00     0.126 C 
HETATM   24  C   UNL     1     -43.842 -52.679  13.524  1.00  0.00     0.020 C 
HETATM   25  C   UNL     1     -43.742 -54.176  13.793  1.00  0.00     0.003 C 
HETATM   26  C   UNL     1     -42.330 -54.545  14.239  1.00  0.00     0.020 C 
ENDBRANCH   4  19
TORSDOF 4
ENDMDL
MODEL 7
REMARK VINA RESULT:      -5.6      3.051      9.742
REMARK  4 active torsions:
REMARK  status: ('A' for Active; 'I' for Inactive)
REMARK    1  A    between atoms: C_2  and  N_3 
REMARK    2  A    between atoms: C_2  and  C_22 
REMARK       I    between atoms: N_3  and  C_4 
REMARK       I    between atoms: C_4  and  N_6 
REMARK    3  A    between atoms: N_6  and  C_7 
REMARK    4  A    between atoms: C_10  and  C_14 
REMARK       I    between atoms: C_14  and  N_16 
ROOT
HETATM    1  C   UNL     1     -42.081 -52.149  12.710  1.00  0.00     0.051 A 
HETATM    2  C   UNL     1     -41.128 -53.155  12.587  1.00  0.00     0.033 A 
HETATM    3  C   UNL     1     -41.090 -54.176  13.534  1.00  0.00     0.037 A 
HETATM    4  C   UNL     1     -42.047 -54.196  14.547  1.00  0.00     0.100 A 
HETATM    5  N   UNL     1     -42.981 -53.224  14.694  1.00  0.00    -0.359 N 
ATOM      6  HN  UNL     1     -43.657 -53.244  15.457  1.00  0.00     0.165 HD
HETATM    7  C   UNL     1     -42.972 -52.225  13.778  1.00  0.00     0.118 A 
ENDROOT
BRANCH   1   8
HETATM    8  N   UNL     1     -42.098 -51.105  11.764  1.00  0.00    -0.308 N 
HETATM    9  C   UNL     1     -42.243 -49.784  12.134  1.00  0.00     0.321 C 
HETATM   10  N   UNL     1     -42.158 -48.958  11.044  1.00  0.00    -0.338 N 
HETATM   11  O   UNL     1     -42.323 -49.375  13.284  1.00  0.00    -0.247 OA
HETATM   12  H   UNL     1     -42.596 -49.283  10.194  1.00  0.00     0.164 HD
HETATM   13  H   UNL     1     -41.558 -51.235  10.921  1.00  0.00     0.170 HD
BRANCH  10  14
HETATM   14  C   UNL     1     -41.988 -47.529  11.214  1.00  0.00     0.086 C 
HETATM   15  C   UNL     1     -42.869 -46.724  10.262  1.00  0.00     0.032 C 
BRANCH  14  16
HETATM   16  C   UNL     1     -40.527 -47.217  11.014  1.00  0.00     0.008 A 
HETATM   17  C   UNL     1     -39.795 -46.367  12.031  1.00  0.00     0.007 A 
HETATM   18  C   UNL     1     -40.083 -45.818  10.665  1.00  0.00     0.007 A 
ENDBRANCH  14  16
ENDBRANCH  10  14
ENDBRANCH   1   8
BRANCH   4  19
HETATM   19  C   UNL     1     -42.016 -55.330  15.528  1.00  0.00     0.270 C 
HETATM   20  O   UNL     1     -43.078 -55.935  15.706  1.00  0.00    -0.266 OA
HETATM   21  N   UNL     1     -40.850 -55.657  16.240  1.00  0.00    -0.347 N 
HETATM   22  C   UNL     1     -39.654 -54.823  16.348  1.00  0.00     0.126 C 
HETATM   23  C   UNL     1     -40.975 -56.679  17.284  1.00  0.00     0.126 C 
HETATM   24  C   UNL     1     -38.388 -55.674  16.395  1.00  0.00     0.020 C 
HETATM   25  C   UNL     1     -38.463 -56.703  17.518  1.00  0.00     0.003 C 
HETATM   26  C   UNL     1     -39.725 -57.549  17.385  1.00  0.00     0.020 C 
ENDBRANCH   4  19
TORSDOF 4
ENDMDL
MODEL 8
REMARK VINA RESULT:      -5.5      4.432      6.684
REMARK  4 active torsions:
REMARK  status: ('A' for Active; 'I' for Inactive)
REMARK    1  A    between atoms: C_2  and  N_3 
REMARK    2  A    between atoms: C_2  and  C_22 
REMARK       I    between atoms: N_3  and  C_4 
REMARK       I    between atoms: C_4  and  N_6 
REMARK    3  A    between atoms: N_6  and  C_7 
REMARK    4  A    between atoms: C_10  and  C_14 
REMARK       I    between atoms: C_14  and  N_16 
ROOT
HETATM    1  C   UNL     1     -40.762 -47.983  12.127  1.00  0.00     0.051 A 
HETATM    2  C   UNL     1     -40.968 -48.799  13.235  1.00  0.00     0.033 A 
HETATM    3  C   UNL     1     -40.261 -48.544  14.409  1.00  0.00     0.037 A 
HETATM    4  C   UNL     1     -39.411 -47.442  14.462  1.00  0.00     0.100 A 
HETATM    5  N   UNL     1     -39.186 -46.636  13.395  1.00  0.00    -0.359 N 
ATOM      6  HN  UNL     1     -38.540 -45.848  13.447  1.00  0.00     0.165 HD
HETATM    7  C   UNL     1     -39.860 -46.928  12.256  1.00  0.00     0.118 A 
ENDROOT
BRANCH   1   8
HETATM    8  N   UNL     1     -41.459 -48.261  10.935  1.00  0.00    -0.308 N 
HETATM    9  C   UNL     1     -42.672 -47.672  10.642  1.00  0.00     0.321 C 
HETATM   10  N   UNL     1     -43.112 -48.049   9.400  1.00  0.00    -0.338 N 
HETATM   11  O   UNL     1     -43.239 -46.837  11.332  1.00  0.00    -0.247 OA
HETATM   12  H   UNL     1     -42.954 -49.011   9.137  1.00  0.00     0.164 HD
HETATM   13  H   UNL     1     -40.910 -48.490  10.120  1.00  0.00     0.170 HD
BRANCH  10  14
HETATM   14  C   UNL     1     -44.202 -47.342   8.759  1.00  0.00     0.086 C 
HETATM   15  C   UNL     1     -44.011 -45.828   8.795  1.00  0.00     0.032 C 
BRANCH  14  16
HETATM   16  C   UNL     1     -45.479 -47.757   9.443  1.00  0.00     0.008 A 
HETATM   17  C   UNL     1     -46.557 -48.469   8.654  1.00  0.00     0.007 A 
HETATM   18  C   UNL     1     -46.780 -47.062   9.124  1.00  0.00     0.007 A 
ENDBRANCH  14  16
ENDBRANCH  10  14
ENDBRANCH   1   8
BRANCH   4  19
HETATM   19  C   UNL     1     -38.697 -47.160  15.750  1.00  0.00     0.270 C 
HETATM   20  O   UNL     1     -39.106 -46.199  16.409  1.00  0.00    -0.266 OA
HETATM   21  N   UNL     1     -37.593 -47.923  16.163  1.00  0.00    -0.347 N 
HETATM   22  C   UNL     1     -36.838 -48.855  15.325  1.00  0.00     0.126 C 
HETATM   23  C   UNL     1     -36.876 -47.462  17.357  1.00  0.00     0.126 C 
HETATM   24  C   UNL     1     -36.349 -50.054  16.133  1.00  0.00     0.020 C 
HETATM   25  C   UNL     1     -35.542 -49.604  17.346  1.00  0.00     0.003 C 
HETATM   26  C   UNL     1     -36.351 -48.626  18.193  1.00  0.00     0.020 C 
ENDBRANCH   4  19
TORSDOF 4
ENDMDL
MODEL 9
REMARK VINA RESULT:      -5.4     18.238     20.522
REMARK  4 active torsions:
REMARK  status: ('A' for Active; 'I' for Inactive)
REMARK    1  A    between atoms: C_2  and  N_3 
REMARK    2  A    between atoms: C_2  and  C_22 
REMARK       I    between atoms: N_3  and  C_4 
REMARK       I    between atoms: C_4  and  N_6 
REMARK    3  A    between atoms: N_6  and  C_7 
REMARK    4  A    between atoms: C_10  and  C_14 
REMARK       I    between atoms: C_14  and  N_16 
ROOT
HETATM    1  C   UNL     1     -28.219 -44.986  -2.128  1.00  0.00     0.051 A 
HETATM    2  C   UNL     1     -28.272 -45.091  -3.514  1.00  0.00     0.033 A 
HETATM    3  C   UNL     1     -29.321 -45.794  -4.104  1.00  0.00     0.037 A 
HETATM    4  C   UNL     1     -30.322 -46.324  -3.292  1.00  0.00     0.100 A 
HETATM    5  N   UNL     1     -30.289 -46.243  -1.939  1.00  0.00    -0.359 N 
ATOM      6  HN  UNL     1     -31.019 -46.660  -1.361  1.00  0.00     0.165 HD
HETATM    7  C   UNL     1     -29.240 -45.583  -1.391  1.00  0.00     0.118 A 
ENDROOT
BRANCH   1   8
HETATM    8  N   UNL     1     -27.142 -44.296  -1.536  1.00  0.00    -0.308 N 
HETATM    9  C   UNL     1     -27.212 -42.951  -1.235  1.00  0.00     0.321 C 
HETATM   10  N   UNL     1     -26.069 -42.532  -0.605  1.00  0.00    -0.338 N 
HETATM   11  O   UNL     1     -28.193 -42.239  -1.395  1.00  0.00    -0.247 OA
HETATM   12  H   UNL     1     -25.199 -42.917  -0.942  1.00  0.00     0.164 HD
HETATM   13  H   UNL     1     -26.537 -44.820  -0.921  1.00  0.00     0.170 HD
BRANCH  10  14
HETATM   14  C   UNL     1     -26.026 -41.246   0.063  1.00  0.00     0.086 C 
HETATM   15  C   UNL     1     -25.248 -40.204  -0.736  1.00  0.00     0.032 C 
BRANCH  14  16
HETATM   16  C   UNL     1     -25.423 -41.463   1.427  1.00  0.00     0.008 A 
HETATM   17  C   UNL     1     -26.260 -41.219   2.665  1.00  0.00     0.007 A 
HETATM   18  C   UNL     1     -25.131 -40.290   2.330  1.00  0.00     0.007 A 
ENDBRANCH  14  16
ENDBRANCH  10  14
ENDBRANCH   1   8
BRANCH   4  19
HETATM   19  C   UNL     1     -31.464 -47.036  -3.951  1.00  0.00     0.270 C 
HETATM   20  O   UNL     1     -31.260 -48.204  -4.298  1.00  0.00    -0.266 OA
HETATM   21  N   UNL     1     -32.688 -46.394  -4.201  1.00  0.00    -0.347 N 
HETATM   22  C   UNL     1     -32.925 -44.952  -4.131  1.00  0.00     0.126 C 
HETATM   23  C   UNL     1     -33.678 -47.135  -4.991  1.00  0.00     0.126 C 
HETATM   24  C   UNL     1     -34.331 -44.647  -3.619  1.00  0.00     0.020 C 
HETATM   25  C   UNL     1     -35.385 -45.353  -4.466  1.00  0.00     0.003 C 
HETATM   26  C   UNL     1     -35.104 -46.851  -4.530  1.00  0.00     0.020 C 
ENDBRANCH   4  19
TORSDOF 4
ENDMDL
