MODEL 1
REMARK VINA RESULT:      -5.7      0.000      0.000
REMARK  4 active torsions:
REMARK  status: ('A' for Active; 'I' for Inactive)
REMARK    1  A    between atoms: C_2  and  C_3 
REMARK    2  A    between atoms: C_2  and  S_19 
REMARK       I    between atoms: C_3  and  N_5 
REMARK    3  A    between atoms: N_5  and  C_6 
REMARK    4  A    between atoms: C_9  and  N_13 
ROOT
HETATM    1  C   UNL     1     -41.446 -50.586  12.450  1.00  0.00     0.050 A 
HETATM    2  C   UNL     1     -42.476 -49.847  13.005  1.00  0.00     0.035 A 
HETATM    3  C   UNL     1     -42.939 -48.703  12.357  1.00  0.00     0.051 A 
HETATM    4  C   UNL     1     -42.391 -48.302  11.140  1.00  0.00     0.103 A 
HETATM    5  N   UNL     1     -41.324 -48.963  10.638  1.00  0.00    -0.350 N 
ATOM      6  HN  UNL     1     -40.869 -48.645   9.782  1.00  0.00     0.166 HD
HETATM    7  C   UNL     1     -40.870 -50.062  11.299  1.00  0.00     0.119 A 
ENDROOT
BRANCH   1   8
HETATM    8  N   UNL     1     -40.987 -51.805  12.999  1.00  0.00    -0.325 N 
HETATM    9  C   UNL     1     -41.754 -52.954  13.129  1.00  0.00     0.240 C 
HETATM   10  O   UNL     1     -42.922 -53.074  12.770  1.00  0.00    -0.272 OA
HETATM   11  H   UNL     1     -40.000 -51.850  13.229  1.00  0.00     0.169 HD
BRANCH   9  12
HETATM   12  C   UNL     1     -41.039 -54.131  13.747  1.00  0.00     0.196 C 
HETATM   13  C   UNL     1     -41.938 -54.848  14.750  1.00  0.00     0.036 C 
BRANCH  12  14
HETATM   14  S   UNL     1     -39.548 -53.512  14.511  1.00  0.00     0.153 S 
HETATM   15  O   UNL     1     -38.642 -53.132  13.442  1.00  0.00    -0.227 OA
HETATM   16  O   UNL     1     -39.937 -52.518  15.496  1.00  0.00    -0.227 OA
HETATM   17  C   UNL     1     -38.812 -54.890  15.369  1.00  0.00     0.162 C 
ENDBRANCH  12  14
ENDBRANCH   9  12
ENDBRANCH   1   8
BRANCH   4  18
HETATM   18  N   UNL     1     -42.886 -47.178  10.489  1.00  0.00    -0.363 N 
HETATM   19  C   UNL     1     -42.096 -45.940  10.595  1.00  0.00     0.150 C 
HETATM   20  C   UNL     1     -43.006 -44.747  10.226  1.00  0.00     0.187 C 
HETATM   21  O   UNL     1     -43.593 -44.902   8.921  1.00  0.00    -0.388 OA
HETATM   22  C   UNL     1     -44.347 -46.123   8.847  1.00  0.00     0.187 C 
HETATM   23  C   UNL     1     -43.458 -47.340   9.139  1.00  0.00     0.150 C 
ENDBRANCH   4  18
TORSDOF 4
ENDMDL
MODEL 2
REMARK VINA RESULT:      -5.6      3.348      7.820
REMARK  4 active torsions:
REMARK  status: ('A' for Active; 'I' for Inactive)
REMARK    1  A    between atoms: C_2  and  C_3 
REMARK    2  A    between atoms: C_2  and  S_19 
REMARK       I    between atoms: C_3  and  N_5 
REMARK    3  A    between atoms: N_5  and  C_6 
REMARK    4  A    between atoms: C_9  and  N_13 
ROOT
HETATM    1  C   UNL     1     -42.184 -49.327  12.246  1.00  0.00     0.050 A 
HETATM    2  C   UNL     1     -43.397 -49.397  12.908  1.00  0.00     0.035 A 
HETATM    3  C   UNL     1     -43.865 -50.623  13.377  1.00  0.00     0.051 A 
HETATM    4  C   UNL     1     -43.113 -51.784  13.205  1.00  0.00     0.103 A 
HETATM    5  N   UNL     1     -41.974 -51.742  12.479  1.00  0.00    -0.350 N 
ATOM      6  HN  UNL     1     -41.445 -52.593  12.289  1.00  0.00     0.166 HD
HETATM    7  C   UNL     1     -41.548 -50.539  12.008  1.00  0.00     0.119 A 
ENDROOT
BRANCH   1   8
HETATM    8  N   UNL     1     -41.602 -48.109  11.825  1.00  0.00    -0.325 N 
HETATM    9  C   UNL     1     -41.875 -47.475  10.621  1.00  0.00     0.240 C 
HETATM   10  O   UNL     1     -42.669 -47.870   9.772  1.00  0.00    -0.272 OA
HETATM   11  H   UNL     1     -41.010 -47.638  12.501  1.00  0.00     0.169 HD
BRANCH   9  12
HETATM   12  C   UNL     1     -41.125 -46.184  10.398  1.00  0.00     0.196 C 
HETATM   13  C   UNL     1     -39.745 -46.238  11.048  1.00  0.00     0.036 C 
BRANCH  12  14
HETATM   14  S   UNL     1     -42.124 -44.860  11.061  1.00  0.00     0.153 S 
HETATM   15  O   UNL     1     -43.082 -44.490  10.036  1.00  0.00    -0.227 OA
HETATM   16  O   UNL     1     -42.607 -45.283  12.364  1.00  0.00    -0.227 OA
HETATM   17  C   UNL     1     -41.030 -43.472  11.293  1.00  0.00     0.162 C 
ENDBRANCH  12  14
ENDBRANCH   9  12
ENDBRANCH   1   8
BRANCH   4  18
HETATM   18  N   UNL     1     -43.577 -52.995  13.709  1.00  0.00    -0.363 N 
HETATM   19  C   UNL     1     -44.600 -53.700  12.918  1.00  0.00     0.150 C 
HETATM   20  C   UNL     1     -45.298 -54.732  13.833  1.00  0.00     0.187 C 
HETATM   21  O   UNL     1     -44.357 -55.642  14.433  1.00  0.00    -0.388 OA
HETATM   22  C   UNL     1     -43.367 -54.922  15.186  1.00  0.00     0.187 C 
HETATM   23  C   UNL     1     -42.602 -53.935  14.293  1.00  0.00     0.150 C 
ENDBRANCH   4  18
TORSDOF 4
ENDMDL
MODEL 3
REMARK VINA RESULT:      -5.5      2.914      3.234
REMARK  4 active torsions:
REMARK  status: ('A' for Active; 'I' for Inactive)
REMARK    1  A    between atoms: C_2  and  C_3 
REMARK    2  A    between atoms: C_2  and  S_19 
REMARK       I    between atoms: C_3  and  N_5 
REMARK    3  A    between atoms: N_5  and  C_6 
REMARK    4  A    between atoms: C_9  and  N_13 
ROOT
HETATM    1  C   UNL     1     -42.844 -51.082  13.413  1.00  0.00     0.050 A 
HETATM    2  C   UNL     1     -43.272 -49.871  13.930  1.00  0.00     0.035 A 
HETATM    3  C   UNL     1     -43.008 -48.689  13.241  1.00  0.00     0.051 A 
HETATM    4  C   UNL     1     -42.333 -48.710  12.022  1.00  0.00     0.103 A 
HETATM    5  N   UNL     1     -41.829 -49.875  11.557  1.00  0.00    -0.350 N 
ATOM      6  HN  UNL     1     -41.277 -49.899  10.700  1.00  0.00     0.166 HD
HETATM    7  C   UNL     1     -42.076 -51.015  12.257  1.00  0.00     0.119 A 
ENDROOT
BRANCH   1   8
HETATM    8  N   UNL     1     -43.154 -52.328  14.005  1.00  0.00    -0.325 N 
HETATM    9  C   UNL     1     -44.302 -53.064  13.746  1.00  0.00     0.240 C 
HETATM   10  O   UNL     1     -45.189 -52.745  12.958  1.00  0.00    -0.272 OA
HETATM   11  H   UNL     1     -42.435 -52.737  14.592  1.00  0.00     0.169 HD
BRANCH   9  12
HETATM   12  C   UNL     1     -44.408 -54.365  14.503  1.00  0.00     0.196 C 
HETATM   13  C   UNL     1     -45.475 -55.267  13.888  1.00  0.00     0.036 C 
BRANCH  12  14
HETATM   14  S   UNL     1     -44.770 -53.968  16.206  1.00  0.00     0.153 S 
HETATM   15  O   UNL     1     -44.753 -52.522  16.323  1.00  0.00    -0.227 OA
HETATM   16  O   UNL     1     -45.969 -54.696  16.583  1.00  0.00    -0.227 OA
HETATM   17  C   UNL     1     -43.408 -54.596  17.170  1.00  0.00     0.162 C 
ENDBRANCH  12  14
ENDBRANCH   9  12
ENDBRANCH   1   8
BRANCH   4  18
HETATM   18  N   UNL     1     -42.106 -47.525  11.330  1.00  0.00    -0.363 N 
HETATM   19  C   UNL     1     -40.704 -47.112  11.150  1.00  0.00     0.150 C 
HETATM   20  C   UNL     1     -40.679 -45.609  10.796  1.00  0.00     0.187 C 
HETATM   21  O   UNL     1     -41.481 -45.316   9.636  1.00  0.00    -0.388 OA
HETATM   22  C   UNL     1     -42.839 -45.741   9.839  1.00  0.00     0.187 C 
HETATM   23  C   UNL     1     -42.910 -47.248  10.125  1.00  0.00     0.150 C 
ENDBRANCH   4  18
TORSDOF 4
ENDMDL
MODEL 4
REMARK VINA RESULT:      -5.3      3.466      7.689
REMARK  4 active torsions:
REMARK  status: ('A' for Active; 'I' for Inactive)
REMARK    1  A    between atoms: C_2  and  C_3 
REMARK    2  A    between atoms: C_2  and  S_19 
REMARK       I    between atoms: C_3  and  N_5 
REMARK    3  A    between atoms: N_5  and  C_6 
REMARK    4  A    between atoms: C_9  and  N_13 
ROOT
HETATM    1  C   UNL     1     -41.816 -48.428  12.006  1.00  0.00     0.050 A 
HETATM    2  C   UNL     1     -42.875 -48.610  12.878  1.00  0.00     0.035 A 
HETATM    3  C   UNL     1     -43.288 -49.899  13.211  1.00  0.00     0.051 A 
HETATM    4  C   UNL     1     -42.632 -51.014  12.692  1.00  0.00     0.103 A 
HETATM    5  N   UNL     1     -41.658 -50.847  11.769  1.00  0.00    -0.350 N 
ATOM      6  HN  UNL     1     -41.211 -51.653  11.331  1.00  0.00     0.166 HD
HETATM    7  C   UNL     1     -41.287 -49.581  11.438  1.00  0.00     0.119 A 
ENDROOT
BRANCH   1   8
HETATM    8  N   UNL     1     -41.280 -47.157  11.694  1.00  0.00    -0.325 N 
HETATM    9  C   UNL     1     -40.301 -46.507  12.432  1.00  0.00     0.240 C 
HETATM   10  O   UNL     1     -39.754 -46.953  13.437  1.00  0.00    -0.272 OA
HETATM   11  H   UNL     1     -41.585 -46.745  10.819  1.00  0.00     0.169 HD
BRANCH   9  12
HETATM   12  C   UNL     1     -39.894 -45.156  11.897  1.00  0.00     0.196 C 
HETATM   13  C   UNL     1     -39.045 -44.401  12.917  1.00  0.00     0.036 C 
BRANCH  12  14
HETATM   14  S   UNL     1     -41.387 -44.269  11.485  1.00  0.00     0.153 S 
HETATM   15  O   UNL     1     -41.757 -44.652  10.135  1.00  0.00    -0.227 OA
HETATM   16  O   UNL     1     -42.336 -44.477  12.565  1.00  0.00    -0.227 OA
HETATM   17  C   UNL     1     -40.953 -42.541  11.447  1.00  0.00     0.162 C 
ENDBRANCH  12  14
ENDBRANCH   9  12
ENDBRANCH   1   8
BRANCH   4  18
HETATM   18  N   UNL     1     -43.034 -52.293  13.061  1.00  0.00    -0.363 N 
HETATM   19  C   UNL     1     -42.399 -52.876  14.255  1.00  0.00     0.150 C 
HETATM   20  C   UNL     1     -42.615 -54.406  14.224  1.00  0.00     0.187 C 
HETATM   21  O   UNL     1     -44.010 -54.750  14.132  1.00  0.00    -0.388 OA
HETATM   22  C   UNL     1     -44.602 -54.157  12.964  1.00  0.00     0.187 C 
HETATM   23  C   UNL     1     -44.469 -52.628  12.993  1.00  0.00     0.150 C 
ENDBRANCH   4  18
TORSDOF 4
ENDMDL
MODEL 5
REMARK VINA RESULT:      -5.2      2.664      3.761
REMARK  4 active torsions:
REMARK  status: ('A' for Active; 'I' for Inactive)
REMARK    1  A    between atoms: C_2  and  C_3 
REMARK    2  A    between atoms: C_2  and  S_19 
REMARK       I    between atoms: C_3  and  N_5 
REMARK    3  A    between atoms: N_5  and  C_6 
REMARK    4  A    between atoms: C_9  and  N_13 
ROOT
HETATM    1  C   UNL     1     -42.868 -51.320  13.053  1.00  0.00     0.050 A 
HETATM    2  C   UNL     1     -41.629 -51.184  12.450  1.00  0.00     0.035 A 
HETATM    3  C   UNL     1     -41.288 -49.988  11.823  1.00  0.00     0.051 A 
HETATM    4  C   UNL     1     -42.173 -48.911  11.812  1.00  0.00     0.103 A 
HETATM    5  N   UNL     1     -43.418 -49.065  12.316  1.00  0.00    -0.350 N 
ATOM      6  HN  UNL     1     -44.100 -48.309  12.259  1.00  0.00     0.166 HD
HETATM    7  C   UNL     1     -43.741 -50.250  12.901  1.00  0.00     0.119 A 
ENDROOT
BRANCH   1   8
HETATM    8  N   UNL     1     -43.249 -52.466  13.787  1.00  0.00    -0.325 N 
HETATM    9  C   UNL     1     -43.120 -52.606  15.162  1.00  0.00     0.240 C 
HETATM   10  O   UNL     1     -42.680 -51.751  15.926  1.00  0.00    -0.272 OA
HETATM   11  H   UNL     1     -43.727 -53.194  13.266  1.00  0.00     0.169 HD
BRANCH   9  12
HETATM   12  C   UNL     1     -43.598 -53.926  15.715  1.00  0.00     0.196 C 
HETATM   13  C   UNL     1     -42.873 -55.090  15.046  1.00  0.00     0.036 C 
BRANCH  12  14
HETATM   14  S   UNL     1     -45.364 -54.007  15.463  1.00  0.00     0.153 S 
HETATM   15  O   UNL     1     -45.934 -54.669  16.622  1.00  0.00    -0.227 OA
HETATM   16  O   UNL     1     -45.821 -52.673  15.114  1.00  0.00    -0.227 OA
HETATM   17  C   UNL     1     -45.624 -55.073  14.059  1.00  0.00     0.162 C 
ENDBRANCH  12  14
ENDBRANCH   9  12
ENDBRANCH   1   8
BRANCH   4  18
HETATM   18  N   UNL     1     -41.805 -47.712  11.212  1.00  0.00    -0.363 N 
HETATM   19  C   UNL     1     -42.887 -46.771  10.876  1.00  0.00     0.150 C 
HETATM   20  C   UNL     1     -42.350 -45.761   9.837  1.00  0.00     0.187 C 
HETATM   21  O   UNL     1     -41.171 -45.081  10.307  1.00  0.00    -0.388 OA
HETATM   22  C   UNL     1     -40.140 -46.026  10.637  1.00  0.00     0.187 C 
HETATM   23  C   UNL     1     -40.613 -47.006  11.720  1.00  0.00     0.150 C 
ENDBRANCH   4  18
TORSDOF 4
ENDMDL
MODEL 6
REMARK VINA RESULT:      -5.2      1.575      1.926
REMARK  4 active torsions:
REMARK  status: ('A' for Active; 'I' for Inactive)
REMARK    1  A    between atoms: C_2  and  C_3 
REMARK    2  A    between atoms: C_2  and  S_19 
REMARK       I    between atoms: C_3  and  N_5 
REMARK    3  A    between atoms: N_5  and  C_6 
REMARK    4  A    between atoms: C_9  and  N_13 
ROOT
HETATM    1  C   UNL     1     -40.532 -50.579  12.546  1.00  0.00     0.050 A 
HETATM    2  C   UNL     1     -40.339 -49.510  13.404  1.00  0.00     0.035 A 
HETATM    3  C   UNL     1     -40.477 -48.206  12.932  1.00  0.00     0.051 A 
HETATM    4  C   UNL     1     -40.830 -47.963  11.606  1.00  0.00     0.103 A 
HETATM    5  N   UNL     1     -40.930 -48.996  10.739  1.00  0.00    -0.350 N 
ATOM      6  HN  UNL     1     -41.124 -48.831   9.752  1.00  0.00     0.166 HD
HETATM    7  C   UNL     1     -40.765 -50.260  11.214  1.00  0.00     0.119 A 
ENDROOT
BRANCH   1   8
HETATM    8  N   UNL     1     -40.502 -51.927  12.972  1.00  0.00    -0.325 N 
HETATM    9  C   UNL     1     -41.606 -52.646  13.408  1.00  0.00     0.240 C 
HETATM   10  O   UNL     1     -42.756 -52.219  13.463  1.00  0.00    -0.272 OA
HETATM   11  H   UNL     1     -39.617 -52.412  12.864  1.00  0.00     0.169 HD
BRANCH   9  12
HETATM   12  C   UNL     1     -41.319 -54.071  13.813  1.00  0.00     0.196 C 
HETATM   13  C   UNL     1     -42.466 -54.643  14.640  1.00  0.00     0.036 C 
BRANCH  12  14
HETATM   14  S   UNL     1     -39.778 -54.073  14.716  1.00  0.00     0.153 S 
HETATM   15  O   UNL     1     -38.715 -54.295  13.753  1.00  0.00    -0.227 OA
HETATM   16  O   UNL     1     -39.749 -52.878  15.541  1.00  0.00    -0.227 OA
HETATM   17  C   UNL     1     -39.827 -55.494  15.791  1.00  0.00     0.162 C 
ENDBRANCH  12  14
ENDBRANCH   9  12
ENDBRANCH   1   8
BRANCH   4  18
HETATM   18  N   UNL     1     -40.998 -46.657  11.158  1.00  0.00    -0.363 N 
HETATM   19  C   UNL     1     -42.242 -45.970  11.545  1.00  0.00     0.150 C 
HETATM   20  C   UNL     1     -42.448 -44.764  10.602  1.00  0.00     0.187 C 
HETATM   21  O   UNL     1     -41.316 -43.874  10.612  1.00  0.00    -0.388 OA
HETATM   22  C   UNL     1     -40.118 -44.576  10.241  1.00  0.00     0.187 C 
HETATM   23  C   UNL     1     -39.841 -45.743  11.200  1.00  0.00     0.150 C 
ENDBRANCH   4  18
TORSDOF 4
ENDMDL
MODEL 7
REMARK VINA RESULT:      -5.1      2.923      3.721
REMARK  4 active torsions:
REMARK  status: ('A' for Active; 'I' for Inactive)
REMARK    1  A    between atoms: C_2  and  C_3 
REMARK    2  A    between atoms: C_2  and  S_19 
REMARK       I    between atoms: C_3  and  N_5 
REMARK    3  A    between atoms: N_5  and  C_6 
REMARK    4  A    between atoms: C_9  and  N_13 
ROOT
HETATM    1  C   UNL     1     -42.615 -50.530  13.179  1.00  0.00     0.050 A 
HETATM    2  C   UNL     1     -43.539 -49.645  12.651  1.00  0.00     0.035 A 
HETATM    3  C   UNL     1     -43.138 -48.367  12.268  1.00  0.00     0.051 A 
HETATM    4  C   UNL     1     -41.807 -47.972  12.389  1.00  0.00     0.103 A 
HETATM    5  N   UNL     1     -40.918 -48.794  12.989  1.00  0.00    -0.350 N 
ATOM      6  HN  UNL     1     -39.955 -48.497  13.145  1.00  0.00     0.166 HD
HETATM    7  C   UNL     1     -41.335 -50.029  13.380  1.00  0.00     0.119 A 
ENDROOT
BRANCH   1   8
HETATM    8  N   UNL     1     -42.926 -51.871  13.502  1.00  0.00    -0.325 N 
HETATM    9  C   UNL     1     -43.565 -52.278  14.666  1.00  0.00     0.240 C 
HETATM   10  O   UNL     1     -43.962 -51.532  15.557  1.00  0.00    -0.272 OA
HETATM   11  H   UNL     1     -42.739 -52.561  12.783  1.00  0.00     0.169 HD
BRANCH   9  12
HETATM   12  C   UNL     1     -43.785 -53.766  14.784  1.00  0.00     0.196 C 
HETATM   13  C   UNL     1     -42.533 -54.535  14.369  1.00  0.00     0.036 C 
BRANCH  12  14
HETATM   14  S   UNL     1     -45.192 -54.184  13.767  1.00  0.00     0.153 S 
HETATM   15  O   UNL     1     -44.916 -53.695  12.429  1.00  0.00    -0.227 OA
HETATM   16  O   UNL     1     -45.473 -55.596  13.962  1.00  0.00    -0.227 OA
HETATM   17  C   UNL     1     -46.568 -53.247  14.403  1.00  0.00     0.162 C 
ENDBRANCH  12  14
ENDBRANCH   9  12
ENDBRANCH   1   8
BRANCH   4  18
HETATM   18  N   UNL     1     -41.415 -46.705  11.971  1.00  0.00    -0.363 N 
HETATM   19  C   UNL     1     -40.855 -46.592  10.613  1.00  0.00     0.150 C 
HETATM   20  C   UNL     1     -40.077 -45.260  10.516  1.00  0.00     0.187 C 
HETATM   21  O   UNL     1     -40.901 -44.129  10.856  1.00  0.00    -0.388 OA
HETATM   22  C   UNL     1     -41.441 -44.276  12.179  1.00  0.00     0.187 C 
HETATM   23  C   UNL     1     -42.281 -45.556  12.296  1.00  0.00     0.150 C 
ENDBRANCH   4  18
TORSDOF 4
ENDMDL
MODEL 8
REMARK VINA RESULT:      -5.0      3.352      8.061
REMARK  4 active torsions:
REMARK  status: ('A' for Active; 'I' for Inactive)
REMARK    1  A    between atoms: C_2  and  C_3 
REMARK    2  A    between atoms: C_2  and  S_19 
REMARK       I    between atoms: C_3  and  N_5 
REMARK    3  A    between atoms: N_5  and  C_6 
REMARK    4  A    between atoms: C_9  and  N_13 
ROOT
HETATM    1  C   UNL     1     -40.180 -48.336  12.253  1.00  0.00     0.050 A 
HETATM    2  C   UNL     1     -41.173 -48.741  13.128  1.00  0.00     0.035 A 
HETATM    3  C   UNL     1     -41.214 -50.062  13.569  1.00  0.00     0.051 A 
HETATM    4  C   UNL     1     -40.251 -50.981  13.157  1.00  0.00     0.103 A 
HETATM    5  N   UNL     1     -39.334 -50.620  12.232  1.00  0.00    -0.350 N 
ATOM      6  HN  UNL     1     -38.662 -51.297  11.871  1.00  0.00     0.166 HD
HETATM    7  C   UNL     1     -39.327 -49.332  11.794  1.00  0.00     0.119 A 
ENDROOT
BRANCH   1   8
HETATM    8  N   UNL     1     -40.017 -46.995  11.835  1.00  0.00    -0.325 N 
HETATM    9  C   UNL     1     -40.788 -46.368  10.866  1.00  0.00     0.240 C 
HETATM   10  O   UNL     1     -41.722 -46.883  10.257  1.00  0.00    -0.272 OA
HETATM   11  H   UNL     1     -39.342 -46.443  12.353  1.00  0.00     0.169 HD
BRANCH   9  12
HETATM   12  C   UNL     1     -40.420 -44.930  10.593  1.00  0.00     0.196 C 
HETATM   13  C   UNL     1     -39.152 -44.844   9.747  1.00  0.00     0.036 C 
BRANCH  12  14
HETATM   14  S   UNL     1     -40.227 -44.116  12.170  1.00  0.00     0.153 S 
HETATM   15  O   UNL     1     -41.312 -44.566  13.022  1.00  0.00    -0.227 OA
HETATM   16  O   UNL     1     -38.856 -44.315  12.604  1.00  0.00    -0.227 OA
HETATM   17  C   UNL     1     -40.472 -42.375  11.871  1.00  0.00     0.162 C 
ENDBRANCH  12  14
ENDBRANCH   9  12
ENDBRANCH   1   8
BRANCH   4  18
HETATM   18  N   UNL     1     -40.286 -52.288  13.633  1.00  0.00    -0.363 N 
HETATM   19  C   UNL     1     -39.019 -52.854  14.127  1.00  0.00     0.150 C 
HETATM   20  C   UNL     1     -39.154 -54.393  14.165  1.00  0.00     0.187 C 
HETATM   21  O   UNL     1     -40.279 -54.815  14.958  1.00  0.00    -0.388 OA
HETATM   22  C   UNL     1     -41.496 -54.237  14.458  1.00  0.00     0.187 C 
HETATM   23  C   UNL     1     -41.426 -52.703  14.471  1.00  0.00     0.150 C 
ENDBRANCH   4  18
TORSDOF 4
ENDMDL
MODEL 9
REMARK VINA RESULT:      -5.0      3.220      4.602
REMARK  4 active torsions:
REMARK  status: ('A' for Active; 'I' for Inactive)
REMARK    1  A    between atoms: C_2  and  C_3 
REMARK    2  A    between atoms: C_2  and  S_19 
REMARK       I    between atoms: C_3  and  N_5 
REMARK    3  A    between atoms: N_5  and  C_6 
REMARK    4  A    between atoms: C_9  and  N_13 
ROOT
HETATM    1  C   UNL     1     -40.612 -46.621  11.098  1.00  0.00     0.050 A 
HETATM    2  C   UNL     1     -39.777 -45.525  11.230  1.00  0.00     0.035 A 
HETATM    3  C   UNL     1     -40.321 -44.250  11.372  1.00  0.00     0.051 A 
HETATM    4  C   UNL     1     -41.702 -44.064  11.404  1.00  0.00     0.103 A 
HETATM    5  N   UNL     1     -42.523 -45.114  11.182  1.00  0.00    -0.350 N 
ATOM      6  HN  UNL     1     -43.534 -44.986  11.138  1.00  0.00     0.166 HD
HETATM    7  C   UNL     1     -41.972 -46.347  11.020  1.00  0.00     0.119 A 
ENDROOT
BRANCH   1   8
HETATM    8  N   UNL     1     -40.138 -47.952  11.044  1.00  0.00    -0.325 N 
HETATM    9  C   UNL     1     -40.330 -48.903  12.037  1.00  0.00     0.240 C 
HETATM   10  O   UNL     1     -40.952 -48.725  13.081  1.00  0.00    -0.272 OA
HETATM   11  H   UNL     1     -39.702 -48.238  10.174  1.00  0.00     0.169 HD
BRANCH   9  12
HETATM   12  C   UNL     1     -39.726 -50.255  11.749  1.00  0.00     0.196 C 
HETATM   13  C   UNL     1     -40.669 -51.375  12.179  1.00  0.00     0.036 C 
BRANCH  12  14
HETATM   14  S   UNL     1     -38.160 -50.337  12.602  1.00  0.00     0.153 S 
HETATM   15  O   UNL     1     -37.291 -51.201  11.825  1.00  0.00    -0.227 OA
HETATM   16  O   UNL     1     -37.739 -48.975  12.882  1.00  0.00    -0.227 OA
HETATM   17  C   UNL     1     -38.474 -51.155  14.154  1.00  0.00     0.162 C 
ENDBRANCH  12  14
ENDBRANCH   9  12
ENDBRANCH   1   8
BRANCH   4  18
HETATM   18  N   UNL     1     -42.230 -42.789  11.580  1.00  0.00    -0.363 N 
HETATM   19  C   UNL     1     -41.282 -41.662  11.544  1.00  0.00     0.150 C 
HETATM   20  C   UNL     1     -41.957 -40.437  12.202  1.00  0.00     0.187 C 
HETATM   21  O   UNL     1     -43.210 -40.110  11.572  1.00  0.00    -0.388 OA
HETATM   22  C   UNL     1     -44.105 -41.233  11.614  1.00  0.00     0.187 C 
HETATM   23  C   UNL     1     -43.497 -42.452  10.906  1.00  0.00     0.150 C 
ENDBRANCH   4  18
TORSDOF 4
ENDMDL
