MODEL 1
REMARK VINA RESULT:      -6.3      0.000      0.000
REMARK  5 active torsions:
REMARK  status: ('A' for Active; 'I' for Inactive)
REMARK    1  A    between atoms: O_2  and  C_3 
REMARK    2  A    between atoms: N_8  and  C_9 
REMARK    3  A    between atoms: C_9  and  C_10 
REMARK    4  A    between atoms: C_10  and  O_11 
REMARK    5  A    between atoms: C_10  and  C_12 
ROOT
HETATM    1  C   UNL     1     -44.619 -54.088  12.757  1.00  0.00     0.189 C 
ENDROOT
BRANCH   1   2
HETATM    2  N   UNL     1     -43.273 -54.055  13.321  1.00  0.00    -0.253 N 
HETATM    3  C   UNL     1     -43.039 -54.665  14.549  1.00  0.00     0.262 A 
HETATM    4  C   UNL     1     -41.635 -54.656  15.025  1.00  0.00     0.080 A 
HETATM    5  O   UNL     1     -43.901 -55.198  15.241  1.00  0.00    -0.267 OA
HETATM    6  C   UNL     1     -40.673 -54.088  14.296  1.00  0.00     0.063 A 
HETATM    7  C   UNL     1     -41.100 -53.463  13.046  1.00  0.00     0.156 A 
HETATM    8  N   UNL     1     -42.297 -53.437  12.562  1.00  0.00    -0.275 N 
ATOM      9  HN  UNL     1     -42.510 -52.988  11.671  1.00  0.00     0.189 HD
BRANCH   7  10
HETATM   10  O   UNL     1     -40.030 -52.882  12.453  1.00  0.00    -0.340 OA
HETATM   11  C   UNL     1     -39.976 -51.451  12.515  1.00  0.00     0.211 C 
ENDBRANCH   7  10
ENDBRANCH   1   2
BRANCH   1  12
HETATM   12  C   UNL     1     -45.238 -52.678  12.615  1.00  0.00     0.174 C 
BRANCH  12  13
HETATM   13  O   UNL     1     -46.392 -52.653  11.772  1.00  0.00    -0.389 OA
HETATM   14  H   UNL     1     -46.260 -51.939  11.119  1.00  0.00     0.210 HD
ENDBRANCH  12  13
BRANCH  12  15
HETATM   15  C   UNL     1     -45.632 -52.097  13.953  1.00  0.00     0.011 A 
HETATM   16  C   UNL     1     -46.868 -52.409  14.540  1.00  0.00     0.016 A 
HETATM   17  C   UNL     1     -47.235 -51.828  15.756  1.00  0.00     0.043 A 
HETATM   18  C   UNL     1     -46.369 -50.946  16.392  1.00  0.00     0.119 A 
HETATM   19  F   UNL     1     -46.734 -50.379  17.549  1.00  0.00    -0.206 F 
HETATM   20  C   UNL     1     -45.133 -50.640  15.844  1.00  0.00     0.085 A 
HETATM   21  C   UNL     1     -44.774 -51.222  14.636  1.00  0.00     0.128 A 
HETATM   22  F   UNL     1     -43.574 -50.927  14.115  1.00  0.00    -0.205 F 
ENDBRANCH  12  15
ENDBRANCH   1  12
TORSDOF 5
ENDMDL
MODEL 2
REMARK VINA RESULT:      -6.0      4.120      6.160
REMARK  5 active torsions:
REMARK  status: ('A' for Active; 'I' for Inactive)
REMARK    1  A    between atoms: O_2  and  C_3 
REMARK    2  A    between atoms: N_8  and  C_9 
REMARK    3  A    between atoms: C_9  and  C_10 
REMARK    4  A    between atoms: C_10  and  O_11 
REMARK    5  A    between atoms: C_10  and  C_12 
ROOT
HETATM    1  C   UNL     1     -40.716 -49.668  12.701  1.00  0.00     0.189 C 
ENDROOT
BRANCH   1   2
HETATM    2  N   UNL     1     -41.113 -51.073  12.693  1.00  0.00    -0.253 N 
HETATM    3  C   UNL     1     -40.161 -52.047  12.981  1.00  0.00     0.262 A 
HETATM    4  C   UNL     1     -40.653 -53.445  13.028  1.00  0.00     0.080 A 
HETATM    5  O   UNL     1     -38.974 -51.823  13.195  1.00  0.00    -0.267 OA
HETATM    6  C   UNL     1     -41.938 -53.723  12.803  1.00  0.00     0.063 A 
HETATM    7  C   UNL     1     -42.794 -52.582  12.482  1.00  0.00     0.156 A 
HETATM    8  N   UNL     1     -42.443 -51.340  12.431  1.00  0.00    -0.275 N 
ATOM      9  HN  UNL     1     -43.110 -50.601  12.210  1.00  0.00     0.189 HD
BRANCH   7  10
HETATM   10  O   UNL     1     -44.046 -53.028  12.223  1.00  0.00    -0.340 OA
HETATM   11  C   UNL     1     -44.481 -54.161  12.984  1.00  0.00     0.211 C 
ENDBRANCH   7  10
ENDBRANCH   1   2
BRANCH   1  12
HETATM   12  C   UNL     1     -40.393 -49.136  11.285  1.00  0.00     0.174 C 
BRANCH  12  13
HETATM   13  O   UNL     1     -40.518 -50.133  10.268  1.00  0.00    -0.389 OA
HETATM   14  H   UNL     1     -41.470 -50.314  10.153  1.00  0.00     0.210 HD
ENDBRANCH  12  13
BRANCH  12  15
HETATM   15  C   UNL     1     -41.280 -47.974  10.902  1.00  0.00     0.011 A 
HETATM   16  C   UNL     1     -42.641 -48.167  10.619  1.00  0.00     0.016 A 
HETATM   17  C   UNL     1     -43.436 -47.088  10.224  1.00  0.00     0.043 A 
HETATM   18  C   UNL     1     -42.879 -45.819  10.120  1.00  0.00     0.119 A 
HETATM   19  F   UNL     1     -43.642 -44.792   9.724  1.00  0.00    -0.206 F 
HETATM   20  C   UNL     1     -41.542 -45.598  10.417  1.00  0.00     0.085 A 
HETATM   21  C   UNL     1     -40.758 -46.675  10.810  1.00  0.00     0.128 A 
HETATM   22  F   UNL     1     -39.469 -46.453  11.102  1.00  0.00    -0.205 F 
ENDBRANCH  12  15
ENDBRANCH   1  12
TORSDOF 5
ENDMDL
MODEL 3
REMARK VINA RESULT:      -6.0      3.745      5.858
REMARK  5 active torsions:
REMARK  status: ('A' for Active; 'I' for Inactive)
REMARK    1  A    between atoms: O_2  and  C_3 
REMARK    2  A    between atoms: N_8  and  C_9 
REMARK    3  A    between atoms: C_9  and  C_10 
REMARK    4  A    between atoms: C_10  and  O_11 
REMARK    5  A    between atoms: C_10  and  C_12 
ROOT
HETATM    1  C   UNL     1     -40.459 -51.031  12.502  1.00  0.00     0.189 C 
ENDROOT
BRANCH   1   2
HETATM    2  N   UNL     1     -40.639 -49.676  11.990  1.00  0.00    -0.253 N 
HETATM    3  C   UNL     1     -39.818 -48.658  12.467  1.00  0.00     0.262 A 
HETATM    4  C   UNL     1     -40.007 -47.324  11.849  1.00  0.00     0.080 A 
HETATM    5  O   UNL     1     -38.969 -48.797  13.343  1.00  0.00    -0.267 OA
HETATM    6  C   UNL     1     -40.918 -47.140  10.892  1.00  0.00     0.063 A 
HETATM    7  C   UNL     1     -41.717 -48.310  10.534  1.00  0.00     0.156 A 
HETATM    8  N   UNL     1     -41.607 -49.502  11.019  1.00  0.00    -0.275 N 
ATOM      9  HN  UNL     1     -42.199 -50.270  10.704  1.00  0.00     0.189 HD
BRANCH   7  10
HETATM   10  O   UNL     1     -42.631 -47.953   9.601  1.00  0.00    -0.340 OA
HETATM   11  C   UNL     1     -43.828 -47.338  10.094  1.00  0.00     0.211 C 
ENDBRANCH   7  10
ENDBRANCH   1   2
BRANCH   1  12
HETATM   12  C   UNL     1     -41.581 -51.991  12.043  1.00  0.00     0.174 C 
BRANCH  12  13
HETATM   13  O   UNL     1     -41.258 -52.700  10.844  1.00  0.00    -0.389 OA
HETATM   14  H   UNL     1     -41.264 -52.054  10.113  1.00  0.00     0.210 HD
ENDBRANCH  12  13
BRANCH  12  15
HETATM   15  C   UNL     1     -41.921 -53.012  13.104  1.00  0.00     0.011 A 
HETATM   16  C   UNL     1     -40.984 -53.374  14.085  1.00  0.00     0.016 A 
HETATM   17  C   UNL     1     -41.300 -54.351  15.032  1.00  0.00     0.043 A 
HETATM   18  C   UNL     1     -42.549 -54.961  15.008  1.00  0.00     0.119 A 
HETATM   19  F   UNL     1     -42.839 -55.909  15.907  1.00  0.00    -0.206 F 
HETATM   20  C   UNL     1     -43.500 -54.605  14.063  1.00  0.00     0.085 A 
HETATM   21  C   UNL     1     -43.180 -53.631  13.126  1.00  0.00     0.128 A 
HETATM   22  F   UNL     1     -44.106 -53.287  12.220  1.00  0.00    -0.205 F 
ENDBRANCH  12  15
ENDBRANCH   1  12
TORSDOF 5
ENDMDL
MODEL 4
REMARK VINA RESULT:      -5.9      3.448      4.981
REMARK  5 active torsions:
REMARK  status: ('A' for Active; 'I' for Inactive)
REMARK    1  A    between atoms: O_2  and  C_3 
REMARK    2  A    between atoms: N_8  and  C_9 
REMARK    3  A    between atoms: C_9  and  C_10 
REMARK    4  A    between atoms: C_10  and  O_11 
REMARK    5  A    between atoms: C_10  and  C_12 
ROOT
HETATM    1  C   UNL     1     -40.918 -51.712  13.443  1.00  0.00     0.189 C 
ENDROOT
BRANCH   1   2
HETATM    2  N   UNL     1     -39.899 -50.809  12.918  1.00  0.00    -0.253 N 
HETATM    3  C   UNL     1     -38.576 -51.239  12.866  1.00  0.00     0.262 A 
HETATM    4  C   UNL     1     -37.608 -50.298  12.254  1.00  0.00     0.080 A 
HETATM    5  O   UNL     1     -38.175 -52.322  13.284  1.00  0.00    -0.267 OA
HETATM    6  C   UNL     1     -38.011 -49.116  11.787  1.00  0.00     0.063 A 
HETATM    7  C   UNL     1     -39.430 -48.811  11.951  1.00  0.00     0.156 A 
HETATM    8  N   UNL     1     -40.333 -49.578  12.465  1.00  0.00    -0.275 N 
ATOM      9  HN  UNL     1     -41.310 -49.292  12.532  1.00  0.00     0.189 HD
BRANCH   7  10
HETATM   10  O   UNL     1     -39.672 -47.562  11.488  1.00  0.00    -0.340 OA
HETATM   11  C   UNL     1     -40.989 -47.323  10.976  1.00  0.00     0.211 C 
ENDBRANCH   7  10
ENDBRANCH   1   2
BRANCH   1  12
HETATM   12  C   UNL     1     -41.571 -52.575  12.338  1.00  0.00     0.174 C 
BRANCH  12  13
HETATM   13  O   UNL     1     -40.674 -53.529  11.766  1.00  0.00    -0.389 OA
HETATM   14  H   UNL     1     -39.840 -53.062  11.567  1.00  0.00     0.210 HD
ENDBRANCH  12  13
BRANCH  12  15
HETATM   15  C   UNL     1     -42.779 -53.328  12.849  1.00  0.00     0.011 A 
HETATM   16  C   UNL     1     -44.059 -53.074  12.334  1.00  0.00     0.016 A 
HETATM   17  C   UNL     1     -45.170 -53.748  12.847  1.00  0.00     0.043 A 
HETATM   18  C   UNL     1     -45.004 -54.679  13.867  1.00  0.00     0.119 A 
HETATM   19  F   UNL     1     -46.075 -55.308  14.367  1.00  0.00    -0.206 F 
HETATM   20  C   UNL     1     -43.747 -54.964  14.377  1.00  0.00     0.085 A 
HETATM   21  C   UNL     1     -42.647 -54.292  13.860  1.00  0.00     0.128 A 
HETATM   22  F   UNL     1     -41.434 -54.577  14.353  1.00  0.00    -0.205 F 
ENDBRANCH  12  15
ENDBRANCH   1  12
TORSDOF 5
ENDMDL
MODEL 5
REMARK VINA RESULT:      -5.9      3.254      5.665
REMARK  5 active torsions:
REMARK  status: ('A' for Active; 'I' for Inactive)
REMARK    1  A    between atoms: O_2  and  C_3 
REMARK    2  A    between atoms: N_8  and  C_9 
REMARK    3  A    between atoms: C_9  and  C_10 
REMARK    4  A    between atoms: C_10  and  O_11 
REMARK    5  A    between atoms: C_10  and  C_12 
ROOT
HETATM    1  C   UNL     1     -41.466 -52.337  13.751  1.00  0.00     0.189 C 
ENDROOT
BRANCH   1   2
HETATM    2  N   UNL     1     -42.684 -53.128  13.610  1.00  0.00    -0.253 N 
HETATM    3  C   UNL     1     -42.772 -54.356  14.260  1.00  0.00     0.262 A 
HETATM    4  C   UNL     1     -44.065 -55.070  14.133  1.00  0.00     0.080 A 
HETATM    5  O   UNL     1     -41.869 -54.866  14.916  1.00  0.00    -0.267 OA
HETATM    6  C   UNL     1     -45.068 -54.541  13.430  1.00  0.00     0.063 A 
HETATM    7  C   UNL     1     -44.793 -53.259  12.784  1.00  0.00     0.156 A 
HETATM    8  N   UNL     1     -43.700 -52.574  12.855  1.00  0.00    -0.275 N 
ATOM      9  HN  UNL     1     -43.594 -51.677  12.381  1.00  0.00     0.189 HD
BRANCH   7  10
HETATM   10  O   UNL     1     -45.877 -52.884  12.065  1.00  0.00    -0.340 OA
HETATM   11  C   UNL     1     -46.554 -51.704  12.514  1.00  0.00     0.211 C 
ENDBRANCH   7  10
ENDBRANCH   1   2
BRANCH   1  12
HETATM   12  C   UNL     1     -40.710 -52.168  12.413  1.00  0.00     0.174 C 
BRANCH  12  13
HETATM   13  O   UNL     1     -41.416 -52.715  11.296  1.00  0.00    -0.389 OA
HETATM   14  H   UNL     1     -41.666 -51.970  10.716  1.00  0.00     0.210 HD
ENDBRANCH  12  13
BRANCH  12  15
HETATM   15  C   UNL     1     -40.418 -50.717  12.107  1.00  0.00     0.011 A 
HETATM   16  C   UNL     1     -41.455 -49.819  11.810  1.00  0.00     0.016 A 
HETATM   17  C   UNL     1     -41.164 -48.491  11.487  1.00  0.00     0.043 A 
HETATM   18  C   UNL     1     -39.843 -48.057  11.468  1.00  0.00     0.119 A 
HETATM   19  F   UNL     1     -39.569 -46.788  11.141  1.00  0.00    -0.206 F 
HETATM   20  C   UNL     1     -38.803 -48.919  11.780  1.00  0.00     0.085 A 
HETATM   21  C   UNL     1     -39.100 -50.237  12.102  1.00  0.00     0.128 A 
HETATM   22  F   UNL     1     -38.090 -51.063  12.409  1.00  0.00    -0.205 F 
ENDBRANCH  12  15
ENDBRANCH   1  12
TORSDOF 5
ENDMDL
MODEL 6
REMARK VINA RESULT:      -5.8      3.228      5.760
REMARK  5 active torsions:
REMARK  status: ('A' for Active; 'I' for Inactive)
REMARK    1  A    between atoms: O_2  and  C_3 
REMARK    2  A    between atoms: N_8  and  C_9 
REMARK    3  A    between atoms: C_9  and  C_10 
REMARK    4  A    between atoms: C_10  and  O_11 
REMARK    5  A    between atoms: C_10  and  C_12 
ROOT
HETATM    1  C   UNL     1     -42.445 -52.447  12.482  1.00  0.00     0.189 C 
ENDROOT
BRANCH   1   2
HETATM    2  N   UNL     1     -43.260 -53.422  13.200  1.00  0.00    -0.253 N 
HETATM    3  C   UNL     1     -44.601 -53.566  12.857  1.00  0.00     0.262 A 
HETATM    4  C   UNL     1     -45.348 -54.625  13.577  1.00  0.00     0.080 A 
HETATM    5  O   UNL     1     -45.185 -52.889  12.016  1.00  0.00    -0.267 OA
HETATM    6  C   UNL     1     -44.743 -55.381  14.494  1.00  0.00     0.063 A 
HETATM    7  C   UNL     1     -43.339 -55.072  14.755  1.00  0.00     0.156 A 
HETATM    8  N   UNL     1     -42.620 -54.175  14.166  1.00  0.00    -0.275 N 
ATOM      9  HN  UNL     1     -41.638 -54.031  14.400  1.00  0.00     0.189 HD
BRANCH   7  10
HETATM   10  O   UNL     1     -42.885 -55.877  15.745  1.00  0.00    -0.340 OA
HETATM   11  C   UNL     1     -41.638 -55.499  16.342  1.00  0.00     0.211 C 
ENDBRANCH   7  10
ENDBRANCH   1   2
BRANCH   1  12
HETATM   12  C   UNL     1     -40.950 -52.839  12.442  1.00  0.00     0.174 C 
BRANCH  12  13
HETATM   13  O   UNL     1     -40.556 -53.426  11.200  1.00  0.00    -0.389 OA
HETATM   14  H   UNL     1     -40.461 -54.386  11.348  1.00  0.00     0.210 HD
ENDBRANCH  12  13
BRANCH  12  15
HETATM   15  C   UNL     1     -40.047 -51.654  12.698  1.00  0.00     0.011 A 
HETATM   16  C   UNL     1     -40.327 -50.399  12.137  1.00  0.00     0.016 A 
HETATM   17  C   UNL     1     -39.458 -49.325  12.348  1.00  0.00     0.043 A 
HETATM   18  C   UNL     1     -38.318 -49.500  13.124  1.00  0.00     0.119 A 
HETATM   19  F   UNL     1     -37.480 -48.472  13.308  1.00  0.00    -0.206 F 
HETATM   20  C   UNL     1     -38.031 -50.725  13.707  1.00  0.00     0.085 A 
HETATM   21  C   UNL     1     -38.900 -51.787  13.495  1.00  0.00     0.128 A 
HETATM   22  F   UNL     1     -38.620 -52.966  14.068  1.00  0.00    -0.205 F 
ENDBRANCH  12  15
ENDBRANCH   1  12
TORSDOF 5
ENDMDL
MODEL 7
REMARK VINA RESULT:      -5.7      2.491      3.716
REMARK  5 active torsions:
REMARK  status: ('A' for Active; 'I' for Inactive)
REMARK    1  A    between atoms: O_2  and  C_3 
REMARK    2  A    between atoms: N_8  and  C_9 
REMARK    3  A    between atoms: C_9  and  C_10 
REMARK    4  A    between atoms: C_10  and  O_11 
REMARK    5  A    between atoms: C_10  and  C_12 
ROOT
HETATM    1  C   UNL     1     -42.349 -52.671  12.917  1.00  0.00     0.189 C 
ENDROOT
BRANCH   1   2
HETATM    2  N   UNL     1     -41.733 -51.439  12.433  1.00  0.00    -0.253 N 
HETATM    3  C   UNL     1     -40.348 -51.379  12.310  1.00  0.00     0.262 A 
HETATM    4  C   UNL     1     -39.797 -50.124  11.744  1.00  0.00     0.080 A 
HETATM    5  O   UNL     1     -39.577 -52.279  12.631  1.00  0.00    -0.267 OA
HETATM    6  C   UNL     1     -40.607 -49.128  11.382  1.00  0.00     0.063 A 
HETATM    7  C   UNL     1     -42.034 -49.346  11.612  1.00  0.00     0.156 A 
HETATM    8  N   UNL     1     -42.588 -50.410  12.090  1.00  0.00    -0.275 N 
ATOM      9  HN  UNL     1     -43.599 -50.485  12.208  1.00  0.00     0.189 HD
BRANCH   7  10
HETATM   10  O   UNL     1     -42.715 -48.232  11.253  1.00  0.00    -0.340 OA
HETATM   11  C   UNL     1     -42.539 -47.794   9.900  1.00  0.00     0.211 C 
ENDBRANCH   7  10
ENDBRANCH   1   2
BRANCH   1  12
HETATM   12  C   UNL     1     -43.830 -52.799  12.490  1.00  0.00     0.174 C 
BRANCH  12  13
HETATM   13  O   UNL     1     -44.214 -54.143  12.192  1.00  0.00    -0.389 OA
HETATM   14  H   UNL     1     -45.149 -54.244  12.456  1.00  0.00     0.210 HD
ENDBRANCH  12  13
BRANCH  12  15
HETATM   15  C   UNL     1     -44.771 -52.276  13.551  1.00  0.00     0.011 A 
HETATM   16  C   UNL     1     -44.391 -52.243  14.901  1.00  0.00     0.016 A 
HETATM   17  C   UNL     1     -45.289 -51.796  15.874  1.00  0.00     0.043 A 
HETATM   18  C   UNL     1     -46.561 -51.376  15.501  1.00  0.00     0.119 A 
HETATM   19  F   UNL     1     -47.423 -50.966  16.439  1.00  0.00    -0.206 F 
HETATM   20  C   UNL     1     -46.952 -51.378  14.171  1.00  0.00     0.085 A 
HETATM   21  C   UNL     1     -46.054 -51.821  13.209  1.00  0.00     0.128 A 
HETATM   22  F   UNL     1     -46.436 -51.814  11.925  1.00  0.00    -0.205 F 
ENDBRANCH  12  15
ENDBRANCH   1  12
TORSDOF 5
ENDMDL
MODEL 8
REMARK VINA RESULT:      -5.6      3.930      6.065
REMARK  5 active torsions:
REMARK  status: ('A' for Active; 'I' for Inactive)
REMARK    1  A    between atoms: O_2  and  C_3 
REMARK    2  A    between atoms: N_8  and  C_9 
REMARK    3  A    between atoms: C_9  and  C_10 
REMARK    4  A    between atoms: C_10  and  O_11 
REMARK    5  A    between atoms: C_10  and  C_12 
ROOT
HETATM    1  C   UNL     1     -41.992 -50.090  12.224  1.00  0.00     0.189 C 
ENDROOT
BRANCH   1   2
HETATM    2  N   UNL     1     -41.868 -51.470  12.683  1.00  0.00    -0.253 N 
HETATM    3  C   UNL     1     -43.021 -52.196  12.966  1.00  0.00     0.262 A 
HETATM    4  C   UNL     1     -42.821 -53.612  13.356  1.00  0.00     0.080 A 
HETATM    5  O   UNL     1     -44.162 -51.746  12.911  1.00  0.00    -0.267 OA
HETATM    6  C   UNL     1     -41.595 -54.133  13.422  1.00  0.00     0.063 A 
HETATM    7  C   UNL     1     -40.494 -53.220  13.124  1.00  0.00     0.156 A 
HETATM    8  N   UNL     1     -40.587 -51.982  12.771  1.00  0.00    -0.275 N 
ATOM      9  HN  UNL     1     -39.764 -51.415  12.568  1.00  0.00     0.189 HD
BRANCH   7  10
HETATM   10  O   UNL     1     -39.320 -53.874  13.291  1.00  0.00    -0.340 OA
HETATM   11  C   UNL     1     -39.094 -54.444  14.587  1.00  0.00     0.211 C 
ENDBRANCH   7  10
ENDBRANCH   1   2
BRANCH   1  12
HETATM   12  C   UNL     1     -40.694 -49.563  11.571  1.00  0.00     0.174 C 
BRANCH  12  13
HETATM   13  O   UNL     1     -40.414 -50.168  10.307  1.00  0.00    -0.389 OA
HETATM   14  H   UNL     1     -39.761 -50.878  10.461  1.00  0.00     0.210 HD
ENDBRANCH  12  13
BRANCH  12  15
HETATM   15  C   UNL     1     -40.731 -48.066  11.366  1.00  0.00     0.011 A 
HETATM   16  C   UNL     1     -39.826 -47.224  12.029  1.00  0.00     0.016 A 
HETATM   17  C   UNL     1     -39.902 -45.839  11.863  1.00  0.00     0.043 A 
HETATM   18  C   UNL     1     -40.873 -45.295  11.029  1.00  0.00     0.119 A 
HETATM   19  F   UNL     1     -40.953 -43.966  10.887  1.00  0.00    -0.206 F 
HETATM   20  C   UNL     1     -41.765 -46.107  10.345  1.00  0.00     0.085 A 
HETATM   21  C   UNL     1     -41.681 -47.483  10.514  1.00  0.00     0.128 A 
HETATM   22  F   UNL     1     -42.541 -48.263   9.844  1.00  0.00    -0.205 F 
ENDBRANCH  12  15
ENDBRANCH   1  12
TORSDOF 5
ENDMDL
MODEL 9
REMARK VINA RESULT:      -5.5      3.361      5.705
REMARK  5 active torsions:
REMARK  status: ('A' for Active; 'I' for Inactive)
REMARK    1  A    between atoms: O_2  and  C_3 
REMARK    2  A    between atoms: N_8  and  C_9 
REMARK    3  A    between atoms: C_9  and  C_10 
REMARK    4  A    between atoms: C_10  and  O_11 
REMARK    5  A    between atoms: C_10  and  C_12 
ROOT
HETATM    1  C   UNL     1     -40.724 -51.013  11.725  1.00  0.00     0.189 C 
ENDROOT
BRANCH   1   2
HETATM    2  N   UNL     1     -41.420 -52.180  12.257  1.00  0.00    -0.253 N 
HETATM    3  C   UNL     1     -40.723 -53.074  13.064  1.00  0.00     0.262 A 
HETATM    4  C   UNL     1     -41.512 -54.196  13.628  1.00  0.00     0.080 A 
HETATM    5  O   UNL     1     -39.528 -52.990  13.331  1.00  0.00    -0.267 OA
HETATM    6  C   UNL     1     -42.813 -54.314  13.361  1.00  0.00     0.063 A 
HETATM    7  C   UNL     1     -43.379 -53.306  12.467  1.00  0.00     0.156 A 
HETATM    8  N   UNL     1     -42.761 -52.299  11.945  1.00  0.00    -0.275 N 
ATOM      9  HN  UNL     1     -43.236 -51.630  11.338  1.00  0.00     0.189 HD
BRANCH   7  10
HETATM   10  O   UNL     1     -44.683 -53.593  12.245  1.00  0.00    -0.340 OA
HETATM   11  C   UNL     1     -45.625 -52.579  12.617  1.00  0.00     0.211 C 
ENDBRANCH   7  10
ENDBRANCH   1   2
BRANCH   1  12
HETATM   12  C   UNL     1     -40.847 -49.778  12.648  1.00  0.00     0.174 C 
BRANCH  12  13
HETATM   13  O   UNL     1     -39.598 -49.374  13.215  1.00  0.00    -0.389 OA
HETATM   14  H   UNL     1     -39.757 -48.549  13.712  1.00  0.00     0.210 HD
ENDBRANCH  12  13
BRANCH  12  15
HETATM   15  C   UNL     1     -41.430 -48.587  11.924  1.00  0.00     0.011 A 
HETATM   16  C   UNL     1     -40.600 -47.631  11.320  1.00  0.00     0.016 A 
HETATM   17  C   UNL     1     -41.155 -46.513  10.692  1.00  0.00     0.043 A 
HETATM   18  C   UNL     1     -42.536 -46.352  10.660  1.00  0.00     0.119 A 
HETATM   19  F   UNL     1     -43.061 -45.270  10.073  1.00  0.00    -0.206 F 
HETATM   20  C   UNL     1     -43.378 -47.294  11.230  1.00  0.00     0.085 A 
HETATM   21  C   UNL     1     -42.819 -48.403  11.850  1.00  0.00     0.128 A 
HETATM   22  F   UNL     1     -43.640 -49.314  12.394  1.00  0.00    -0.205 F 
ENDBRANCH  12  15
ENDBRANCH   1  12
TORSDOF 5
ENDMDL
