MODEL 1
REMARK VINA RESULT:      -5.9      0.000      0.000
REMARK  3 active torsions:
REMARK  status: ('A' for Active; 'I' for Inactive)
REMARK    1  A    between atoms: O_2  and  C_3 
REMARK    2  A    between atoms: C_9  and  N_10 
REMARK       I    between atoms: N_10  and  C_11 
REMARK       I    between atoms: C_11  and  N_13 
REMARK    3  A    between atoms: N_13  and  C_14 
ROOT
HETATM    1  N   UNL     1     -42.316 -49.311  11.397  1.00  0.00    -0.305 N 
HETATM    2  C   UNL     1     -42.904 -49.640  12.601  1.00  0.00     0.321 C 
HETATM    3  O   UNL     1     -43.150 -48.851  13.506  1.00  0.00    -0.247 OA
HETATM    4  N   UNL     1     -43.179 -50.987  12.719  1.00  0.00    -0.338 N 
HETATM    5  H   UNL     1     -42.444 -49.937  10.613  1.00  0.00     0.171 HD
HETATM    6  H   UNL     1     -43.090 -51.574  11.905  1.00  0.00     0.164 HD
ENDROOT
BRANCH   1   7
HETATM    7  C   UNL     1     -41.717 -48.061  11.085  1.00  0.00     0.087 A 
HETATM    8  C   UNL     1     -42.319 -47.181  10.174  1.00  0.00     0.169 A 
HETATM    9  N   UNL     1     -41.762 -46.019   9.745  1.00  0.00    -0.345 N 
HETATM   10  C   UNL     1     -40.578 -45.675  10.285  1.00  0.00     0.090 A 
ATOM     11  HN  UNL     1     -42.221 -45.435   9.046  1.00  0.00     0.167 HD
HETATM   12  C   UNL     1     -39.930 -46.433  11.240  1.00  0.00     0.019 A 
HETATM   13  C   UNL     1     -40.503 -47.643  11.633  1.00  0.00     0.035 A 
BRANCH   8  14
HETATM   14  O   UNL     1     -43.591 -47.485   9.718  1.00  0.00    -0.339 OA
HETATM   15  C   UNL     1     -43.604 -47.503   8.286  1.00  0.00     0.211 C 
ENDBRANCH   8  14
ENDBRANCH   1   7
BRANCH   4  16
HETATM   16  C   UNL     1     -43.926 -51.490  13.875  1.00  0.00     0.086 C 
HETATM   17  C   UNL     1     -43.372 -52.820  14.408  1.00  0.00     0.025 C 
HETATM   18  C   UNL     1     -43.701 -54.023  13.524  1.00  0.00     0.002 C 
HETATM   19  C   UNL     1     -45.176 -54.093  13.144  1.00  0.00     0.000 C 
HETATM   20  C   UNL     1     -45.692 -52.775  12.585  1.00  0.00     0.002 C 
HETATM   21  C   UNL     1     -45.421 -51.617  13.545  1.00  0.00     0.025 C 
ENDBRANCH   4  16
TORSDOF 3
ENDMDL
MODEL 2
REMARK VINA RESULT:      -5.8      2.667      3.556
REMARK  3 active torsions:
REMARK  status: ('A' for Active; 'I' for Inactive)
REMARK    1  A    between atoms: O_2  and  C_3 
REMARK    2  A    between atoms: C_9  and  N_10 
REMARK       I    between atoms: N_10  and  C_11 
REMARK       I    between atoms: C_11  and  N_13 
REMARK    3  A    between atoms: N_13  and  C_14 
ROOT
HETATM    1  N   UNL     1     -41.466 -50.742  13.110  1.00  0.00    -0.305 N 
HETATM    2  C   UNL     1     -42.361 -51.674  12.628  1.00  0.00     0.321 C 
HETATM    3  O   UNL     1     -42.090 -52.573  11.839  1.00  0.00    -0.247 OA
HETATM    4  N   UNL     1     -43.643 -51.491  13.105  1.00  0.00    -0.338 N 
HETATM    5  H   UNL     1     -41.690 -50.261  13.971  1.00  0.00     0.171 HD
HETATM    6  H   UNL     1     -43.794 -50.833  13.853  1.00  0.00     0.164 HD
ENDROOT
BRANCH   1   7
HETATM    7  C   UNL     1     -40.146 -50.537  12.626  1.00  0.00     0.087 A 
HETATM    8  C   UNL     1     -39.915 -49.806  11.453  1.00  0.00     0.169 A 
HETATM    9  N   UNL     1     -38.699 -49.653  10.868  1.00  0.00    -0.345 N 
HETATM   10  C   UNL     1     -37.644 -50.199  11.503  1.00  0.00     0.090 A 
ATOM     11  HN  UNL     1     -38.589 -49.148   9.989  1.00  0.00     0.167 HD
HETATM   12  C   UNL     1     -37.749 -50.882  12.700  1.00  0.00     0.019 A 
HETATM   13  C   UNL     1     -39.016 -51.061  13.257  1.00  0.00     0.035 A 
BRANCH   8  14
HETATM   14  O   UNL     1     -40.987 -49.146  10.873  1.00  0.00    -0.339 OA
HETATM   15  C   UNL     1     -40.877 -47.738  11.107  1.00  0.00     0.211 C 
ENDBRANCH   8  14
ENDBRANCH   1   7
BRANCH   4  16
HETATM   16  C   UNL     1     -44.691 -52.471  12.804  1.00  0.00     0.086 C 
HETATM   17  C   UNL     1     -46.083 -51.833  12.681  1.00  0.00     0.025 C 
HETATM   18  C   UNL     1     -46.691 -51.420  14.022  1.00  0.00     0.002 C 
HETATM   19  C   UNL     1     -46.624 -52.526  15.069  1.00  0.00     0.000 C 
HETATM   20  C   UNL     1     -45.227 -53.117  15.197  1.00  0.00     0.002 C 
HETATM   21  C   UNL     1     -44.699 -53.598  13.847  1.00  0.00     0.025 C 
ENDBRANCH   4  16
TORSDOF 3
ENDMDL
MODEL 3
REMARK VINA RESULT:      -5.7      1.524      2.176
REMARK  3 active torsions:
REMARK  status: ('A' for Active; 'I' for Inactive)
REMARK    1  A    between atoms: O_2  and  C_3 
REMARK    2  A    between atoms: C_9  and  N_10 
REMARK       I    between atoms: N_10  and  C_11 
REMARK       I    between atoms: C_11  and  N_13 
REMARK    3  A    between atoms: N_13  and  C_14 
ROOT
HETATM    1  N   UNL     1     -43.329 -48.957  11.744  1.00  0.00    -0.305 N 
HETATM    2  C   UNL     1     -43.247 -49.616  12.953  1.00  0.00     0.321 C 
HETATM    3  O   UNL     1     -42.578 -49.251  13.914  1.00  0.00    -0.247 OA
HETATM    4  N   UNL     1     -43.988 -50.780  12.987  1.00  0.00    -0.338 N 
HETATM    5  H   UNL     1     -44.124 -49.143  11.149  1.00  0.00     0.171 HD
HETATM    6  H   UNL     1     -44.629 -50.970  12.232  1.00  0.00     0.164 HD
ENDROOT
BRANCH   1   7
HETATM    7  C   UNL     1     -42.505 -47.873  11.338  1.00  0.00     0.087 A 
HETATM    8  C   UNL     1     -41.186 -48.089  10.916  1.00  0.00     0.169 A 
HETATM    9  N   UNL     1     -40.304 -47.102  10.613  1.00  0.00    -0.345 N 
HETATM   10  C   UNL     1     -40.761 -45.837  10.669  1.00  0.00     0.090 A 
ATOM     11  HN  UNL     1     -39.339 -47.310  10.354  1.00  0.00     0.167 HD
HETATM   12  C   UNL     1     -42.061 -45.515  11.006  1.00  0.00     0.019 A 
HETATM   13  C   UNL     1     -42.935 -46.545  11.355  1.00  0.00     0.035 A 
BRANCH   8  14
HETATM   14  O   UNL     1     -40.762 -49.397  10.744  1.00  0.00    -0.339 OA
HETATM   15  C   UNL     1     -39.679 -49.681  11.636  1.00  0.00     0.211 C 
ENDBRANCH   8  14
ENDBRANCH   1   7
BRANCH   4  16
HETATM   16  C   UNL     1     -44.126 -51.533  14.236  1.00  0.00     0.086 C 
HETATM   17  C   UNL     1     -44.198 -53.051  14.010  1.00  0.00     0.025 C 
HETATM   18  C   UNL     1     -45.536 -53.526  13.440  1.00  0.00     0.002 C 
HETATM   19  C   UNL     1     -46.734 -52.971  14.202  1.00  0.00     0.000 C 
HETATM   20  C   UNL     1     -46.657 -51.462  14.381  1.00  0.00     0.002 C 
HETATM   21  C   UNL     1     -45.341 -51.044  15.038  1.00  0.00     0.025 C 
ENDBRANCH   4  16
TORSDOF 3
ENDMDL
MODEL 4
REMARK VINA RESULT:      -5.6      2.203      7.005
REMARK  3 active torsions:
REMARK  status: ('A' for Active; 'I' for Inactive)
REMARK    1  A    between atoms: O_2  and  C_3 
REMARK    2  A    between atoms: C_9  and  N_10 
REMARK       I    between atoms: N_10  and  C_11 
REMARK       I    between atoms: C_11  and  N_13 
REMARK    3  A    between atoms: N_13  and  C_14 
ROOT
HETATM    1  N   UNL     1     -44.902 -50.829  12.668  1.00  0.00    -0.305 N 
HETATM    2  C   UNL     1     -43.673 -50.276  12.962  1.00  0.00     0.321 C 
HETATM    3  O   UNL     1     -42.942 -50.625  13.883  1.00  0.00    -0.247 OA
HETATM    4  N   UNL     1     -43.330 -49.239  12.119  1.00  0.00    -0.338 N 
HETATM    5  H   UNL     1     -45.272 -50.708  11.735  1.00  0.00     0.171 HD
HETATM    6  H   UNL     1     -43.889 -49.076  11.296  1.00  0.00     0.164 HD
ENDROOT
BRANCH   1   7
HETATM    7  C   UNL     1     -45.614 -51.743  13.491  1.00  0.00     0.087 A 
HETATM    8  C   UNL     1     -45.569 -53.122  13.242  1.00  0.00     0.169 A 
HETATM    9  N   UNL     1     -46.299 -54.049  13.914  1.00  0.00    -0.345 N 
HETATM   10  C   UNL     1     -47.070 -53.603  14.923  1.00  0.00     0.090 A 
ATOM     11  HN  UNL     1     -46.265 -55.037  13.665  1.00  0.00     0.167 HD
HETATM   12  C   UNL     1     -47.138 -52.275  15.298  1.00  0.00     0.019 A 
HETATM   13  C   UNL     1     -46.410 -51.338  14.564  1.00  0.00     0.035 A 
BRANCH   8  14
HETATM   14  O   UNL     1     -44.681 -53.583  12.283  1.00  0.00    -0.339 OA
HETATM   15  C   UNL     1     -43.479 -54.040  12.912  1.00  0.00     0.211 C 
ENDBRANCH   8  14
ENDBRANCH   1   7
BRANCH   4  16
HETATM   16  C   UNL     1     -42.001 -48.627  12.202  1.00  0.00     0.086 C 
HETATM   17  C   UNL     1     -41.976 -47.377  13.092  1.00  0.00     0.025 C 
HETATM   18  C   UNL     1     -42.629 -46.151  12.451  1.00  0.00     0.002 C 
HETATM   19  C   UNL     1     -42.135 -45.891  11.033  1.00  0.00     0.000 C 
HETATM   20  C   UNL     1     -42.202 -47.136  10.160  1.00  0.00     0.002 C 
HETATM   21  C   UNL     1     -41.459 -48.308  10.800  1.00  0.00     0.025 C 
ENDBRANCH   4  16
TORSDOF 3
ENDMDL
MODEL 5
REMARK VINA RESULT:      -5.5      2.006      6.805
REMARK  3 active torsions:
REMARK  status: ('A' for Active; 'I' for Inactive)
REMARK    1  A    between atoms: O_2  and  C_3 
REMARK    2  A    between atoms: C_9  and  N_10 
REMARK       I    between atoms: N_10  and  C_11 
REMARK       I    between atoms: C_11  and  N_13 
REMARK    3  A    between atoms: N_13  and  C_14 
ROOT
HETATM    1  N   UNL     1     -43.246 -51.837  12.504  1.00  0.00    -0.305 N 
HETATM    2  C   UNL     1     -43.305 -50.565  13.033  1.00  0.00     0.321 C 
HETATM    3  O   UNL     1     -43.687 -50.286  14.165  1.00  0.00    -0.247 OA
HETATM    4  N   UNL     1     -42.909 -49.588  12.142  1.00  0.00    -0.338 N 
HETATM    5  H   UNL     1     -42.636 -52.000  11.714  1.00  0.00     0.171 HD
HETATM    6  H   UNL     1     -42.473 -49.867  11.277  1.00  0.00     0.164 HD
ENDROOT
BRANCH   1   7
HETATM    7  C   UNL     1     -43.802 -53.004  13.095  1.00  0.00     0.087 A 
HETATM    8  C   UNL     1     -45.135 -53.366  12.856  1.00  0.00     0.169 A 
HETATM    9  N   UNL     1     -45.770 -54.403  13.461  1.00  0.00    -0.345 N 
HETATM   10  C   UNL     1     -45.038 -55.160  14.300  1.00  0.00     0.090 A 
ATOM     11  HN  UNL     1     -46.756 -54.598  13.288  1.00  0.00     0.167 HD
HETATM   12  C   UNL     1     -43.699 -54.934  14.555  1.00  0.00     0.019 A 
HETATM   13  C   UNL     1     -43.082 -53.837  13.953  1.00  0.00     0.035 A 
BRANCH   8  14
HETATM   14  O   UNL     1     -45.843 -52.656  11.900  1.00  0.00    -0.339 OA
HETATM   15  C   UNL     1     -46.759 -51.760  12.538  1.00  0.00     0.211 C 
ENDBRANCH   8  14
ENDBRANCH   1   7
BRANCH   4  16
HETATM   16  C   UNL     1     -42.780 -48.196  12.581  1.00  0.00     0.086 C 
HETATM   17  C   UNL     1     -43.203 -47.191  11.499  1.00  0.00     0.025 C 
HETATM   18  C   UNL     1     -42.192 -47.049  10.360  1.00  0.00     0.002 C 
HETATM   19  C   UNL     1     -40.767 -46.835  10.857  1.00  0.00     0.000 C 
HETATM   20  C   UNL     1     -40.359 -47.865  11.901  1.00  0.00     0.002 C 
HETATM   21  C   UNL     1     -41.351 -47.906  13.063  1.00  0.00     0.025 C 
ENDBRANCH   4  16
TORSDOF 3
ENDMDL
MODEL 6
REMARK VINA RESULT:      -5.4      1.343      1.874
REMARK  3 active torsions:
REMARK  status: ('A' for Active; 'I' for Inactive)
REMARK    1  A    between atoms: O_2  and  C_3 
REMARK    2  A    between atoms: C_9  and  N_10 
REMARK       I    between atoms: N_10  and  C_11 
REMARK       I    between atoms: C_11  and  N_13 
REMARK    3  A    between atoms: N_13  and  C_14 
ROOT
HETATM    1  N   UNL     1     -43.014 -48.052  12.411  1.00  0.00    -0.305 N 
HETATM    2  C   UNL     1     -42.887 -49.393  12.706  1.00  0.00     0.321 C 
HETATM    3  O   UNL     1     -41.829 -50.011  12.754  1.00  0.00    -0.247 OA
HETATM    4  N   UNL     1     -44.099 -50.016  12.928  1.00  0.00    -0.338 N 
HETATM    5  H   UNL     1     -43.855 -47.573  12.703  1.00  0.00     0.171 HD
HETATM    6  H   UNL     1     -44.928 -49.449  13.016  1.00  0.00     0.164 HD
ENDROOT
BRANCH   1   7
HETATM    7  C   UNL     1     -41.978 -47.215  11.916  1.00  0.00     0.087 A 
HETATM    8  C   UNL     1     -41.847 -46.965  10.543  1.00  0.00     0.169 A 
HETATM    9  N   UNL     1     -40.829 -46.265   9.982  1.00  0.00    -0.345 N 
HETATM   10  C   UNL     1     -39.922 -45.730  10.821  1.00  0.00     0.090 A 
ATOM     11  HN  UNL     1     -40.754 -46.149   8.971  1.00  0.00     0.167 HD
HETATM   12  C   UNL     1     -39.992 -45.856  12.195  1.00  0.00     0.019 A 
HETATM   13  C   UNL     1     -41.026 -46.616  12.743  1.00  0.00     0.035 A 
BRANCH   8  14
HETATM   14  O   UNL     1     -42.851 -47.416   9.700  1.00  0.00    -0.339 OA
HETATM   15  C   UNL     1     -43.322 -46.338   8.883  1.00  0.00     0.211 C 
ENDBRANCH   8  14
ENDBRANCH   1   7
BRANCH   4  16
HETATM   16  C   UNL     1     -44.143 -51.407  13.387  1.00  0.00     0.086 C 
HETATM   17  C   UNL     1     -45.269 -52.216  12.727  1.00  0.00     0.025 C 
HETATM   18  C   UNL     1     -46.663 -51.875  13.253  1.00  0.00     0.002 C 
HETATM   19  C   UNL     1     -46.737 -51.872  14.776  1.00  0.00     0.000 C 
HETATM   20  C   UNL     1     -45.633 -51.034  15.406  1.00  0.00     0.002 C 
HETATM   21  C   UNL     1     -44.252 -51.472  14.918  1.00  0.00     0.025 C 
ENDBRANCH   4  16
TORSDOF 3
ENDMDL
MODEL 7
REMARK VINA RESULT:      -5.4      3.513      4.830
REMARK  3 active torsions:
REMARK  status: ('A' for Active; 'I' for Inactive)
REMARK    1  A    between atoms: O_2  and  C_3 
REMARK    2  A    between atoms: C_9  and  N_10 
REMARK       I    between atoms: N_10  and  C_11 
REMARK       I    between atoms: C_11  and  N_13 
REMARK    3  A    between atoms: N_13  and  C_14 
ROOT
HETATM    1  N   UNL     1     -41.508 -51.170  13.527  1.00  0.00    -0.305 N 
HETATM    2  C   UNL     1     -42.503 -51.858  12.864  1.00  0.00     0.321 C 
HETATM    3  O   UNL     1     -42.337 -52.561  11.873  1.00  0.00    -0.247 OA
HETATM    4  N   UNL     1     -43.755 -51.662  13.411  1.00  0.00    -0.338 N 
HETATM    5  H   UNL     1     -41.674 -50.892  14.485  1.00  0.00     0.171 HD
HETATM    6  H   UNL     1     -43.828 -51.194  14.300  1.00  0.00     0.164 HD
ENDROOT
BRANCH   1   7
HETATM    7  C   UNL     1     -40.176 -50.993  13.064  1.00  0.00     0.087 A 
HETATM    8  C   UNL     1     -39.112 -51.694  13.648  1.00  0.00     0.169 A 
HETATM    9  N   UNL     1     -37.804 -51.507  13.335  1.00  0.00    -0.345 N 
HETATM   10  C   UNL     1     -37.532 -50.626  12.354  1.00  0.00     0.090 A 
ATOM     11  HN  UNL     1     -37.062 -52.010  13.822  1.00  0.00     0.167 HD
HETATM   12  C   UNL     1     -38.508 -49.932  11.665  1.00  0.00     0.019 A 
HETATM   13  C   UNL     1     -39.841 -50.112  12.035  1.00  0.00     0.035 A 
BRANCH   8  14
HETATM   14  O   UNL     1     -39.411 -52.685  14.569  1.00  0.00    -0.339 OA
HETATM   15  C   UNL     1     -39.310 -53.973  13.951  1.00  0.00     0.211 C 
ENDBRANCH   8  14
ENDBRANCH   1   7
BRANCH   4  16
HETATM   16  C   UNL     1     -44.905 -52.424  12.917  1.00  0.00     0.086 C 
HETATM   17  C   UNL     1     -46.206 -51.608  12.927  1.00  0.00     0.025 C 
HETATM   18  C   UNL     1     -46.794 -51.402  14.324  1.00  0.00     0.002 C 
HETATM   19  C   UNL     1     -46.888 -52.697  15.123  1.00  0.00     0.000 C 
HETATM   20  C   UNL     1     -45.576 -53.469  15.128  1.00  0.00     0.002 C 
HETATM   21  C   UNL     1     -45.076 -53.729  13.707  1.00  0.00     0.025 C 
ENDBRANCH   4  16
TORSDOF 3
ENDMDL
MODEL 8
REMARK VINA RESULT:      -5.1      3.002      6.931
REMARK  3 active torsions:
REMARK  status: ('A' for Active; 'I' for Inactive)
REMARK    1  A    between atoms: O_2  and  C_3 
REMARK    2  A    between atoms: C_9  and  N_10 
REMARK       I    between atoms: N_10  and  C_11 
REMARK       I    between atoms: C_11  and  N_13 
REMARK    3  A    between atoms: N_13  and  C_14 
ROOT
HETATM    1  N   UNL     1     -42.804 -51.797  13.684  1.00  0.00    -0.305 N 
HETATM    2  C   UNL     1     -41.807 -51.627  12.746  1.00  0.00     0.321 C 
HETATM    3  O   UNL     1     -41.667 -52.302  11.731  1.00  0.00    -0.247 OA
HETATM    4  N   UNL     1     -40.929 -50.611  13.066  1.00  0.00    -0.338 N 
HETATM    5  H   UNL     1     -43.028 -51.021  14.293  1.00  0.00     0.171 HD
HETATM    6  H   UNL     1     -41.157 -49.995  13.830  1.00  0.00     0.164 HD
ENDROOT
BRANCH   1   7
HETATM    7  C   UNL     1     -43.703 -52.896  13.743  1.00  0.00     0.087 A 
HETATM    8  C   UNL     1     -45.054 -52.740  13.406  1.00  0.00     0.169 A 
HETATM    9  N   UNL     1     -45.996 -53.710  13.535  1.00  0.00    -0.345 N 
HETATM   10  C   UNL     1     -45.575 -54.915  13.961  1.00  0.00     0.090 A 
ATOM     11  HN  UNL     1     -46.977 -53.533  13.318  1.00  0.00     0.167 HD
HETATM   12  C   UNL     1     -44.255 -55.199  14.255  1.00  0.00     0.019 A 
HETATM   13  C   UNL     1     -43.315 -54.173  14.155  1.00  0.00     0.035 A 
BRANCH   8  14
HETATM   14  O   UNL     1     -45.454 -51.534  12.853  1.00  0.00    -0.339 OA
HETATM   15  C   UNL     1     -46.702 -51.699  12.172  1.00  0.00     0.211 C 
ENDBRANCH   8  14
ENDBRANCH   1   7
BRANCH   4  16
HETATM   16  C   UNL     1     -39.891 -50.204  12.115  1.00  0.00     0.086 C 
HETATM   17  C   UNL     1     -38.514 -50.796  12.448  1.00  0.00     0.025 C 
HETATM   18  C   UNL     1     -37.835 -50.140  13.651  1.00  0.00     0.002 C 
HETATM   19  C   UNL     1     -37.833 -48.617  13.572  1.00  0.00     0.000 C 
HETATM   20  C   UNL     1     -39.215 -48.053  13.277  1.00  0.00     0.002 C 
HETATM   21  C   UNL     1     -39.815 -48.673  12.015  1.00  0.00     0.025 C 
ENDBRANCH   4  16
TORSDOF 3
ENDMDL
MODEL 9
REMARK VINA RESULT:      -4.9      5.736      7.675
REMARK  3 active torsions:
REMARK  status: ('A' for Active; 'I' for Inactive)
REMARK    1  A    between atoms: O_2  and  C_3 
REMARK    2  A    between atoms: C_9  and  N_10 
REMARK       I    between atoms: N_10  and  C_11 
REMARK       I    between atoms: C_11  and  N_13 
REMARK    3  A    between atoms: N_13  and  C_14 
ROOT
HETATM    1  N   UNL     1     -42.405 -54.143  16.454  1.00  0.00    -0.305 N 
HETATM    2  C   UNL     1     -43.474 -54.554  15.687  1.00  0.00     0.321 C 
HETATM    3  O   UNL     1     -43.597 -55.665  15.181  1.00  0.00    -0.247 OA
HETATM    4  N   UNL     1     -44.422 -53.567  15.504  1.00  0.00    -0.338 N 
HETATM    5  H   UNL     1     -42.534 -53.356  17.076  1.00  0.00     0.171 HD
HETATM    6  H   UNL     1     -44.352 -52.721  16.047  1.00  0.00     0.164 HD
ENDROOT
BRANCH   1   7
HETATM    7  C   UNL     1     -41.184 -54.853  16.616  1.00  0.00     0.087 A 
HETATM    8  C   UNL     1     -40.049 -54.516  15.866  1.00  0.00     0.169 A 
HETATM    9  N   UNL     1     -38.881 -55.207  15.886  1.00  0.00    -0.345 N 
HETATM   10  C   UNL     1     -38.804 -56.250  16.733  1.00  0.00     0.090 A 
ATOM     11  HN  UNL     1     -38.098 -54.948  15.286  1.00  0.00     0.167 HD
HETATM   12  C   UNL     1     -39.838 -56.628  17.568  1.00  0.00     0.019 A 
HETATM   13  C   UNL     1     -41.042 -55.927  17.497  1.00  0.00     0.035 A 
BRANCH   8  14
HETATM   14  O   UNL     1     -40.098 -53.369  15.089  1.00  0.00    -0.339 OA
HETATM   15  C   UNL     1     -39.045 -53.392  14.119  1.00  0.00     0.211 C 
ENDBRANCH   8  14
ENDBRANCH   1   7
BRANCH   4  16
HETATM   16  C   UNL     1     -45.687 -53.872  14.831  1.00  0.00     0.086 C 
HETATM   17  C   UNL     1     -45.554 -53.900  13.301  1.00  0.00     0.025 C 
HETATM   18  C   UNL     1     -45.415 -52.514  12.669  1.00  0.00     0.002 C 
HETATM   19  C   UNL     1     -46.469 -51.530  13.164  1.00  0.00     0.000 C 
HETATM   20  C   UNL     1     -46.556 -51.494  14.683  1.00  0.00     0.002 C 
HETATM   21  C   UNL     1     -46.785 -52.889  15.263  1.00  0.00     0.025 C 
ENDBRANCH   4  16
TORSDOF 3
ENDMDL
