MODEL 1
REMARK VINA RESULT:      -6.5      0.000      0.000
REMARK  4 active torsions:
REMARK  status: ('A' for Active; 'I' for Inactive)
REMARK       I    between atoms: C_2  and  N_3 
REMARK       I    between atoms: C_2  and  N_13 
REMARK    1  A    between atoms: N_3  and  C_4 
REMARK    2  A    between atoms: C_4  and  C_5 
REMARK    3  A    between atoms: C_5  and  N_6 
REMARK    4  A    between atoms: N_13  and  C_14 
ROOT
HETATM    1  O   UNL     1     -40.033 -50.353  11.812  1.00  0.00    -0.247 OA
HETATM    2  C   UNL     1     -41.045 -49.760  11.442  1.00  0.00     0.321 C 
HETATM    3  N   UNL     1     -42.290 -50.072  11.881  1.00  0.00    -0.341 N 
HETATM    4  N   UNL     1     -40.939 -48.749  10.540  1.00  0.00    -0.295 N 
HETATM    5  H   UNL     1     -43.040 -49.465  11.554  1.00  0.00     0.164 HD
HETATM    6  H   UNL     1     -39.988 -48.599  10.238  1.00  0.00     0.172 HD
ENDROOT
BRANCH   3   7
HETATM    7  C   UNL     1     -42.559 -51.109  12.846  1.00  0.00     0.144 C 
BRANCH   7   8
HETATM    8  C   UNL     1     -42.545 -52.512  12.227  1.00  0.00     0.154 C 
BRANCH   8   9
HETATM    9  N   UNL     1     -43.191 -53.483  13.093  1.00  0.00    -0.287 N 
HETATM   10  C   UNL     1     -42.516 -54.246  14.002  1.00  0.00     0.226 C 
HETATM   11  O   UNL     1     -41.312 -54.245  14.210  1.00  0.00    -0.273 OA
HETATM   12  C   UNL     1     -43.493 -55.153  14.692  1.00  0.00     0.112 C 
HETATM   13  C   UNL     1     -44.847 -54.667  14.212  1.00  0.00     0.112 C 
HETATM   14  C   UNL     1     -44.520 -53.787  13.043  1.00  0.00     0.226 C 
HETATM   15  O   UNL     1     -45.338 -53.406  12.221  1.00  0.00    -0.273 OA
ENDBRANCH   8   9
ENDBRANCH   7   8
ENDBRANCH   3   7
BRANCH   4  16
HETATM   16  C   UNL     1     -41.938 -47.928  10.008  1.00  0.00     0.108 A 
HETATM   17  C   UNL     1     -42.187 -46.720  10.650  1.00  0.00     0.049 A 
HETATM   18  C   UNL     1     -43.183 -45.883  10.152  1.00  0.00     0.005 A 
HETATM   19  C   UNL     1     -43.901 -46.274   9.028  1.00  0.00     0.017 A 
HETATM   20  C   UNL     1     -43.589 -47.490   8.448  1.00  0.00     0.089 A 
HETATM   21  N   UNL     1     -42.629 -48.321   8.914  1.00  0.00    -0.352 N 
ATOM     22  HN  UNL     1     -42.433 -49.211   8.456  1.00  0.00     0.166 HD
ENDBRANCH   4  16
TORSDOF 4
ENDMDL
MODEL 2
REMARK VINA RESULT:      -6.4      1.809      2.921
REMARK  4 active torsions:
REMARK  status: ('A' for Active; 'I' for Inactive)
REMARK       I    between atoms: C_2  and  N_3 
REMARK       I    between atoms: C_2  and  N_13 
REMARK    1  A    between atoms: N_3  and  C_4 
REMARK    2  A    between atoms: C_4  and  C_5 
REMARK    3  A    between atoms: C_5  and  N_6 
REMARK    4  A    between atoms: N_13  and  C_14 
ROOT
HETATM    1  O   UNL     1     -40.121 -47.346  11.327  1.00  0.00    -0.247 OA
HETATM    2  C   UNL     1     -41.077 -47.864  10.753  1.00  0.00     0.321 C 
HETATM    3  N   UNL     1     -41.310 -49.200  10.757  1.00  0.00    -0.341 N 
HETATM    4  N   UNL     1     -41.948 -47.084  10.060  1.00  0.00    -0.295 N 
HETATM    5  H   UNL     1     -42.170 -49.503  10.303  1.00  0.00     0.164 HD
HETATM    6  H   UNL     1     -41.690 -46.108  10.077  1.00  0.00     0.172 HD
ENDROOT
BRANCH   3   7
HETATM    7  C   UNL     1     -40.482 -50.152  11.457  1.00  0.00     0.144 C 
BRANCH   7   8
HETATM    8  C   UNL     1     -41.019 -50.487  12.854  1.00  0.00     0.154 C 
BRANCH   8   9
HETATM    9  N   UNL     1     -41.329 -51.900  12.981  1.00  0.00    -0.287 N 
HETATM   10  C   UNL     1     -42.603 -52.390  13.017  1.00  0.00     0.226 C 
HETATM   11  O   UNL     1     -43.640 -51.744  12.968  1.00  0.00    -0.273 OA
HETATM   12  C   UNL     1     -42.543 -53.881  13.186  1.00  0.00     0.112 C 
HETATM   13  C   UNL     1     -41.070 -54.208  13.033  1.00  0.00     0.112 C 
HETATM   14  C   UNL     1     -40.391 -52.876  13.149  1.00  0.00     0.226 C 
HETATM   15  O   UNL     1     -39.194 -52.731  13.335  1.00  0.00    -0.273 OA
ENDBRANCH   8   9
ENDBRANCH   7   8
ENDBRANCH   3   7
BRANCH   4  16
HETATM   16  C   UNL     1     -43.105 -47.449   9.366  1.00  0.00     0.108 A 
HETATM   17  C   UNL     1     -44.322 -47.313  10.026  1.00  0.00     0.049 A 
HETATM   18  C   UNL     1     -45.493 -47.678   9.365  1.00  0.00     0.005 A 
HETATM   19  C   UNL     1     -45.418 -48.166   8.067  1.00  0.00     0.017 A 
HETATM   20  C   UNL     1     -44.169 -48.267   7.482  1.00  0.00     0.089 A 
HETATM   21  N   UNL     1     -43.018 -47.923   8.101  1.00  0.00    -0.352 N 
ATOM     22  HN  UNL     1     -42.116 -48.016   7.633  1.00  0.00     0.166 HD
ENDBRANCH   4  16
TORSDOF 4
ENDMDL
MODEL 3
REMARK VINA RESULT:      -6.4      1.724      2.351
REMARK  4 active torsions:
REMARK  status: ('A' for Active; 'I' for Inactive)
REMARK       I    between atoms: C_2  and  N_3 
REMARK       I    between atoms: C_2  and  N_13 
REMARK    1  A    between atoms: N_3  and  C_4 
REMARK    2  A    between atoms: C_4  and  C_5 
REMARK    3  A    between atoms: C_5  and  N_6 
REMARK    4  A    between atoms: N_13  and  C_14 
ROOT
HETATM    1  O   UNL     1     -39.459 -51.333  12.247  1.00  0.00    -0.247 OA
HETATM    2  C   UNL     1     -40.475 -50.747  11.877  1.00  0.00     0.321 C 
HETATM    3  N   UNL     1     -41.690 -51.343  11.802  1.00  0.00    -0.341 N 
HETATM    4  N   UNL     1     -40.399 -49.442  11.504  1.00  0.00    -0.295 N 
HETATM    5  H   UNL     1     -42.468 -50.737  11.546  1.00  0.00     0.164 HD
HETATM    6  H   UNL     1     -39.458 -49.079  11.555  1.00  0.00     0.172 HD
ENDROOT
BRANCH   3   7
HETATM    7  C   UNL     1     -41.930 -52.716  12.176  1.00  0.00     0.144 C 
BRANCH   7   8
HETATM    8  C   UNL     1     -42.663 -52.843  13.517  1.00  0.00     0.154 C 
BRANCH   8   9
HETATM    9  N   UNL     1     -44.062 -52.472  13.397  1.00  0.00    -0.287 N 
HETATM   10  C   UNL     1     -45.024 -53.311  12.914  1.00  0.00     0.226 C 
HETATM   11  O   UNL     1     -44.866 -54.453  12.508  1.00  0.00    -0.273 OA
HETATM   12  C   UNL     1     -46.339 -52.586  12.904  1.00  0.00     0.112 C 
HETATM   13  C   UNL     1     -46.048 -51.291  13.638  1.00  0.00     0.112 C 
HETATM   14  C   UNL     1     -44.551 -51.230  13.684  1.00  0.00     0.226 C 
HETATM   15  O   UNL     1     -43.913 -50.228  13.960  1.00  0.00    -0.273 OA
ENDBRANCH   8   9
ENDBRANCH   7   8
ENDBRANCH   3   7
BRANCH   4  16
HETATM   16  C   UNL     1     -41.416 -48.581  11.082  1.00  0.00     0.108 A 
HETATM   17  C   UNL     1     -42.075 -47.838  12.056  1.00  0.00     0.049 A 
HETATM   18  C   UNL     1     -43.101 -46.978  11.671  1.00  0.00     0.005 A 
HETATM   19  C   UNL     1     -43.439 -46.881  10.328  1.00  0.00     0.017 A 
HETATM   20  C   UNL     1     -42.733 -47.653   9.423  1.00  0.00     0.089 A 
HETATM   21  N   UNL     1     -41.736 -48.497   9.770  1.00  0.00    -0.352 N 
ATOM     22  HN  UNL     1     -41.242 -49.050   9.069  1.00  0.00     0.166 HD
ENDBRANCH   4  16
TORSDOF 4
ENDMDL
MODEL 4
REMARK VINA RESULT:      -6.1      1.917      2.716
REMARK  4 active torsions:
REMARK  status: ('A' for Active; 'I' for Inactive)
REMARK       I    between atoms: C_2  and  N_3 
REMARK       I    between atoms: C_2  and  N_13 
REMARK    1  A    between atoms: N_3  and  C_4 
REMARK    2  A    between atoms: C_4  and  C_5 
REMARK    3  A    between atoms: C_5  and  N_6 
REMARK    4  A    between atoms: N_13  and  C_14 
ROOT
HETATM    1  O   UNL     1     -40.075 -52.395  12.422  1.00  0.00    -0.247 OA
HETATM    2  C   UNL     1     -40.959 -51.576  12.178  1.00  0.00     0.321 C 
HETATM    3  N   UNL     1     -42.280 -51.851  12.302  1.00  0.00    -0.341 N 
HETATM    4  N   UNL     1     -40.621 -50.332  11.746  1.00  0.00    -0.295 N 
HETATM    5  H   UNL     1     -42.914 -51.071  12.136  1.00  0.00     0.164 HD
HETATM    6  H   UNL     1     -39.623 -50.215  11.647  1.00  0.00     0.172 HD
ENDROOT
BRANCH   3   7
HETATM    7  C   UNL     1     -42.792 -53.119  12.762  1.00  0.00     0.144 C 
BRANCH   7   8
HETATM    8  C   UNL     1     -44.225 -53.386  12.287  1.00  0.00     0.154 C 
BRANCH   8   9
HETATM    9  N   UNL     1     -45.200 -52.995  13.290  1.00  0.00    -0.287 N 
HETATM   10  C   UNL     1     -45.540 -51.697  13.542  1.00  0.00     0.226 C 
HETATM   11  O   UNL     1     -45.086 -50.700  13.000  1.00  0.00    -0.273 OA
HETATM   12  C   UNL     1     -46.546 -51.668  14.656  1.00  0.00     0.112 C 
HETATM   13  C   UNL     1     -46.897 -53.128  14.871  1.00  0.00     0.112 C 
HETATM   14  C   UNL     1     -45.824 -53.869  14.131  1.00  0.00     0.226 C 
HETATM   15  O   UNL     1     -45.594 -55.060  14.267  1.00  0.00    -0.273 OA
ENDBRANCH   8   9
ENDBRANCH   7   8
ENDBRANCH   3   7
BRANCH   4  16
HETATM   16  C   UNL     1     -41.446 -49.246  11.440  1.00  0.00     0.108 A 
HETATM   17  C   UNL     1     -42.134 -48.646  12.489  1.00  0.00     0.049 A 
HETATM   18  C   UNL     1     -42.974 -47.568  12.218  1.00  0.00     0.005 A 
HETATM   19  C   UNL     1     -43.102 -47.118  10.910  1.00  0.00     0.017 A 
HETATM   20  C   UNL     1     -42.381 -47.769   9.925  1.00  0.00     0.089 A 
HETATM   21  N   UNL     1     -41.563 -48.819  10.162  1.00  0.00    -0.352 N 
ATOM     22  HN  UNL     1     -41.051 -49.271   9.404  1.00  0.00     0.166 HD
ENDBRANCH   4  16
TORSDOF 4
ENDMDL
MODEL 5
REMARK VINA RESULT:      -6.0      4.338      8.607
REMARK  4 active torsions:
REMARK  status: ('A' for Active; 'I' for Inactive)
REMARK       I    between atoms: C_2  and  N_3 
REMARK       I    between atoms: C_2  and  N_13 
REMARK    1  A    between atoms: N_3  and  C_4 
REMARK    2  A    between atoms: C_4  and  C_5 
REMARK    3  A    between atoms: C_5  and  N_6 
REMARK    4  A    between atoms: N_13  and  C_14 
ROOT
HETATM    1  O   UNL     1     -42.275 -47.974   9.949  1.00  0.00    -0.247 OA
HETATM    2  C   UNL     1     -41.206 -48.182  10.521  1.00  0.00     0.321 C 
HETATM    3  N   UNL     1     -40.366 -47.189  10.906  1.00  0.00    -0.341 N 
HETATM    4  N   UNL     1     -40.817 -49.459  10.777  1.00  0.00    -0.295 N 
HETATM    5  H   UNL     1     -39.544 -47.482  11.431  1.00  0.00     0.164 HD
HETATM    6  H   UNL     1     -41.477 -50.140  10.432  1.00  0.00     0.172 HD
ENDROOT
BRANCH   3   7
HETATM    7  C   UNL     1     -40.648 -45.787  10.715  1.00  0.00     0.144 C 
BRANCH   7   8
HETATM    8  C   UNL     1     -41.295 -45.141  11.946  1.00  0.00     0.154 C 
BRANCH   8   9
HETATM    9  N   UNL     1     -40.855 -43.767  12.121  1.00  0.00    -0.287 N 
HETATM   10  C   UNL     1     -41.408 -42.711  11.456  1.00  0.00     0.226 C 
HETATM   11  O   UNL     1     -42.310 -42.753  10.632  1.00  0.00    -0.273 OA
HETATM   12  C   UNL     1     -40.688 -41.457  11.857  1.00  0.00     0.112 C 
HETATM   13  C   UNL     1     -39.787 -41.899  12.995  1.00  0.00     0.112 C 
HETATM   14  C   UNL     1     -39.803 -43.396  12.906  1.00  0.00     0.226 C 
HETATM   15  O   UNL     1     -39.009 -44.125  13.477  1.00  0.00    -0.273 OA
ENDBRANCH   8   9
ENDBRANCH   7   8
ENDBRANCH   3   7
BRANCH   4  16
HETATM   16  C   UNL     1     -39.672 -49.921  11.432  1.00  0.00     0.108 A 
HETATM   17  C   UNL     1     -39.813 -50.351  12.747  1.00  0.00     0.049 A 
HETATM   18  C   UNL     1     -38.690 -50.809  13.432  1.00  0.00     0.005 A 
HETATM   19  C   UNL     1     -37.460 -50.826  12.787  1.00  0.00     0.017 A 
HETATM   20  C   UNL     1     -37.406 -50.384  11.478  1.00  0.00     0.089 A 
HETATM   21  N   UNL     1     -38.481 -49.933  10.792  1.00  0.00    -0.352 N 
ATOM     22  HN  UNL     1     -38.396 -49.613   9.827  1.00  0.00     0.166 HD
ENDBRANCH   4  16
TORSDOF 4
ENDMDL
MODEL 6
REMARK VINA RESULT:      -5.9      2.045      2.815
REMARK  4 active torsions:
REMARK  status: ('A' for Active; 'I' for Inactive)
REMARK       I    between atoms: C_2  and  N_3 
REMARK       I    between atoms: C_2  and  N_13 
REMARK    1  A    between atoms: N_3  and  C_4 
REMARK    2  A    between atoms: C_4  and  C_5 
REMARK    3  A    between atoms: C_5  and  N_6 
REMARK    4  A    between atoms: N_13  and  C_14 
ROOT
HETATM    1  O   UNL     1     -40.670 -53.453  12.053  1.00  0.00    -0.247 OA
HETATM    2  C   UNL     1     -40.807 -52.260  12.316  1.00  0.00     0.321 C 
HETATM    3  N   UNL     1     -41.103 -51.802  13.557  1.00  0.00    -0.341 N 
HETATM    4  N   UNL     1     -40.676 -51.335  11.327  1.00  0.00    -0.295 N 
HETATM    5  H   UNL     1     -41.125 -50.789  13.664  1.00  0.00     0.164 HD
HETATM    6  H   UNL     1     -40.490 -51.754  10.429  1.00  0.00     0.172 HD
ENDROOT
BRANCH   3   7
HETATM    7  C   UNL     1     -41.259 -52.660  14.707  1.00  0.00     0.144 C 
BRANCH   7   8
HETATM    8  C   UNL     1     -42.644 -52.537  15.353  1.00  0.00     0.154 C 
BRANCH   8   9
HETATM    9  N   UNL     1     -43.666 -53.182  14.546  1.00  0.00    -0.287 N 
HETATM   10  C   UNL     1     -43.977 -54.507  14.645  1.00  0.00     0.226 C 
HETATM   11  O   UNL     1     -43.456 -55.330  15.383  1.00  0.00    -0.273 OA
HETATM   12  C   UNL     1     -45.049 -54.829  13.645  1.00  0.00     0.112 C 
HETATM   13  C   UNL     1     -45.462 -53.474  13.102  1.00  0.00     0.112 C 
HETATM   14  C   UNL     1     -44.371 -52.554  13.561  1.00  0.00     0.226 C 
HETATM   15  O   UNL     1     -44.191 -51.430  13.121  1.00  0.00    -0.273 OA
ENDBRANCH   8   9
ENDBRANCH   7   8
ENDBRANCH   3   7
BRANCH   4  16
HETATM   16  C   UNL     1     -40.761 -49.942  11.402  1.00  0.00     0.108 A 
HETATM   17  C   UNL     1     -39.601 -49.243  11.717  1.00  0.00     0.049 A 
HETATM   18  C   UNL     1     -39.653 -47.853  11.809  1.00  0.00     0.005 A 
HETATM   19  C   UNL     1     -40.859 -47.202  11.584  1.00  0.00     0.017 A 
HETATM   20  C   UNL     1     -41.965 -47.971  11.273  1.00  0.00     0.089 A 
HETATM   21  N   UNL     1     -41.942 -49.320  11.180  1.00  0.00    -0.352 N 
ATOM     22  HN  UNL     1     -42.783 -49.848  10.950  1.00  0.00     0.166 HD
ENDBRANCH   4  16
TORSDOF 4
ENDMDL
MODEL 7
REMARK VINA RESULT:      -5.9      3.450      6.280
REMARK  4 active torsions:
REMARK  status: ('A' for Active; 'I' for Inactive)
REMARK       I    between atoms: C_2  and  N_3 
REMARK       I    between atoms: C_2  and  N_13 
REMARK    1  A    between atoms: N_3  and  C_4 
REMARK    2  A    between atoms: C_4  and  C_5 
REMARK    3  A    between atoms: C_5  and  N_6 
REMARK    4  A    between atoms: N_13  and  C_14 
ROOT
HETATM    1  O   UNL     1     -42.975 -55.753  15.981  1.00  0.00    -0.247 OA
HETATM    2  C   UNL     1     -43.346 -54.792  15.311  1.00  0.00     0.321 C 
HETATM    3  N   UNL     1     -42.489 -53.966  14.661  1.00  0.00    -0.341 N 
HETATM    4  N   UNL     1     -44.672 -54.512  15.213  1.00  0.00    -0.295 N 
HETATM    5  H   UNL     1     -42.918 -53.245  14.083  1.00  0.00     0.164 HD
HETATM    6  H   UNL     1     -45.242 -55.149  15.750  1.00  0.00     0.172 HD
ENDROOT
BRANCH   3   7
HETATM    7  C   UNL     1     -41.057 -54.142  14.660  1.00  0.00     0.144 C 
BRANCH   7   8
HETATM    8  C   UNL     1     -40.437 -53.936  13.272  1.00  0.00     0.154 C 
BRANCH   8   9
HETATM    9  N   UNL     1     -40.472 -52.538  12.876  1.00  0.00    -0.287 N 
HETATM   10  C   UNL     1     -41.556 -51.950  12.291  1.00  0.00     0.226 C 
HETATM   11  O   UNL     1     -42.617 -52.486  12.004  1.00  0.00    -0.273 OA
HETATM   12  C   UNL     1     -41.226 -50.516  11.992  1.00  0.00     0.112 C 
HETATM   13  C   UNL     1     -39.886 -50.300  12.670  1.00  0.00     0.112 C 
HETATM   14  C   UNL     1     -39.410 -51.688  12.979  1.00  0.00     0.226 C 
HETATM   15  O   UNL     1     -38.264 -51.966  13.292  1.00  0.00    -0.273 OA
ENDBRANCH   8   9
ENDBRANCH   7   8
ENDBRANCH   3   7
BRANCH   4  16
HETATM   16  C   UNL     1     -45.313 -53.500  14.492  1.00  0.00     0.108 A 
HETATM   17  C   UNL     1     -45.886 -52.459  15.215  1.00  0.00     0.049 A 
HETATM   18  C   UNL     1     -46.541 -51.440  14.528  1.00  0.00     0.005 A 
HETATM   19  C   UNL     1     -46.605 -51.486  13.141  1.00  0.00     0.017 A 
HETATM   20  C   UNL     1     -46.008 -52.555  12.498  1.00  0.00     0.089 A 
HETATM   21  N   UNL     1     -45.369 -53.558  13.142  1.00  0.00    -0.352 N 
ATOM     22  HN  UNL     1     -44.944 -54.330  12.628  1.00  0.00     0.166 HD
ENDBRANCH   4  16
TORSDOF 4
ENDMDL
MODEL 8
REMARK VINA RESULT:      -5.8      4.276      5.836
REMARK  4 active torsions:
REMARK  status: ('A' for Active; 'I' for Inactive)
REMARK       I    between atoms: C_2  and  N_3 
REMARK       I    between atoms: C_2  and  N_13 
REMARK    1  A    between atoms: N_3  and  C_4 
REMARK    2  A    between atoms: C_4  and  C_5 
REMARK    3  A    between atoms: C_5  and  N_6 
REMARK    4  A    between atoms: N_13  and  C_14 
ROOT
HETATM    1  O   UNL     1     -42.789 -55.873  16.253  1.00  0.00    -0.247 OA
HETATM    2  C   UNL     1     -42.650 -54.851  15.584  1.00  0.00     0.321 C 
HETATM    3  N   UNL     1     -43.483 -53.785  15.677  1.00  0.00    -0.341 N 
HETATM    4  N   UNL     1     -41.629 -54.766  14.691  1.00  0.00    -0.295 N 
HETATM    5  H   UNL     1     -43.225 -52.970  15.122  1.00  0.00     0.164 HD
HETATM    6  H   UNL     1     -41.075 -55.609  14.656  1.00  0.00     0.172 HD
ENDROOT
BRANCH   3   7
HETATM    7  C   UNL     1     -44.600 -53.722  16.587  1.00  0.00     0.144 C 
BRANCH   7   8
HETATM    8  C   UNL     1     -45.944 -53.970  15.892  1.00  0.00     0.154 C 
BRANCH   8   9
HETATM    9  N   UNL     1     -46.056 -53.207  14.661  1.00  0.00    -0.287 N 
HETATM   10  C   UNL     1     -46.621 -51.966  14.595  1.00  0.00     0.226 C 
HETATM   11  O   UNL     1     -47.118 -51.335  15.517  1.00  0.00    -0.273 OA
HETATM   12  C   UNL     1     -46.593 -51.497  13.169  1.00  0.00     0.112 C 
HETATM   13  C   UNL     1     -45.751 -52.539  12.457  1.00  0.00     0.112 C 
HETATM   14  C   UNL     1     -45.676 -53.672  13.436  1.00  0.00     0.226 C 
HETATM   15  O   UNL     1     -45.307 -54.800  13.152  1.00  0.00    -0.273 OA
ENDBRANCH   8   9
ENDBRANCH   7   8
ENDBRANCH   3   7
BRANCH   4  16
HETATM   16  C   UNL     1     -41.268 -53.703  13.857  1.00  0.00     0.108 A 
HETATM   17  C   UNL     1     -40.274 -52.841  14.308  1.00  0.00     0.049 A 
HETATM   18  C   UNL     1     -39.897 -51.766  13.506  1.00  0.00     0.005 A 
HETATM   19  C   UNL     1     -40.520 -51.582  12.279  1.00  0.00     0.017 A 
HETATM   20  C   UNL     1     -41.497 -52.486  11.903  1.00  0.00     0.089 A 
HETATM   21  N   UNL     1     -41.883 -53.536  12.664  1.00  0.00    -0.352 N 
ATOM     22  HN  UNL     1     -42.610 -54.178  12.349  1.00  0.00     0.166 HD
ENDBRANCH   4  16
TORSDOF 4
ENDMDL
MODEL 9
REMARK VINA RESULT:      -5.7      3.653      6.346
REMARK  4 active torsions:
REMARK  status: ('A' for Active; 'I' for Inactive)
REMARK       I    between atoms: C_2  and  N_3 
REMARK       I    between atoms: C_2  and  N_13 
REMARK    1  A    between atoms: N_3  and  C_4 
REMARK    2  A    between atoms: C_4  and  C_5 
REMARK    3  A    between atoms: C_5  and  N_6 
REMARK    4  A    between atoms: N_13  and  C_14 
ROOT
HETATM    1  O   UNL     1     -41.436 -54.817  15.051  1.00  0.00    -0.247 OA
HETATM    2  C   UNL     1     -42.168 -54.010  14.480  1.00  0.00     0.321 C 
HETATM    3  N   UNL     1     -41.720 -53.136  13.545  1.00  0.00    -0.341 N 
HETATM    4  N   UNL     1     -43.489 -53.962  14.795  1.00  0.00    -0.295 N 
HETATM    5  H   UNL     1     -42.433 -52.564  13.094  1.00  0.00     0.164 HD
HETATM    6  H   UNL     1     -43.738 -54.618  15.520  1.00  0.00     0.172 HD
ENDROOT
BRANCH   3   7
HETATM    7  C   UNL     1     -40.350 -53.078  13.097  1.00  0.00     0.144 C 
BRANCH   7   8
HETATM    8  C   UNL     1     -39.506 -52.086  13.906  1.00  0.00     0.154 C 
BRANCH   8   9
HETATM    9  N   UNL     1     -39.072 -50.966  13.088  1.00  0.00    -0.287 N 
HETATM   10  C   UNL     1     -37.867 -50.924  12.449  1.00  0.00     0.226 C 
HETATM   11  O   UNL     1     -36.992 -51.777  12.476  1.00  0.00    -0.273 OA
HETATM   12  C   UNL     1     -37.747 -49.612  11.729  1.00  0.00     0.112 C 
HETATM   13  C   UNL     1     -39.124 -48.991  11.865  1.00  0.00     0.112 C 
HETATM   14  C   UNL     1     -39.786 -49.814  12.930  1.00  0.00     0.226 C 
HETATM   15  O   UNL     1     -40.806 -49.486  13.515  1.00  0.00    -0.273 OA
ENDBRANCH   8   9
ENDBRANCH   7   8
ENDBRANCH   3   7
BRANCH   4  16
HETATM   16  C   UNL     1     -44.498 -53.155  14.260  1.00  0.00     0.108 A 
HETATM   17  C   UNL     1     -44.972 -52.111  15.047  1.00  0.00     0.049 A 
HETATM   18  C   UNL     1     -45.984 -51.294  14.547  1.00  0.00     0.005 A 
HETATM   19  C   UNL     1     -46.493 -51.540  13.278  1.00  0.00     0.017 A 
HETATM   20  C   UNL     1     -45.964 -52.597  12.560  1.00  0.00     0.089 A 
HETATM   21  N   UNL     1     -44.984 -53.406  13.023  1.00  0.00    -0.352 N 
ATOM     22  HN  UNL     1     -44.625 -54.177  12.459  1.00  0.00     0.166 HD
ENDBRANCH   4  16
TORSDOF 4
ENDMDL
