MODEL 1
REMARK VINA RESULT:      -6.2      0.000      0.000
REMARK  4 active torsions:
REMARK  status: ('A' for Active; 'I' for Inactive)
REMARK    1  A    between atoms: C_2  and  N_4 
REMARK    2  A    between atoms: C_7  and  C_8 
REMARK    3  A    between atoms: C_8  and  N_9 
REMARK       I    between atoms: N_9  and  C_10 
REMARK       I    between atoms: C_10  and  N_12 
REMARK    4  A    between atoms: N_12  and  C_13 
ROOT
HETATM    1  N   UNL     1     -42.208 -51.856  11.851  1.00  0.00    -0.342 N 
HETATM    2  C   UNL     1     -41.396 -50.753  12.020  1.00  0.00     0.321 C 
HETATM    3  O   UNL     1     -40.444 -50.783  12.792  1.00  0.00    -0.247 OA
HETATM    4  N   UNL     1     -41.772 -49.704  11.218  1.00  0.00    -0.293 N 
HETATM    5  H   UNL     1     -43.162 -51.714  11.538  1.00  0.00     0.164 HD
HETATM    6  H   UNL     1     -42.550 -49.829  10.593  1.00  0.00     0.172 HD
ENDROOT
BRANCH   1   7
HETATM    7  C   UNL     1     -41.987 -53.005  12.706  1.00  0.00     0.130 C 
BRANCH   7   8
HETATM    8  C   UNL     1     -42.905 -53.076  13.930  1.00  0.00     0.033 C 
HETATM    9  C   UNL     1     -43.534 -54.451  14.119  1.00  0.00     0.038 C 
HETATM   10  C   UNL     1     -44.936 -54.341  13.521  1.00  0.00     0.273 C 
HETATM   11  N   UNL     1     -45.079 -52.954  13.035  1.00  0.00     0.092 N 
HETATM   12  C   UNL     1     -44.119 -52.161  13.821  1.00  0.00     0.279 C 
BRANCH  11  13
HETATM   13  C   UNL     1     -46.465 -52.453  13.131  1.00  0.00     0.215 C 
HETATM   14  C   UNL     1     -46.636 -51.452  14.284  1.00  0.00     0.042 C 
HETATM   15  C   UNL     1     -46.887 -51.759  11.828  1.00  0.00     0.042 C 
ENDBRANCH  11  13
ENDBRANCH   7   8
ENDBRANCH   1   7
BRANCH   4  16
HETATM   16  C   UNL     1     -41.073 -48.509  11.156  1.00  0.00     0.132 A 
HETATM   17  C   UNL     1     -41.659 -47.249  10.869  1.00  0.00     0.084 A 
HETATM   18  C   UNL     1     -40.605 -46.367  10.883  1.00  0.00     0.076 A 
HETATM   19  C   UNL     1     -40.440 -44.923  10.649  1.00  0.00     0.079 C 
HETATM   20  O   UNL     1     -39.467 -47.043  11.175  1.00  0.00    -0.241 OA
HETATM   21  N   UNL     1     -39.760 -48.373  11.351  1.00  0.00    -0.245 N 
ATOM     22  HN  UNL     1     -39.100 -49.115  11.587  1.00  0.00     0.196 HD
ENDBRANCH   4  16
TORSDOF 4
ENDMDL
MODEL 2
REMARK VINA RESULT:      -6.1      3.291      7.436
REMARK  4 active torsions:
REMARK  status: ('A' for Active; 'I' for Inactive)
REMARK    1  A    between atoms: C_2  and  N_4 
REMARK    2  A    between atoms: C_7  and  C_8 
REMARK    3  A    between atoms: C_8  and  N_9 
REMARK       I    between atoms: N_9  and  C_10 
REMARK       I    between atoms: C_10  and  N_12 
REMARK    4  A    between atoms: N_12  and  C_13 
ROOT
HETATM    1  N   UNL     1     -40.560 -50.826  11.332  1.00  0.00    -0.342 N 
HETATM    2  C   UNL     1     -41.736 -51.144  11.979  1.00  0.00     0.321 C 
HETATM    3  O   UNL     1     -42.356 -50.297  12.612  1.00  0.00    -0.247 OA
HETATM    4  N   UNL     1     -42.097 -52.454  11.786  1.00  0.00    -0.293 N 
HETATM    5  H   UNL     1     -39.886 -51.564  11.156  1.00  0.00     0.164 HD
HETATM    6  H   UNL     1     -41.518 -53.034  11.202  1.00  0.00     0.172 HD
ENDROOT
BRANCH   1   7
HETATM    7  C   UNL     1     -40.007 -49.501  11.530  1.00  0.00     0.130 C 
BRANCH   7   8
HETATM    8  C   UNL     1     -38.495 -49.469  11.772  1.00  0.00     0.033 C 
HETATM    9  C   UNL     1     -37.924 -50.836  12.129  1.00  0.00     0.038 C 
HETATM   10  C   UNL     1     -37.806 -50.840  13.652  1.00  0.00     0.273 C 
HETATM   11  N   UNL     1     -38.280 -49.521  14.115  1.00  0.00     0.092 N 
HETATM   12  C   UNL     1     -38.099 -48.614  12.970  1.00  0.00     0.279 C 
BRANCH  11  13
HETATM   13  C   UNL     1     -37.589 -49.060  15.337  1.00  0.00     0.215 C 
HETATM   14  C   UNL     1     -36.530 -50.066  15.813  1.00  0.00     0.042 C 
HETATM   15  C   UNL     1     -36.896 -47.712  15.097  1.00  0.00     0.042 C 
ENDBRANCH  11  13
ENDBRANCH   7   8
ENDBRANCH   1   7
BRANCH   4  16
HETATM   16  C   UNL     1     -43.273 -52.996  12.277  1.00  0.00     0.132 A 
HETATM   17  C   UNL     1     -43.349 -54.182  13.053  1.00  0.00     0.084 A 
HETATM   18  C   UNL     1     -44.693 -54.354  13.290  1.00  0.00     0.076 A 
HETATM   19  C   UNL     1     -45.517 -55.357  13.985  1.00  0.00     0.079 C 
HETATM   20  O   UNL     1     -45.377 -53.337  12.713  1.00  0.00    -0.241 OA
HETATM   21  N   UNL     1     -44.493 -52.490  12.090  1.00  0.00    -0.245 N 
ATOM     22  HN  UNL     1     -44.725 -51.637  11.581  1.00  0.00     0.196 HD
ENDBRANCH   4  16
TORSDOF 4
ENDMDL
MODEL 3
REMARK VINA RESULT:      -5.9      2.501      3.623
REMARK  4 active torsions:
REMARK  status: ('A' for Active; 'I' for Inactive)
REMARK    1  A    between atoms: C_2  and  N_4 
REMARK    2  A    between atoms: C_7  and  C_8 
REMARK    3  A    between atoms: C_8  and  N_9 
REMARK       I    between atoms: N_9  and  C_10 
REMARK       I    between atoms: C_10  and  N_12 
REMARK    4  A    between atoms: N_12  and  C_13 
ROOT
HETATM    1  N   UNL     1     -44.076 -53.558  12.283  1.00  0.00    -0.342 N 
HETATM    2  C   UNL     1     -42.898 -53.027  12.768  1.00  0.00     0.321 C 
HETATM    3  O   UNL     1     -42.533 -53.246  13.917  1.00  0.00    -0.247 OA
HETATM    4  N   UNL     1     -42.229 -52.297  11.816  1.00  0.00    -0.293 N 
HETATM    5  H   UNL     1     -44.545 -53.085  11.519  1.00  0.00     0.164 HD
HETATM    6  H   UNL     1     -42.620 -52.234  10.892  1.00  0.00     0.172 HD
ENDROOT
BRANCH   1   7
HETATM    7  C   UNL     1     -44.936 -54.271  13.208  1.00  0.00     0.130 C 
BRANCH   7   8
HETATM    8  C   UNL     1     -46.253 -53.560  13.533  1.00  0.00     0.033 C 
HETATM    9  C   UNL     1     -46.286 -52.120  13.036  1.00  0.00     0.038 C 
HETATM   10  C   UNL     1     -45.939 -51.264  14.252  1.00  0.00     0.273 C 
HETATM   11  N   UNL     1     -45.737 -52.196  15.379  1.00  0.00     0.092 N 
HETATM   12  C   UNL     1     -46.496 -53.407  15.029  1.00  0.00     0.279 C 
BRANCH  11  13
HETATM   13  C   UNL     1     -46.133 -51.617  16.680  1.00  0.00     0.215 C 
HETATM   14  C   UNL     1     -45.341 -50.342  17.007  1.00  0.00     0.042 C 
HETATM   15  C   UNL     1     -47.628 -51.269  16.691  1.00  0.00     0.042 C 
ENDBRANCH  11  13
ENDBRANCH   7   8
ENDBRANCH   1   7
BRANCH   4  16
HETATM   16  C   UNL     1     -40.989 -51.720  12.038  1.00  0.00     0.132 A 
HETATM   17  C   UNL     1     -40.588 -50.456  11.531  1.00  0.00     0.084 A 
HETATM   18  C   UNL     1     -39.294 -50.303  11.969  1.00  0.00     0.076 A 
HETATM   19  C   UNL     1     -38.247 -49.280  11.815  1.00  0.00     0.079 C 
HETATM   20  O   UNL     1     -38.944 -51.389  12.701  1.00  0.00    -0.241 OA
HETATM   21  N   UNL     1     -40.001 -52.265  12.750  1.00  0.00    -0.245 N 
ATOM     22  HN  UNL     1     -40.025 -53.161  13.237  1.00  0.00     0.196 HD
ENDBRANCH   4  16
TORSDOF 4
ENDMDL
MODEL 4
REMARK VINA RESULT:      -5.8      2.543      3.700
REMARK  4 active torsions:
REMARK  status: ('A' for Active; 'I' for Inactive)
REMARK    1  A    between atoms: C_2  and  N_4 
REMARK    2  A    between atoms: C_7  and  C_8 
REMARK    3  A    between atoms: C_8  and  N_9 
REMARK       I    between atoms: N_9  and  C_10 
REMARK       I    between atoms: C_10  and  N_12 
REMARK    4  A    between atoms: N_12  and  C_13 
ROOT
HETATM    1  N   UNL     1     -40.256 -49.889  10.800  1.00  0.00    -0.342 N 
HETATM    2  C   UNL     1     -41.120 -48.814  10.855  1.00  0.00     0.321 C 
HETATM    3  O   UNL     1     -41.229 -48.144  11.875  1.00  0.00    -0.247 OA
HETATM    4  N   UNL     1     -41.764 -48.606   9.660  1.00  0.00    -0.293 N 
HETATM    5  H   UNL     1     -40.446 -50.633  10.138  1.00  0.00     0.164 HD
HETATM    6  H   UNL     1     -41.547 -49.205   8.883  1.00  0.00     0.172 HD
ENDROOT
BRANCH   1   7
HETATM    7  C   UNL     1     -39.580 -50.286  12.020  1.00  0.00     0.130 C 
BRANCH   7   8
HETATM    8  C   UNL     1     -40.060 -51.615  12.612  1.00  0.00     0.033 C 
HETATM    9  C   UNL     1     -41.212 -52.230  11.828  1.00  0.00     0.038 C 
HETATM   10  C   UNL     1     -42.475 -51.844  12.596  1.00  0.00     0.273 C 
HETATM   11  N   UNL     1     -42.034 -51.059  13.765  1.00  0.00     0.092 N 
HETATM   12  C   UNL     1     -40.643 -51.470  14.012  1.00  0.00     0.279 C 
BRANCH  11  13
HETATM   13  C   UNL     1     -42.912 -51.239  14.941  1.00  0.00     0.215 C 
HETATM   14  C   UNL     1     -44.319 -50.672  14.701  1.00  0.00     0.042 C 
HETATM   15  C   UNL     1     -43.048 -52.726  15.297  1.00  0.00     0.042 C 
ENDBRANCH  11  13
ENDBRANCH   7   8
ENDBRANCH   1   7
BRANCH   4  16
HETATM   16  C   UNL     1     -42.630 -47.547   9.442  1.00  0.00     0.132 A 
HETATM   17  C   UNL     1     -44.037 -47.675   9.301  1.00  0.00     0.084 A 
HETATM   18  C   UNL     1     -44.480 -46.394   9.074  1.00  0.00     0.076 A 
HETATM   19  C   UNL     1     -45.785 -45.764   8.813  1.00  0.00     0.079 C 
HETATM   20  O   UNL     1     -43.419 -45.550   9.093  1.00  0.00    -0.241 OA
HETATM   21  N   UNL     1     -42.271 -46.267   9.329  1.00  0.00    -0.245 N 
ATOM     22  HN  UNL     1     -41.325 -45.892   9.404  1.00  0.00     0.196 HD
ENDBRANCH   4  16
TORSDOF 4
ENDMDL
MODEL 5
REMARK VINA RESULT:      -5.7      4.920      6.996
REMARK  4 active torsions:
REMARK  status: ('A' for Active; 'I' for Inactive)
REMARK    1  A    between atoms: C_2  and  N_4 
REMARK    2  A    between atoms: C_7  and  C_8 
REMARK    3  A    between atoms: C_8  and  N_9 
REMARK       I    between atoms: N_9  and  C_10 
REMARK       I    between atoms: C_10  and  N_12 
REMARK    4  A    between atoms: N_12  and  C_13 
ROOT
HETATM    1  N   UNL     1     -41.049 -45.820  11.480  1.00  0.00    -0.342 N 
HETATM    2  C   UNL     1     -41.634 -46.735  10.628  1.00  0.00     0.321 C 
HETATM    3  O   UNL     1     -41.147 -47.848  10.468  1.00  0.00    -0.247 OA
HETATM    4  N   UNL     1     -42.784 -46.249  10.057  1.00  0.00    -0.293 N 
HETATM    5  H   UNL     1     -41.212 -44.832  11.319  1.00  0.00     0.164 HD
HETATM    6  H   UNL     1     -43.099 -45.329  10.312  1.00  0.00     0.172 HD
ENDROOT
BRANCH   1   7
HETATM    7  C   UNL     1     -39.773 -46.162  12.078  1.00  0.00     0.130 C 
BRANCH   7   8
HETATM    8  C   UNL     1     -39.860 -46.673  13.519  1.00  0.00     0.033 C 
HETATM    9  C   UNL     1     -38.667 -46.253  14.368  1.00  0.00     0.038 C 
HETATM   10  C   UNL     1     -37.730 -47.460  14.376  1.00  0.00     0.273 C 
HETATM   11  N   UNL     1     -38.389 -48.509  13.574  1.00  0.00     0.092 N 
HETATM   12  C   UNL     1     -39.826 -48.193  13.617  1.00  0.00     0.279 C 
BRANCH  11  13
HETATM   13  C   UNL     1     -38.079 -49.874  14.049  1.00  0.00     0.215 C 
HETATM   14  C   UNL     1     -37.483 -50.749  12.936  1.00  0.00     0.042 C 
HETATM   15  C   UNL     1     -37.079 -49.832  15.213  1.00  0.00     0.042 C 
ENDBRANCH  11  13
ENDBRANCH   7   8
ENDBRANCH   1   7
BRANCH   4  16
HETATM   16  C   UNL     1     -43.589 -47.003   9.217  1.00  0.00     0.132 A 
HETATM   17  C   UNL     1     -44.943 -47.333   9.486  1.00  0.00     0.084 A 
HETATM   18  C   UNL     1     -45.329 -48.104   8.415  1.00  0.00     0.076 A 
HETATM   19  C   UNL     1     -46.557 -48.812   8.019  1.00  0.00     0.079 C 
HETATM   20  O   UNL     1     -44.289 -48.216   7.553  1.00  0.00    -0.241 OA
HETATM   21  N   UNL     1     -43.210 -47.526   8.050  1.00  0.00    -0.245 N 
ATOM     22  HN  UNL     1     -42.294 -47.431   7.610  1.00  0.00     0.196 HD
ENDBRANCH   4  16
TORSDOF 4
ENDMDL
MODEL 6
REMARK VINA RESULT:      -5.7      1.540      2.314
REMARK  4 active torsions:
REMARK  status: ('A' for Active; 'I' for Inactive)
REMARK    1  A    between atoms: C_2  and  N_4 
REMARK    2  A    between atoms: C_7  and  C_8 
REMARK    3  A    between atoms: C_8  and  N_9 
REMARK       I    between atoms: N_9  and  C_10 
REMARK       I    between atoms: C_10  and  N_12 
REMARK    4  A    between atoms: N_12  and  C_13 
ROOT
HETATM    1  N   UNL     1     -40.218 -50.244  11.797  1.00  0.00    -0.342 N 
HETATM    2  C   UNL     1     -40.791 -49.048  11.414  1.00  0.00     0.321 C 
HETATM    3  O   UNL     1     -41.996 -48.965  11.204  1.00  0.00    -0.247 OA
HETATM    4  N   UNL     1     -39.871 -48.031  11.346  1.00  0.00    -0.293 N 
HETATM    5  H   UNL     1     -39.236 -50.399  11.596  1.00  0.00     0.164 HD
HETATM    6  H   UNL     1     -38.916 -48.227  11.591  1.00  0.00     0.172 HD
ENDROOT
BRANCH   1   7
HETATM    7  C   UNL     1     -41.055 -51.428  11.815  1.00  0.00     0.130 C 
BRANCH   7   8
HETATM    8  C   UNL     1     -41.414 -51.935  13.215  1.00  0.00     0.033 C 
HETATM    9  C   UNL     1     -41.313 -53.450  13.340  1.00  0.00     0.038 C 
HETATM   10  C   UNL     1     -42.741 -53.966  13.177  1.00  0.00     0.273 C 
HETATM   11  N   UNL     1     -43.598 -52.780  12.985  1.00  0.00     0.092 N 
HETATM   12  C   UNL     1     -42.864 -51.661  13.596  1.00  0.00     0.279 C 
BRANCH  11  13
HETATM   13  C   UNL     1     -44.956 -52.958  13.540  1.00  0.00     0.215 C 
HETATM   14  C   UNL     1     -46.022 -52.245  12.693  1.00  0.00     0.042 C 
HETATM   15  C   UNL     1     -45.323 -54.446  13.619  1.00  0.00     0.042 C 
ENDBRANCH  11  13
ENDBRANCH   7   8
ENDBRANCH   1   7
BRANCH   4  16
HETATM   16  C   UNL     1     -40.212 -46.721  11.050  1.00  0.00     0.132 A 
HETATM   17  C   UNL     1     -39.848 -45.599  11.838  1.00  0.00     0.084 A 
HETATM   18  C   UNL     1     -40.416 -44.525  11.194  1.00  0.00     0.076 A 
HETATM   19  C   UNL     1     -40.488 -43.074  11.433  1.00  0.00     0.079 C 
HETATM   20  O   UNL     1     -41.062 -44.966  10.087  1.00  0.00    -0.241 OA
HETATM   21  N   UNL     1     -40.929 -46.330   9.995  1.00  0.00    -0.245 N 
ATOM     22  HN  UNL     1     -41.306 -46.930   9.261  1.00  0.00     0.196 HD
ENDBRANCH   4  16
TORSDOF 4
ENDMDL
MODEL 7
REMARK VINA RESULT:      -5.6      2.781      7.826
REMARK  4 active torsions:
REMARK  status: ('A' for Active; 'I' for Inactive)
REMARK    1  A    between atoms: C_2  and  N_4 
REMARK    2  A    between atoms: C_7  and  C_8 
REMARK    3  A    between atoms: C_8  and  N_9 
REMARK       I    between atoms: N_9  and  C_10 
REMARK       I    between atoms: C_10  and  N_12 
REMARK    4  A    between atoms: N_12  and  C_13 
ROOT
HETATM    1  N   UNL     1     -40.952 -48.822  10.550  1.00  0.00    -0.342 N 
HETATM    2  C   UNL     1     -41.463 -49.683  11.501  1.00  0.00     0.321 C 
HETATM    3  O   UNL     1     -42.188 -49.271  12.398  1.00  0.00    -0.247 OA
HETATM    4  N   UNL     1     -41.086 -50.984  11.277  1.00  0.00    -0.293 N 
HETATM    5  H   UNL     1     -40.091 -49.075  10.077  1.00  0.00     0.164 HD
HETATM    6  H   UNL     1     -40.522 -51.192  10.471  1.00  0.00     0.172 HD
ENDROOT
BRANCH   1   7
HETATM    7  C   UNL     1     -41.187 -47.402  10.717  1.00  0.00     0.130 C 
BRANCH   7   8
HETATM    8  C   UNL     1     -39.940 -46.585  11.068  1.00  0.00     0.033 C 
HETATM    9  C   UNL     1     -39.790 -46.349  12.565  1.00  0.00     0.038 C 
HETATM   10  C   UNL     1     -40.340 -44.945  12.811  1.00  0.00     0.273 C 
HETATM   11  N   UNL     1     -40.763 -44.422  11.497  1.00  0.00     0.092 N 
HETATM   12  C   UNL     1     -39.974 -45.169  10.504  1.00  0.00     0.279 C 
BRANCH  11  13
HETATM   13  C   UNL     1     -40.604 -42.957  11.384  1.00  0.00     0.215 C 
HETATM   14  C   UNL     1     -41.939 -42.254  11.093  1.00  0.00     0.042 C 
HETATM   15  C   UNL     1     -40.024 -42.370  12.678  1.00  0.00     0.042 C 
ENDBRANCH  11  13
ENDBRANCH   7   8
ENDBRANCH   1   7
BRANCH   4  16
HETATM   16  C   UNL     1     -41.527 -52.043  12.054  1.00  0.00     0.132 A 
HETATM   17  C   UNL     1     -40.880 -52.497  13.233  1.00  0.00     0.084 A 
HETATM   18  C   UNL     1     -41.635 -53.568  13.650  1.00  0.00     0.076 A 
HETATM   19  C   UNL     1     -41.565 -54.535  14.758  1.00  0.00     0.079 C 
HETATM   20  O   UNL     1     -42.672 -53.738  12.794  1.00  0.00    -0.241 OA
HETATM   21  N   UNL     1     -42.607 -52.785  11.807  1.00  0.00    -0.245 N 
ATOM     22  HN  UNL     1     -43.261 -52.668  11.032  1.00  0.00     0.196 HD
ENDBRANCH   4  16
TORSDOF 4
ENDMDL
MODEL 8
REMARK VINA RESULT:      -5.6      1.381      1.916
REMARK  4 active torsions:
REMARK  status: ('A' for Active; 'I' for Inactive)
REMARK    1  A    between atoms: C_2  and  N_4 
REMARK    2  A    between atoms: C_7  and  C_8 
REMARK    3  A    between atoms: C_8  and  N_9 
REMARK       I    between atoms: N_9  and  C_10 
REMARK       I    between atoms: C_10  and  N_12 
REMARK    4  A    between atoms: N_12  and  C_13 
ROOT
HETATM    1  N   UNL     1     -42.459 -52.664  12.001  1.00  0.00    -0.342 N 
HETATM    2  C   UNL     1     -41.766 -51.538  12.397  1.00  0.00     0.321 C 
HETATM    3  O   UNL     1     -41.337 -51.431  13.540  1.00  0.00    -0.247 OA
HETATM    4  N   UNL     1     -41.614 -50.636  11.373  1.00  0.00    -0.293 N 
HETATM    5  H   UNL     1     -43.114 -52.586  11.230  1.00  0.00     0.164 HD
HETATM    6  H   UNL     1     -41.978 -50.870  10.465  1.00  0.00     0.172 HD
ENDROOT
BRANCH   1   7
HETATM    7  C   UNL     1     -42.780 -53.658  13.006  1.00  0.00     0.130 C 
BRANCH   7   8
HETATM    8  C   UNL     1     -44.278 -53.866  13.242  1.00  0.00     0.033 C 
HETATM    9  C   UNL     1     -45.142 -52.869  12.480  1.00  0.00     0.038 C 
HETATM   10  C   UNL     1     -45.498 -51.783  13.493  1.00  0.00     0.273 C 
HETATM   11  N   UNL     1     -44.867 -52.175  14.769  1.00  0.00     0.092 N 
HETATM   12  C   UNL     1     -44.694 -53.634  14.690  1.00  0.00     0.279 C 
BRANCH  11  13
HETATM   13  C   UNL     1     -45.645 -51.744  15.949  1.00  0.00     0.215 C 
HETATM   14  C   UNL     1     -45.092 -50.449  16.562  1.00  0.00     0.042 C 
HETATM   15  C   UNL     1     -47.116 -51.509  15.578  1.00  0.00     0.042 C 
ENDBRANCH  11  13
ENDBRANCH   7   8
ENDBRANCH   1   7
BRANCH   4  16
HETATM   16  C   UNL     1     -40.896 -49.458  11.502  1.00  0.00     0.132 A 
HETATM   17  C   UNL     1     -41.301 -48.208  10.967  1.00  0.00     0.084 A 
HETATM   18  C   UNL     1     -40.288 -47.342  11.306  1.00  0.00     0.076 A 
HETATM   19  C   UNL     1     -40.003 -45.916  11.075  1.00  0.00     0.079 C 
HETATM   20  O   UNL     1     -39.348 -48.017  12.011  1.00  0.00    -0.241 OA
HETATM   21  N   UNL     1     -39.730 -49.331  12.138  1.00  0.00    -0.245 N 
ATOM     22  HN  UNL     1     -39.220 -50.068  12.625  1.00  0.00     0.196 HD
ENDBRANCH   4  16
TORSDOF 4
ENDMDL
MODEL 9
REMARK VINA RESULT:      -5.5      2.438      3.182
REMARK  4 active torsions:
REMARK  status: ('A' for Active; 'I' for Inactive)
REMARK    1  A    between atoms: C_2  and  N_4 
REMARK    2  A    between atoms: C_7  and  C_8 
REMARK    3  A    between atoms: C_8  and  N_9 
REMARK       I    between atoms: N_9  and  C_10 
REMARK       I    between atoms: C_10  and  N_12 
REMARK    4  A    between atoms: N_12  and  C_13 
ROOT
HETATM    1  N   UNL     1     -42.145 -54.271  14.422  1.00  0.00    -0.342 N 
HETATM    2  C   UNL     1     -41.657 -53.020  14.101  1.00  0.00     0.321 C 
HETATM    3  O   UNL     1     -41.773 -52.080  14.878  1.00  0.00    -0.247 OA
HETATM    4  N   UNL     1     -41.033 -53.006  12.878  1.00  0.00    -0.293 N 
HETATM    5  H   UNL     1     -42.389 -54.906  13.670  1.00  0.00     0.164 HD
HETATM    6  H   UNL     1     -40.967 -53.865  12.359  1.00  0.00     0.172 HD
ENDROOT
BRANCH   1   7
HETATM    7  C   UNL     1     -42.915 -54.412  15.642  1.00  0.00     0.130 C 
BRANCH   7   8
HETATM    8  C   UNL     1     -44.426 -54.544  15.432  1.00  0.00     0.033 C 
HETATM    9  C   UNL     1     -44.792 -54.963  14.014  1.00  0.00     0.038 C 
HETATM   10  C   UNL     1     -45.167 -53.669  13.293  1.00  0.00     0.273 C 
HETATM   11  N   UNL     1     -45.027 -52.581  14.281  1.00  0.00     0.092 N 
HETATM   12  C   UNL     1     -45.170 -53.224  15.597  1.00  0.00     0.279 C 
BRANCH  11  13
HETATM   13  C   UNL     1     -45.990 -51.481  14.063  1.00  0.00     0.215 C 
HETATM   14  C   UNL     1     -46.709 -51.606  12.711  1.00  0.00     0.042 C 
HETATM   15  C   UNL     1     -47.052 -51.458  15.170  1.00  0.00     0.042 C 
ENDBRANCH  11  13
ENDBRANCH   7   8
ENDBRANCH   1   7
BRANCH   4  16
HETATM   16  C   UNL     1     -40.402 -51.885  12.363  1.00  0.00     0.132 A 
HETATM   17  C   UNL     1     -39.167 -51.370  12.837  1.00  0.00     0.084 A 
HETATM   18  C   UNL     1     -38.941 -50.253  12.068  1.00  0.00     0.076 A 
HETATM   19  C   UNL     1     -37.899 -49.215  12.002  1.00  0.00     0.079 C 
HETATM   20  O   UNL     1     -39.958 -50.113  11.182  1.00  0.00    -0.241 OA
HETATM   21  N   UNL     1     -40.862 -51.132  11.363  1.00  0.00    -0.245 N 
ATOM     22  HN  UNL     1     -41.720 -51.284  10.833  1.00  0.00     0.196 HD
ENDBRANCH   4  16
TORSDOF 4
ENDMDL
