MODEL 1
REMARK VINA RESULT:      -6.0      0.000      0.000
REMARK  2 active torsions:
REMARK  status: ('A' for Active; 'I' for Inactive)
REMARK       I    between atoms: C_2  and  N_3 
REMARK       I    between atoms: C_2  and  N_11 
REMARK    1  A    between atoms: N_3  and  C_4 
REMARK    2  A    between atoms: N_11  and  C_12 
ROOT
HETATM    1  O   UNL     1     -41.441 -52.821  12.090  1.00  0.00    -0.247 OA
HETATM    2  C   UNL     1     -41.561 -51.598  12.052  1.00  0.00     0.322 C 
HETATM    3  N   UNL     1     -42.567 -50.917  12.673  1.00  0.00    -0.338 N 
HETATM    4  N   UNL     1     -40.710 -50.876  11.276  1.00  0.00    -0.288 N 
HETATM    5  H   UNL     1     -42.502 -49.903  12.684  1.00  0.00     0.164 HD
HETATM    6  H   UNL     1     -40.081 -51.416  10.702  1.00  0.00     0.172 HD
ENDROOT
BRANCH   3   7
HETATM    7  C   UNL     1     -43.725 -51.517  13.328  1.00  0.00     0.086 C 
HETATM    8  C   UNL     1     -45.025 -50.802  12.935  1.00  0.00     0.025 C 
HETATM    9  C   UNL     1     -46.269 -51.627  13.260  1.00  0.00     0.002 C 
HETATM   10  C   UNL     1     -46.817 -51.424  14.669  1.00  0.00     0.000 C 
HETATM   11  C   UNL     1     -45.796 -51.359  15.800  1.00  0.00     0.000 C 
HETATM   12  C   UNL     1     -44.603 -52.297  15.642  1.00  0.00     0.002 C 
HETATM   13  C   UNL     1     -43.469 -51.669  14.834  1.00  0.00     0.025 C 
ENDBRANCH   3   7
BRANCH   4  14
HETATM   14  C   UNL     1     -40.746 -49.523  11.111  1.00  0.00     0.168 A 
HETATM   15  N   UNL     1     -41.408 -48.824  10.215  1.00  0.00    -0.279 N 
HETATM   16  N   UNL     1     -41.139 -47.474  10.320  1.00  0.00    -0.303 N 
ATOM     17  HN  UNL     1     -42.043 -49.229   9.526  1.00  0.00     0.189 HD
HETATM   18  C   UNL     1     -40.273 -47.227  11.280  1.00  0.00     0.160 A 
ATOM     19  HN  UNL     1     -41.558 -46.758   9.727  1.00  0.00     0.186 HD
HETATM   20  S   UNL     1     -39.776 -48.609  12.172  1.00  0.00    -0.046 SA
ENDBRANCH   4  14
TORSDOF 2
ENDMDL
MODEL 2
REMARK VINA RESULT:      -5.9      2.038      2.173
REMARK  2 active torsions:
REMARK  status: ('A' for Active; 'I' for Inactive)
REMARK       I    between atoms: C_2  and  N_3 
REMARK       I    between atoms: C_2  and  N_11 
REMARK    1  A    between atoms: N_3  and  C_4 
REMARK    2  A    between atoms: N_11  and  C_12 
ROOT
HETATM    1  O   UNL     1     -39.455 -52.963  13.181  1.00  0.00    -0.247 OA
HETATM    2  C   UNL     1     -40.150 -52.053  12.735  1.00  0.00     0.322 C 
HETATM    3  N   UNL     1     -41.514 -52.059  12.765  1.00  0.00    -0.338 N 
HETATM    4  N   UNL     1     -39.548 -51.018  12.091  1.00  0.00    -0.288 N 
HETATM    5  H   UNL     1     -41.987 -51.204  12.487  1.00  0.00     0.164 HD
HETATM    6  H   UNL     1     -38.556 -51.117  11.941  1.00  0.00     0.172 HD
ENDROOT
BRANCH   3   7
HETATM    7  C   UNL     1     -42.353 -53.184  13.165  1.00  0.00     0.086 C 
HETATM    8  C   UNL     1     -43.777 -53.050  12.607  1.00  0.00     0.025 C 
HETATM    9  C   UNL     1     -44.551 -54.367  12.652  1.00  0.00     0.002 C 
HETATM   10  C   UNL     1     -45.300 -54.620  13.956  1.00  0.00     0.000 C 
HETATM   11  C   UNL     1     -44.562 -54.282  15.248  1.00  0.00     0.000 C 
HETATM   12  C   UNL     1     -43.067 -54.583  15.231  1.00  0.00     0.002 C 
HETATM   13  C   UNL     1     -42.243 -53.422  14.678  1.00  0.00     0.025 C 
ENDBRANCH   3   7
BRANCH   4  14
HETATM   14  C   UNL     1     -40.193 -49.961  11.520  1.00  0.00     0.168 A 
HETATM   15  N   UNL     1     -40.607 -49.826  10.279  1.00  0.00    -0.279 N 
HETATM   16  N   UNL     1     -41.157 -48.581  10.056  1.00  0.00    -0.303 N 
ATOM     17  HN  UNL     1     -40.531 -50.554   9.567  1.00  0.00     0.189 HD
HETATM   18  C   UNL     1     -41.114 -47.832  11.138  1.00  0.00     0.160 A 
ATOM     19  HN  UNL     1     -41.549 -48.278   9.164  1.00  0.00     0.186 HD
HETATM   20  S   UNL     1     -40.465 -48.612  12.524  1.00  0.00    -0.046 SA
ENDBRANCH   4  14
TORSDOF 2
ENDMDL
MODEL 3
REMARK VINA RESULT:      -5.8      2.742      3.853
REMARK  2 active torsions:
REMARK  status: ('A' for Active; 'I' for Inactive)
REMARK       I    between atoms: C_2  and  N_3 
REMARK       I    between atoms: C_2  and  N_11 
REMARK    1  A    between atoms: N_3  and  C_4 
REMARK    2  A    between atoms: N_11  and  C_12 
ROOT
HETATM    1  O   UNL     1     -40.132 -48.608  11.815  1.00  0.00    -0.247 OA
HETATM    2  C   UNL     1     -41.222 -48.675  11.249  1.00  0.00     0.322 C 
HETATM    3  N   UNL     1     -42.171 -49.609  11.545  1.00  0.00    -0.338 N 
HETATM    4  N   UNL     1     -41.476 -47.840  10.208  1.00  0.00    -0.288 N 
HETATM    5  H   UNL     1     -43.082 -49.498  11.109  1.00  0.00     0.164 HD
HETATM    6  H   UNL     1     -40.700 -47.271   9.906  1.00  0.00     0.172 HD
ENDROOT
BRANCH   3   7
HETATM    7  C   UNL     1     -41.994 -50.752  12.435  1.00  0.00     0.086 C 
HETATM    8  C   UNL     1     -41.320 -51.927  11.714  1.00  0.00     0.025 C 
HETATM    9  C   UNL     1     -40.757 -52.965  12.684  1.00  0.00     0.002 C 
HETATM   10  C   UNL     1     -41.746 -54.048  13.102  1.00  0.00     0.000 C 
HETATM   11  C   UNL     1     -43.166 -53.593  13.426  1.00  0.00     0.000 C 
HETATM   12  C   UNL     1     -43.262 -52.246  14.137  1.00  0.00     0.002 C 
HETATM   13  C   UNL     1     -43.309 -51.072  13.161  1.00  0.00     0.025 C 
ENDBRANCH   3   7
BRANCH   4  14
HETATM   14  C   UNL     1     -42.622 -47.824   9.468  1.00  0.00     0.168 A 
HETATM   15  N   UNL     1     -42.784 -48.133   8.200  1.00  0.00    -0.279 N 
HETATM   16  N   UNL     1     -44.084 -47.927   7.787  1.00  0.00    -0.303 N 
ATOM     17  HN  UNL     1     -42.040 -48.483   7.596  1.00  0.00     0.189 HD
HETATM   18  C   UNL     1     -44.833 -47.457   8.761  1.00  0.00     0.160 A 
ATOM     19  HN  UNL     1     -44.423 -48.117   6.843  1.00  0.00     0.186 HD
HETATM   20  S   UNL     1     -44.029 -47.297  10.271  1.00  0.00    -0.046 SA
ENDBRANCH   4  14
TORSDOF 2
ENDMDL
MODEL 4
REMARK VINA RESULT:      -5.7      1.708      2.234
REMARK  2 active torsions:
REMARK  status: ('A' for Active; 'I' for Inactive)
REMARK       I    between atoms: C_2  and  N_3 
REMARK       I    between atoms: C_2  and  N_11 
REMARK    1  A    between atoms: N_3  and  C_4 
REMARK    2  A    between atoms: N_11  and  C_12 
ROOT
HETATM    1  O   UNL     1     -41.407 -54.046  14.591  1.00  0.00    -0.247 OA
HETATM    2  C   UNL     1     -41.423 -52.989  13.964  1.00  0.00     0.322 C 
HETATM    3  N   UNL     1     -42.457 -52.100  14.009  1.00  0.00    -0.338 N 
HETATM    4  N   UNL     1     -40.408 -52.718  13.102  1.00  0.00    -0.288 N 
HETATM    5  H   UNL     1     -42.315 -51.202  13.555  1.00  0.00     0.164 HD
HETATM    6  H   UNL     1     -39.741 -53.462  12.967  1.00  0.00     0.172 HD
ENDROOT
BRANCH   3   7
HETATM    7  C   UNL     1     -43.746 -52.322  14.655  1.00  0.00     0.086 C 
HETATM    8  C   UNL     1     -44.626 -53.278  13.839  1.00  0.00     0.025 C 
HETATM    9  C   UNL     1     -45.785 -53.849  14.656  1.00  0.00     0.002 C 
HETATM   10  C   UNL     1     -47.049 -52.996  14.648  1.00  0.00     0.000 C 
HETATM   11  C   UNL     1     -46.862 -51.489  14.794  1.00  0.00     0.000 C 
HETATM   12  C   UNL     1     -45.743 -51.071  15.743  1.00  0.00     0.002 C 
HETATM   13  C   UNL     1     -44.388 -50.982  15.044  1.00  0.00     0.025 C 
ENDBRANCH   3   7
BRANCH   4  14
HETATM   14  C   UNL     1     -40.312 -51.606  12.319  1.00  0.00     0.168 A 
HETATM   15  N   UNL     1     -40.836 -51.390  11.132  1.00  0.00    -0.279 N 
HETATM   16  N   UNL     1     -40.458 -50.165  10.622  1.00  0.00    -0.303 N 
ATOM     17  HN  UNL     1     -41.447 -52.048  10.648  1.00  0.00     0.189 HD
HETATM   18  C   UNL     1     -39.654 -49.526  11.444  1.00  0.00     0.160 A 
ATOM     19  HN  UNL     1     -40.765 -49.800   9.720  1.00  0.00     0.186 HD
HETATM   20  S   UNL     1     -39.353 -50.336  12.929  1.00  0.00    -0.046 SA
ENDBRANCH   4  14
TORSDOF 2
ENDMDL
MODEL 5
REMARK VINA RESULT:      -5.5      2.392      5.954
REMARK  2 active torsions:
REMARK  status: ('A' for Active; 'I' for Inactive)
REMARK       I    between atoms: C_2  and  N_3 
REMARK       I    between atoms: C_2  and  N_11 
REMARK    1  A    between atoms: N_3  and  C_4 
REMARK    2  A    between atoms: N_11  and  C_12 
ROOT
HETATM    1  O   UNL     1     -39.029 -49.884  11.287  1.00  0.00    -0.247 OA
HETATM    2  C   UNL     1     -40.193 -50.261  11.408  1.00  0.00     0.322 C 
HETATM    3  N   UNL     1     -41.271 -49.520  11.021  1.00  0.00    -0.338 N 
HETATM    4  N   UNL     1     -40.443 -51.436  12.044  1.00  0.00    -0.288 N 
HETATM    5  H   UNL     1     -42.179 -49.975  11.047  1.00  0.00     0.164 HD
HETATM    6  H   UNL     1     -39.642 -51.883  12.462  1.00  0.00     0.172 HD
ENDROOT
BRANCH   3   7
HETATM    7  C   UNL     1     -41.235 -48.134  10.567  1.00  0.00     0.086 C 
HETATM    8  C   UNL     1     -40.522 -47.229  11.581  1.00  0.00     0.025 C 
HETATM    9  C   UNL     1     -40.108 -45.887  10.980  1.00  0.00     0.002 C 
HETATM   10  C   UNL     1     -41.173 -44.798  11.057  1.00  0.00     0.000 C 
HETATM   11  C   UNL     1     -42.604 -45.215  10.733  1.00  0.00     0.000 C 
HETATM   12  C   UNL     1     -42.736 -46.243   9.614  1.00  0.00     0.002 C 
HETATM   13  C   UNL     1     -42.633 -47.679  10.125  1.00  0.00     0.025 C 
ENDBRANCH   3   7
BRANCH   4  14
HETATM   14  C   UNL     1     -41.680 -51.959  12.279  1.00  0.00     0.168 A 
HETATM   15  N   UNL     1     -42.409 -52.726  11.497  1.00  0.00    -0.279 N 
HETATM   16  N   UNL     1     -43.640 -53.000  12.055  1.00  0.00    -0.303 N 
ATOM     17  HN  UNL     1     -42.101 -53.075  10.589  1.00  0.00     0.189 HD
HETATM   18  C   UNL     1     -43.784 -52.411  13.223  1.00  0.00     0.160 A 
ATOM     19  HN  UNL     1     -44.351 -53.586  11.616  1.00  0.00     0.186 HD
HETATM   20  S   UNL     1     -42.406 -51.539  13.762  1.00  0.00    -0.046 SA
ENDBRANCH   4  14
TORSDOF 2
ENDMDL
MODEL 6
REMARK VINA RESULT:      -5.4      2.161      2.692
REMARK  2 active torsions:
REMARK  status: ('A' for Active; 'I' for Inactive)
REMARK       I    between atoms: C_2  and  N_3 
REMARK       I    between atoms: C_2  and  N_11 
REMARK    1  A    between atoms: N_3  and  C_4 
REMARK    2  A    between atoms: N_11  and  C_12 
ROOT
HETATM    1  O   UNL     1     -40.666 -49.882  13.460  1.00  0.00    -0.247 OA
HETATM    2  C   UNL     1     -41.462 -49.470  12.619  1.00  0.00     0.322 C 
HETATM    3  N   UNL     1     -42.717 -49.978  12.454  1.00  0.00    -0.338 N 
HETATM    4  N   UNL     1     -41.055 -48.522  11.735  1.00  0.00    -0.288 N 
HETATM    5  H   UNL     1     -43.337 -49.483  11.819  1.00  0.00     0.164 HD
HETATM    6  H   UNL     1     -40.076 -48.281  11.775  1.00  0.00     0.172 HD
ENDROOT
BRANCH   3   7
HETATM    7  C   UNL     1     -43.250 -51.166  13.113  1.00  0.00     0.086 C 
HETATM    8  C   UNL     1     -42.854 -52.448  12.367  1.00  0.00     0.025 C 
HETATM    9  C   UNL     1     -43.034 -53.702  13.221  1.00  0.00     0.002 C 
HETATM   10  C   UNL     1     -44.423 -54.327  13.149  1.00  0.00     0.000 C 
HETATM   11  C   UNL     1     -45.610 -53.368  13.185  1.00  0.00     0.000 C 
HETATM   12  C   UNL     1     -45.433 -52.163  14.103  1.00  0.00     0.002 C 
HETATM   13  C   UNL     1     -44.748 -50.991  13.401  1.00  0.00     0.025 C 
ENDBRANCH   3   7
BRANCH   4  14
HETATM   14  C   UNL     1     -41.815 -47.998  10.731  1.00  0.00     0.168 A 
HETATM   15  N   UNL     1     -41.935 -48.415   9.490  1.00  0.00    -0.279 N 
HETATM   16  N   UNL     1     -42.747 -47.583   8.747  1.00  0.00    -0.303 N 
ATOM     17  HN  UNL     1     -41.483 -49.253   9.121  1.00  0.00     0.189 HD
HETATM   18  C   UNL     1     -43.186 -46.570   9.464  1.00  0.00     0.160 A 
ATOM     19  HN  UNL     1     -42.980 -47.735   7.765  1.00  0.00     0.186 HD
HETATM   20  S   UNL     1     -42.699 -46.592  11.111  1.00  0.00    -0.046 SA
ENDBRANCH   4  14
TORSDOF 2
ENDMDL
MODEL 7
REMARK VINA RESULT:      -5.4      3.305      3.858
REMARK  2 active torsions:
REMARK  status: ('A' for Active; 'I' for Inactive)
REMARK       I    between atoms: C_2  and  N_3 
REMARK       I    between atoms: C_2  and  N_11 
REMARK    1  A    between atoms: N_3  and  C_4 
REMARK    2  A    between atoms: N_11  and  C_12 
ROOT
HETATM    1  O   UNL     1     -45.807 -53.090  12.140  1.00  0.00    -0.247 OA
HETATM    2  C   UNL     1     -44.700 -53.090  12.673  1.00  0.00     0.322 C 
HETATM    3  N   UNL     1     -44.511 -53.089  14.024  1.00  0.00    -0.338 N 
HETATM    4  N   UNL     1     -43.592 -52.993  11.892  1.00  0.00    -0.288 N 
HETATM    5  H   UNL     1     -43.561 -53.218  14.360  1.00  0.00     0.164 HD
HETATM    6  H   UNL     1     -43.763 -52.832  10.912  1.00  0.00     0.172 HD
ENDROOT
BRANCH   3   7
HETATM    7  C   UNL     1     -45.555 -52.925  15.031  1.00  0.00     0.086 C 
HETATM    8  C   UNL     1     -46.079 -51.483  15.066  1.00  0.00     0.025 C 
HETATM    9  C   UNL     1     -47.418 -51.363  15.794  1.00  0.00     0.002 C 
HETATM   10  C   UNL     1     -47.307 -51.149  17.299  1.00  0.00     0.000 C 
HETATM   11  C   UNL     1     -46.266 -51.985  18.037  1.00  0.00     0.000 C 
HETATM   12  C   UNL     1     -46.105 -53.411  17.520  1.00  0.00     0.002 C 
HETATM   13  C   UNL     1     -45.098 -53.508  16.376  1.00  0.00     0.025 C 
ENDBRANCH   3   7
BRANCH   4  14
HETATM   14  C   UNL     1     -42.306 -52.947  12.345  1.00  0.00     0.168 A 
HETATM   15  N   UNL     1     -41.522 -53.945  12.689  1.00  0.00    -0.279 N 
HETATM   16  N   UNL     1     -40.307 -53.498  13.166  1.00  0.00    -0.303 N 
ATOM     17  HN  UNL     1     -41.780 -54.929  12.612  1.00  0.00     0.189 HD
HETATM   18  C   UNL     1     -40.244 -52.184  13.174  1.00  0.00     0.160 A 
ATOM     19  HN  UNL     1     -39.551 -54.111  13.475  1.00  0.00     0.186 HD
HETATM   20  S   UNL     1     -41.630 -51.395  12.536  1.00  0.00    -0.046 SA
ENDBRANCH   4  14
TORSDOF 2
ENDMDL
MODEL 8
REMARK VINA RESULT:      -5.3      3.422      4.580
REMARK  2 active torsions:
REMARK  status: ('A' for Active; 'I' for Inactive)
REMARK       I    between atoms: C_2  and  N_3 
REMARK       I    between atoms: C_2  and  N_11 
REMARK    1  A    between atoms: N_3  and  C_4 
REMARK    2  A    between atoms: N_11  and  C_12 
ROOT
HETATM    1  O   UNL     1     -41.774 -52.121  11.696  1.00  0.00    -0.247 OA
HETATM    2  C   UNL     1     -41.388 -52.870  12.591  1.00  0.00     0.322 C 
HETATM    3  N   UNL     1     -42.224 -53.634  13.350  1.00  0.00    -0.338 N 
HETATM    4  N   UNL     1     -40.069 -52.881  12.918  1.00  0.00    -0.288 N 
HETATM    5  H   UNL     1     -41.794 -54.311  13.974  1.00  0.00     0.164 HD
HETATM    6  H   UNL     1     -39.499 -52.190  12.453  1.00  0.00     0.172 HD
ENDROOT
BRANCH   3   7
HETATM    7  C   UNL     1     -43.682 -53.570  13.342  1.00  0.00     0.086 C 
HETATM    8  C   UNL     1     -44.189 -52.236  13.908  1.00  0.00     0.025 C 
HETATM    9  C   UNL     1     -45.648 -51.963  13.548  1.00  0.00     0.002 C 
HETATM   10  C   UNL     1     -46.664 -52.538  14.530  1.00  0.00     0.000 C 
HETATM   11  C   UNL     1     -46.399 -53.949  15.044  1.00  0.00     0.000 C 
HETATM   12  C   UNL     1     -45.803 -54.905  14.016  1.00  0.00     0.002 C 
HETATM   13  C   UNL     1     -44.277 -54.838  13.971  1.00  0.00     0.025 C 
ENDBRANCH   3   7
BRANCH   4  14
HETATM   14  C   UNL     1     -39.506 -53.632  13.907  1.00  0.00     0.168 A 
HETATM   15  N   UNL     1     -38.930 -54.811  13.815  1.00  0.00    -0.279 N 
HETATM   16  N   UNL     1     -38.540 -55.287  15.050  1.00  0.00    -0.303 N 
ATOM     17  HN  UNL     1     -38.789 -55.312  12.937  1.00  0.00     0.189 HD
HETATM   18  C   UNL     1     -38.857 -54.449  16.014  1.00  0.00     0.160 A 
ATOM     19  HN  UNL     1     -38.064 -56.177  15.197  1.00  0.00     0.186 HD
HETATM   20  S   UNL     1     -39.590 -52.988  15.482  1.00  0.00    -0.046 SA
ENDBRANCH   4  14
TORSDOF 2
ENDMDL
MODEL 9
REMARK VINA RESULT:      -5.3      2.919      6.185
REMARK  2 active torsions:
REMARK  status: ('A' for Active; 'I' for Inactive)
REMARK       I    between atoms: C_2  and  N_3 
REMARK       I    between atoms: C_2  and  N_11 
REMARK    1  A    between atoms: N_3  and  C_4 
REMARK    2  A    between atoms: N_11  and  C_12 
ROOT
HETATM    1  O   UNL     1     -37.643 -49.861  12.107  1.00  0.00    -0.247 OA
HETATM    2  C   UNL     1     -38.846 -50.108  12.063  1.00  0.00     0.322 C 
HETATM    3  N   UNL     1     -39.810 -49.151  11.936  1.00  0.00    -0.338 N 
HETATM    4  N   UNL     1     -39.263 -51.389  12.243  1.00  0.00    -0.288 N 
HETATM    5  H   UNL     1     -40.762 -49.471  11.782  1.00  0.00     0.164 HD
HETATM    6  H   UNL     1     -38.544 -52.049  12.496  1.00  0.00     0.172 HD
ENDROOT
BRANCH   3   7
HETATM    7  C   UNL     1     -39.594 -47.710  11.995  1.00  0.00     0.086 C 
HETATM    8  C   UNL     1     -39.645 -47.193  13.440  1.00  0.00     0.025 C 
HETATM    9  C   UNL     1     -39.032 -45.801  13.586  1.00  0.00     0.002 C 
HETATM   10  C   UNL     1     -40.005 -44.650  13.351  1.00  0.00     0.000 C 
HETATM   11  C   UNL     1     -40.964 -44.791  12.173  1.00  0.00     0.000 C 
HETATM   12  C   UNL     1     -40.372 -45.469  10.942  1.00  0.00     0.002 C 
HETATM   13  C   UNL     1     -40.505 -46.990  10.991  1.00  0.00     0.025 C 
ENDBRANCH   3   7
BRANCH   4  14
HETATM   14  C   UNL     1     -40.562 -51.804  12.254  1.00  0.00     0.168 A 
HETATM   15  N   UNL     1     -41.260 -52.342  11.278  1.00  0.00    -0.279 N 
HETATM   16  N   UNL     1     -42.570 -52.566  11.649  1.00  0.00    -0.303 N 
ATOM     17  HN  UNL     1     -40.879 -52.567  10.358  1.00  0.00     0.189 HD
HETATM   18  C   UNL     1     -42.798 -52.169  12.883  1.00  0.00     0.160 A 
ATOM     19  HN  UNL     1     -43.274 -52.988  11.043  1.00  0.00     0.186 HD
HETATM   20  S   UNL     1     -41.419 -51.558  13.706  1.00  0.00    -0.046 SA
ENDBRANCH   4  14
TORSDOF 2
ENDMDL
