MODEL 1
REMARK VINA RESULT:      -6.4      0.000      0.000
REMARK  5 active torsions:
REMARK  status: ('A' for Active; 'I' for Inactive)
REMARK    1  A    between atoms: O_2  and  C_3 
REMARK    2  A    between atoms: C_3  and  C_4 
REMARK    3  A    between atoms: C_4  and  N_5 
REMARK    4  A    between atoms: C_8  and  C_13 
REMARK       I    between atoms: C_13  and  N_15 
REMARK    5  A    between atoms: N_15  and  C_16 
ROOT
HETATM    1  N   UNL     1     -43.019 -47.370   9.991  1.00  0.00    -0.255 N 
HETATM    2  N   UNL     1     -43.078 -48.563  10.703  1.00  0.00    -0.290 N 
ATOM      3  HN  UNL     1     -43.271 -49.452  10.241  1.00  0.00     0.187 HD
HETATM    4  C   UNL     1     -42.874 -48.490  11.985  1.00  0.00     0.116 A 
HETATM    5  C   UNL     1     -42.616 -47.246  12.734  1.00  0.00     0.042 A 
HETATM    6  C   UNL     1     -42.554 -46.118  12.028  1.00  0.00     0.078 A 
HETATM    7  C   UNL     1     -42.758 -46.128  10.567  1.00  0.00     0.262 A 
HETATM    8  O   UNL     1     -42.697 -45.065   9.956  1.00  0.00    -0.267 OA
ENDROOT
BRANCH   4   9
HETATM    9  C   UNL     1     -42.909 -49.765  12.829  1.00  0.00     0.269 C 
HETATM   10  O   UNL     1     -41.904 -50.113  13.435  1.00  0.00    -0.266 OA
HETATM   11  N   UNL     1     -44.123 -50.415  12.862  1.00  0.00    -0.351 N 
HETATM   12  H   UNL     1     -44.824 -50.105  12.195  1.00  0.00     0.163 HD
BRANCH  11  13
HETATM   13  C   UNL     1     -44.310 -51.664  13.600  1.00  0.00     0.084 C 
HETATM   14  C   UNL     1     -44.350 -52.853  12.627  1.00  0.00     0.025 C 
HETATM   15  C   UNL     1     -44.184 -54.201  13.327  1.00  0.00     0.002 C 
HETATM   16  C   UNL     1     -45.479 -54.830  13.833  1.00  0.00     0.000 C 
HETATM   17  C   UNL     1     -46.495 -53.890  14.472  1.00  0.00     0.000 C 
HETATM   18  C   UNL     1     -45.891 -52.778  15.325  1.00  0.00     0.002 C 
HETATM   19  C   UNL     1     -45.539 -51.533  14.507  1.00  0.00     0.025 C 
ENDBRANCH  11  13
ENDBRANCH   4   9
BRANCH   1  20
HETATM   20  C   UNL     1     -43.338 -47.433   8.565  1.00  0.00     0.178 C 
BRANCH  20  21
HETATM   21  C   UNL     1     -44.760 -47.919   8.269  1.00  0.00     0.189 C 
BRANCH  21  22
HETATM   22  O   UNL     1     -45.570 -47.728   9.434  1.00  0.00    -0.394 OA
HETATM   23  C   UNL     1     -46.791 -47.069   9.120  1.00  0.00     0.201 C 
ENDBRANCH  21  22
ENDBRANCH  20  21
ENDBRANCH   1  20
TORSDOF 5
ENDMDL
MODEL 2
REMARK VINA RESULT:      -6.2      1.760      2.079
REMARK  5 active torsions:
REMARK  status: ('A' for Active; 'I' for Inactive)
REMARK    1  A    between atoms: O_2  and  C_3 
REMARK    2  A    between atoms: C_3  and  C_4 
REMARK    3  A    between atoms: C_4  and  N_5 
REMARK    4  A    between atoms: C_8  and  C_13 
REMARK       I    between atoms: C_13  and  N_15 
REMARK    5  A    between atoms: N_15  and  C_16 
ROOT
HETATM    1  N   UNL     1     -42.240 -47.249  10.157  1.00  0.00    -0.255 N 
HETATM    2  N   UNL     1     -42.285 -48.577  10.567  1.00  0.00    -0.290 N 
ATOM      3  HN  UNL     1     -43.061 -49.189  10.313  1.00  0.00     0.187 HD
HETATM    4  C   UNL     1     -41.290 -49.000  11.290  1.00  0.00     0.116 A 
HETATM    5  C   UNL     1     -40.146 -48.176  11.724  1.00  0.00     0.042 A 
HETATM    6  C   UNL     1     -40.121 -46.911  11.308  1.00  0.00     0.078 A 
HETATM    7  C   UNL     1     -41.207 -46.368  10.471  1.00  0.00     0.262 A 
HETATM    8  O   UNL     1     -41.147 -45.194  10.115  1.00  0.00    -0.267 OA
ENDROOT
BRANCH   4   9
HETATM    9  C   UNL     1     -41.266 -50.453  11.764  1.00  0.00     0.269 C 
HETATM   10  O   UNL     1     -40.210 -51.072  11.752  1.00  0.00    -0.266 OA
HETATM   11  N   UNL     1     -42.472 -50.946  12.211  1.00  0.00    -0.351 N 
HETATM   12  H   UNL     1     -43.294 -50.380  12.022  1.00  0.00     0.163 HD
BRANCH  11  13
HETATM   13  C   UNL     1     -42.619 -52.327  12.670  1.00  0.00     0.084 C 
HETATM   14  C   UNL     1     -44.097 -52.747  12.618  1.00  0.00     0.025 C 
HETATM   15  C   UNL     1     -44.291 -54.259  12.734  1.00  0.00     0.002 C 
HETATM   16  C   UNL     1     -44.398 -54.789  14.162  1.00  0.00     0.000 C 
HETATM   17  C   UNL     1     -43.458 -54.175  15.194  1.00  0.00     0.000 C 
HETATM   18  C   UNL     1     -42.055 -53.864  14.679  1.00  0.00     0.002 C 
HETATM   19  C   UNL     1     -41.956 -52.475  14.044  1.00  0.00     0.025 C 
ENDBRANCH  11  13
ENDBRANCH   4   9
BRANCH   1  20
HETATM   20  C   UNL     1     -43.400 -46.743   9.423  1.00  0.00     0.178 C 
BRANCH  20  21
HETATM   21  C   UNL     1     -43.667 -47.475   8.105  1.00  0.00     0.189 C 
BRANCH  21  22
HETATM   22  O   UNL     1     -44.937 -48.132   8.185  1.00  0.00    -0.394 OA
HETATM   23  C   UNL     1     -45.792 -47.504   9.132  1.00  0.00     0.201 C 
ENDBRANCH  21  22
ENDBRANCH  20  21
ENDBRANCH   1  20
TORSDOF 5
ENDMDL
MODEL 3
REMARK VINA RESULT:      -5.7      2.758      7.091
REMARK  5 active torsions:
REMARK  status: ('A' for Active; 'I' for Inactive)
REMARK    1  A    between atoms: O_2  and  C_3 
REMARK    2  A    between atoms: C_3  and  C_4 
REMARK    3  A    between atoms: C_4  and  N_5 
REMARK    4  A    between atoms: C_8  and  C_13 
REMARK       I    between atoms: C_13  and  N_15 
REMARK    5  A    between atoms: N_15  and  C_16 
ROOT
HETATM    1  N   UNL     1     -44.128 -53.363  13.410  1.00  0.00    -0.255 N 
HETATM    2  N   UNL     1     -43.537 -52.291  12.750  1.00  0.00    -0.290 N 
ATOM      3  HN  UNL     1     -44.096 -51.575  12.287  1.00  0.00     0.187 HD
HETATM    4  C   UNL     1     -42.237 -52.246  12.755  1.00  0.00     0.116 A 
HETATM    5  C   UNL     1     -41.355 -53.252  13.375  1.00  0.00     0.042 A 
HETATM    6  C   UNL     1     -41.946 -54.263  14.010  1.00  0.00     0.078 A 
HETATM    7  C   UNL     1     -43.416 -54.369  14.061  1.00  0.00     0.262 A 
HETATM    8  O   UNL     1     -43.919 -55.320  14.653  1.00  0.00    -0.267 OA
ENDROOT
BRANCH   4   9
HETATM    9  C   UNL     1     -41.520 -51.087  12.061  1.00  0.00     0.269 C 
HETATM   10  O   UNL     1     -40.345 -51.213  11.740  1.00  0.00    -0.266 OA
HETATM   11  N   UNL     1     -42.296 -49.976  11.818  1.00  0.00    -0.351 N 
HETATM   12  H   UNL     1     -43.205 -49.946  12.272  1.00  0.00     0.163 HD
BRANCH  11  13
HETATM   13  C   UNL     1     -41.748 -48.774  11.190  1.00  0.00     0.084 C 
HETATM   14  C   UNL     1     -40.834 -48.030  12.176  1.00  0.00     0.025 C 
HETATM   15  C   UNL     1     -39.954 -46.981  11.498  1.00  0.00     0.002 C 
HETATM   16  C   UNL     1     -40.588 -45.600  11.356  1.00  0.00     0.000 C 
HETATM   17  C   UNL     1     -42.062 -45.558  10.967  1.00  0.00     0.000 C 
HETATM   18  C   UNL     1     -42.490 -46.618   9.957  1.00  0.00     0.002 C 
HETATM   19  C   UNL     1     -42.898 -47.935  10.621  1.00  0.00     0.025 C 
ENDBRANCH  11  13
ENDBRANCH   4   9
BRANCH   1  20
HETATM   20  C   UNL     1     -45.584 -53.468  13.329  1.00  0.00     0.178 C 
BRANCH  20  21
HETATM   21  C   UNL     1     -46.240 -52.369  12.489  1.00  0.00     0.189 C 
BRANCH  21  22
HETATM   22  O   UNL     1     -46.345 -51.178  13.277  1.00  0.00    -0.394 OA
HETATM   23  C   UNL     1     -46.843 -51.457  14.581  1.00  0.00     0.201 C 
ENDBRANCH  21  22
ENDBRANCH  20  21
ENDBRANCH   1  20
TORSDOF 5
ENDMDL
MODEL 4
REMARK VINA RESULT:      -5.6      4.443      7.431
REMARK  5 active torsions:
REMARK  status: ('A' for Active; 'I' for Inactive)
REMARK    1  A    between atoms: O_2  and  C_3 
REMARK    2  A    between atoms: C_3  and  C_4 
REMARK    3  A    between atoms: C_4  and  N_5 
REMARK    4  A    between atoms: C_8  and  C_13 
REMARK       I    between atoms: C_13  and  N_15 
REMARK    5  A    between atoms: N_15  and  C_16 
ROOT
HETATM    1  N   UNL     1     -44.600 -53.453  13.257  1.00  0.00    -0.255 N 
HETATM    2  N   UNL     1     -43.380 -52.853  12.971  1.00  0.00    -0.290 N 
ATOM      3  HN  UNL     1     -43.311 -52.053  12.341  1.00  0.00     0.187 HD
HETATM    4  C   UNL     1     -42.329 -53.360  13.546  1.00  0.00     0.116 A 
HETATM    5  C   UNL     1     -42.336 -54.529  14.446  1.00  0.00     0.042 A 
HETATM    6  C   UNL     1     -43.519 -55.079  14.713  1.00  0.00     0.078 A 
HETATM    7  C   UNL     1     -44.755 -54.545  14.109  1.00  0.00     0.262 A 
HETATM    8  O   UNL     1     -45.824 -55.085  14.378  1.00  0.00    -0.267 OA
ENDROOT
BRANCH   4   9
HETATM    9  C   UNL     1     -40.955 -52.741  13.289  1.00  0.00     0.269 C 
HETATM   10  O   UNL     1     -40.272 -53.158  12.362  1.00  0.00    -0.266 OA
HETATM   11  N   UNL     1     -40.607 -51.708  14.131  1.00  0.00    -0.351 N 
HETATM   12  H   UNL     1     -41.196 -51.569  14.948  1.00  0.00     0.163 HD
BRANCH  11  13
HETATM   13  C   UNL     1     -39.314 -51.033  14.032  1.00  0.00     0.084 C 
HETATM   14  C   UNL     1     -38.800 -50.665  15.433  1.00  0.00     0.025 C 
HETATM   15  C   UNL     1     -37.319 -50.288  15.444  1.00  0.00     0.002 C 
HETATM   16  C   UNL     1     -37.025 -48.815  15.168  1.00  0.00     0.000 C 
HETATM   17  C   UNL     1     -37.857 -48.141  14.082  1.00  0.00     0.000 C 
HETATM   18  C   UNL     1     -38.166 -49.019  12.873  1.00  0.00     0.002 C 
HETATM   19  C   UNL     1     -39.434 -49.854  13.060  1.00  0.00     0.025 C 
ENDBRANCH  11  13
ENDBRANCH   4   9
BRANCH   1  20
HETATM   20  C   UNL     1     -45.771 -52.946  12.542  1.00  0.00     0.178 C 
BRANCH  20  21
HETATM   21  C   UNL     1     -46.164 -51.518  12.931  1.00  0.00     0.189 C 
BRANCH  21  22
HETATM   22  O   UNL     1     -45.785 -51.284  14.292  1.00  0.00    -0.394 OA
HETATM   23  C   UNL     1     -46.888 -51.439  15.177  1.00  0.00     0.201 C 
ENDBRANCH  21  22
ENDBRANCH  20  21
ENDBRANCH   1  20
TORSDOF 5
ENDMDL
MODEL 5
REMARK VINA RESULT:      -5.3      4.476      7.433
REMARK  5 active torsions:
REMARK  status: ('A' for Active; 'I' for Inactive)
REMARK    1  A    between atoms: O_2  and  C_3 
REMARK    2  A    between atoms: C_3  and  C_4 
REMARK    3  A    between atoms: C_4  and  N_5 
REMARK    4  A    between atoms: C_8  and  C_13 
REMARK       I    between atoms: C_13  and  N_15 
REMARK    5  A    between atoms: N_15  and  C_16 
ROOT
HETATM    1  N   UNL     1     -45.044 -53.301  13.647  1.00  0.00    -0.255 N 
HETATM    2  N   UNL     1     -43.869 -52.689  13.226  1.00  0.00    -0.290 N 
ATOM      3  HN  UNL     1     -43.880 -51.818  12.694  1.00  0.00     0.187 HD
HETATM    4  C   UNL     1     -42.755 -53.281  13.544  1.00  0.00     0.116 A 
HETATM    5  C   UNL     1     -42.651 -54.551  14.285  1.00  0.00     0.042 A 
HETATM    6  C   UNL     1     -43.791 -55.111  14.687  1.00  0.00     0.078 A 
HETATM    7  C   UNL     1     -45.091 -54.487  14.377  1.00  0.00     0.262 A 
HETATM    8  O   UNL     1     -46.117 -55.040  14.761  1.00  0.00    -0.267 OA
ENDROOT
BRANCH   4   9
HETATM    9  C   UNL     1     -41.423 -52.656  13.127  1.00  0.00     0.269 C 
HETATM   10  O   UNL     1     -40.673 -53.279  12.386  1.00  0.00    -0.266 OA
HETATM   11  N   UNL     1     -41.191 -51.387  13.609  1.00  0.00    -0.351 N 
HETATM   12  H   UNL     1     -41.821 -51.053  14.333  1.00  0.00     0.163 HD
BRANCH  11  13
HETATM   13  C   UNL     1     -39.950 -50.668  13.324  1.00  0.00     0.084 C 
HETATM   14  C   UNL     1     -39.898 -50.271  11.840  1.00  0.00     0.025 C 
HETATM   15  C   UNL     1     -38.826 -49.224  11.540  1.00  0.00     0.002 C 
HETATM   16  C   UNL     1     -37.441 -49.787  11.231  1.00  0.00     0.000 C 
HETATM   17  C   UNL     1     -36.975 -50.967  12.078  1.00  0.00     0.000 C 
HETATM   18  C   UNL     1     -37.378 -50.900  13.548  1.00  0.00     0.002 C 
HETATM   19  C   UNL     1     -38.760 -51.504  13.808  1.00  0.00     0.025 C 
ENDBRANCH  11  13
ENDBRANCH   4   9
BRANCH   1  20
HETATM   20  C   UNL     1     -46.301 -52.690  13.213  1.00  0.00     0.178 C 
BRANCH  20  21
HETATM   21  C   UNL     1     -46.619 -51.365  13.912  1.00  0.00     0.189 C 
BRANCH  21  22
HETATM   22  O   UNL     1     -47.208 -51.640  15.187  1.00  0.00    -0.394 OA
HETATM   23  C   UNL     1     -46.382 -51.187  16.253  1.00  0.00     0.201 C 
ENDBRANCH  21  22
ENDBRANCH  20  21
ENDBRANCH   1  20
TORSDOF 5
ENDMDL
MODEL 6
REMARK VINA RESULT:      -5.1      5.482      7.703
REMARK  5 active torsions:
REMARK  status: ('A' for Active; 'I' for Inactive)
REMARK    1  A    between atoms: O_2  and  C_3 
REMARK    2  A    between atoms: C_3  and  C_4 
REMARK    3  A    between atoms: C_4  and  N_5 
REMARK    4  A    between atoms: C_8  and  C_13 
REMARK       I    between atoms: C_13  and  N_15 
REMARK    5  A    between atoms: N_15  and  C_16 
ROOT
HETATM    1  N   UNL     1     -39.902 -54.592  15.085  1.00  0.00    -0.255 N 
HETATM    2  N   UNL     1     -41.255 -54.273  15.050  1.00  0.00    -0.290 N 
ATOM      3  HN  UNL     1     -41.614 -53.527  14.454  1.00  0.00     0.187 HD
HETATM    4  C   UNL     1     -42.041 -54.974  15.814  1.00  0.00     0.116 A 
HETATM    5  C   UNL     1     -41.603 -56.049  16.723  1.00  0.00     0.042 A 
HETATM    6  C   UNL     1     -40.304 -56.343  16.729  1.00  0.00     0.078 A 
HETATM    7  C   UNL     1     -39.357 -55.601  15.876  1.00  0.00     0.262 A 
HETATM    8  O   UNL     1     -38.166 -55.901  15.917  1.00  0.00    -0.267 OA
ENDROOT
BRANCH   4   9
HETATM    9  C   UNL     1     -43.543 -54.688  15.815  1.00  0.00     0.269 C 
HETATM   10  O   UNL     1     -44.271 -55.294  15.040  1.00  0.00    -0.266 OA
HETATM   11  N   UNL     1     -43.965 -53.765  16.746  1.00  0.00    -0.351 N 
HETATM   12  H   UNL     1     -43.242 -53.228  17.217  1.00  0.00     0.163 HD
BRANCH  11  13
HETATM   13  C   UNL     1     -45.367 -53.362  16.853  1.00  0.00     0.084 C 
HETATM   14  C   UNL     1     -45.659 -52.202  15.887  1.00  0.00     0.025 C 
HETATM   15  C   UNL     1     -47.154 -51.964  15.677  1.00  0.00     0.002 C 
HETATM   16  C   UNL     1     -47.807 -51.023  16.687  1.00  0.00     0.000 C 
HETATM   17  C   UNL     1     -47.372 -51.168  18.141  1.00  0.00     0.000 C 
HETATM   18  C   UNL     1     -47.128 -52.604  18.597  1.00  0.00     0.002 C 
HETATM   19  C   UNL     1     -45.698 -53.075  18.322  1.00  0.00     0.025 C 
ENDBRANCH  11  13
ENDBRANCH   4   9
BRANCH   1  20
HETATM   20  C   UNL     1     -39.003 -53.748  14.299  1.00  0.00     0.178 C 
BRANCH  20  21
HETATM   21  C   UNL     1     -39.707 -52.595  13.578  1.00  0.00     0.189 C 
BRANCH  21  22
HETATM   22  O   UNL     1     -40.325 -53.096  12.388  1.00  0.00    -0.394 OA
HETATM   23  C   UNL     1     -41.393 -52.258  11.961  1.00  0.00     0.201 C 
ENDBRANCH  21  22
ENDBRANCH  20  21
ENDBRANCH   1  20
TORSDOF 5
ENDMDL
MODEL 7
REMARK VINA RESULT:      -5.1      3.374      8.226
REMARK  5 active torsions:
REMARK  status: ('A' for Active; 'I' for Inactive)
REMARK    1  A    between atoms: O_2  and  C_3 
REMARK    2  A    between atoms: C_3  and  C_4 
REMARK    3  A    between atoms: C_4  and  N_5 
REMARK    4  A    between atoms: C_8  and  C_13 
REMARK       I    between atoms: C_13  and  N_15 
REMARK    5  A    between atoms: N_15  and  C_16 
ROOT
HETATM    1  N   UNL     1     -43.033 -54.596  14.466  1.00  0.00    -0.255 N 
HETATM    2  N   UNL     1     -42.139 -53.650  13.975  1.00  0.00    -0.290 N 
ATOM      3  HN  UNL     1     -41.211 -53.530  14.382  1.00  0.00     0.187 HD
HETATM    4  C   UNL     1     -42.545 -52.927  12.973  1.00  0.00     0.116 A 
HETATM    5  C   UNL     1     -43.876 -53.016  12.345  1.00  0.00     0.042 A 
HETATM    6  C   UNL     1     -44.709 -53.938  12.826  1.00  0.00     0.078 A 
HETATM    7  C   UNL     1     -44.311 -54.805  13.950  1.00  0.00     0.262 A 
HETATM    8  O   UNL     1     -45.112 -55.638  14.366  1.00  0.00    -0.267 OA
ENDROOT
BRANCH   4   9
HETATM    9  C   UNL     1     -41.608 -51.877  12.373  1.00  0.00     0.269 C 
HETATM   10  O   UNL     1     -40.485 -52.208  12.015  1.00  0.00    -0.266 OA
HETATM   11  N   UNL     1     -42.142 -50.613  12.252  1.00  0.00    -0.351 N 
HETATM   12  H   UNL     1     -43.024 -50.443  12.728  1.00  0.00     0.163 HD
BRANCH  11  13
HETATM   13  C   UNL     1     -41.363 -49.494  11.725  1.00  0.00     0.084 C 
HETATM   14  C   UNL     1     -40.487 -48.889  12.834  1.00  0.00     0.025 C 
HETATM   15  C   UNL     1     -39.395 -47.965  12.295  1.00  0.00     0.002 C 
HETATM   16  C   UNL     1     -39.815 -46.510  12.110  1.00  0.00     0.000 C 
HETATM   17  C   UNL     1     -41.209 -46.263  11.544  1.00  0.00     0.000 C 
HETATM   18  C   UNL     1     -41.646 -47.248  10.463  1.00  0.00     0.002 C 
HETATM   19  C   UNL     1     -42.308 -48.500  11.040  1.00  0.00     0.025 C 
ENDBRANCH  11  13
ENDBRANCH   4   9
BRANCH   1  20
HETATM   20  C   UNL     1     -42.618 -55.347  15.650  1.00  0.00     0.178 C 
BRANCH  20  21
HETATM   21  C   UNL     1     -41.929 -54.492  16.716  1.00  0.00     0.189 C 
BRANCH  21  22
HETATM   22  O   UNL     1     -40.530 -54.415  16.421  1.00  0.00    -0.394 OA
HETATM   23  C   UNL     1     -39.915 -55.697  16.462  1.00  0.00     0.201 C 
ENDBRANCH  21  22
ENDBRANCH  20  21
ENDBRANCH   1  20
TORSDOF 5
ENDMDL
MODEL 8
REMARK VINA RESULT:      -5.0      2.680      3.546
REMARK  5 active torsions:
REMARK  status: ('A' for Active; 'I' for Inactive)
REMARK    1  A    between atoms: O_2  and  C_3 
REMARK    2  A    between atoms: C_3  and  C_4 
REMARK    3  A    between atoms: C_4  and  N_5 
REMARK    4  A    between atoms: C_8  and  C_13 
REMARK       I    between atoms: C_13  and  N_15 
REMARK    5  A    between atoms: N_15  and  C_16 
ROOT
HETATM    1  N   UNL     1     -40.097 -46.115  11.713  1.00  0.00    -0.255 N 
HETATM    2  N   UNL     1     -40.500 -47.402  11.376  1.00  0.00    -0.290 N 
ATOM      3  HN  UNL     1     -41.025 -47.593  10.523  1.00  0.00     0.187 HD
HETATM    4  C   UNL     1     -40.173 -48.352  12.203  1.00  0.00     0.116 A 
HETATM    5  C   UNL     1     -39.442 -48.160  13.469  1.00  0.00     0.042 A 
HETATM    6  C   UNL     1     -39.057 -46.919  13.763  1.00  0.00     0.078 A 
HETATM    7  C   UNL     1     -39.377 -45.795  12.863  1.00  0.00     0.262 A 
HETATM    8  O   UNL     1     -39.009 -44.667  13.175  1.00  0.00    -0.267 OA
ENDROOT
BRANCH   4   9
HETATM    9  C   UNL     1     -40.571 -49.795  11.890  1.00  0.00     0.269 C 
HETATM   10  O   UNL     1     -40.070 -50.360  10.926  1.00  0.00    -0.266 OA
HETATM   11  N   UNL     1     -41.463 -50.364  12.771  1.00  0.00    -0.351 N 
HETATM   12  H   UNL     1     -41.913 -49.738  13.432  1.00  0.00     0.163 HD
BRANCH  11  13
HETATM   13  C   UNL     1     -41.963 -51.727  12.591  1.00  0.00     0.084 C 
HETATM   14  C   UNL     1     -43.442 -51.807  13.001  1.00  0.00     0.025 C 
HETATM   15  C   UNL     1     -44.127 -53.083  12.515  1.00  0.00     0.002 C 
HETATM   16  C   UNL     1     -44.009 -54.279  13.455  1.00  0.00     0.000 C 
HETATM   17  C   UNL     1     -42.659 -54.488  14.135  1.00  0.00     0.000 C 
HETATM   18  C   UNL     1     -41.447 -54.177  13.261  1.00  0.00     0.002 C 
HETATM   19  C   UNL     1     -41.037 -52.704  13.325  1.00  0.00     0.025 C 
ENDBRANCH  11  13
ENDBRANCH   4   9
BRANCH   1  20
HETATM   20  C   UNL     1     -40.540 -45.032  10.835  1.00  0.00     0.178 C 
BRANCH  20  21
HETATM   21  C   UNL     1     -42.057 -44.975  10.638  1.00  0.00     0.189 C 
BRANCH  21  22
HETATM   22  O   UNL     1     -42.389 -45.582   9.385  1.00  0.00    -0.394 OA
HETATM   23  C   UNL     1     -43.492 -46.472   9.511  1.00  0.00     0.201 C 
ENDBRANCH  21  22
ENDBRANCH  20  21
ENDBRANCH   1  20
TORSDOF 5
ENDMDL
MODEL 9
REMARK VINA RESULT:      -5.0     13.224     16.446
REMARK  5 active torsions:
REMARK  status: ('A' for Active; 'I' for Inactive)
REMARK    1  A    between atoms: O_2  and  C_3 
REMARK    2  A    between atoms: C_3  and  C_4 
REMARK    3  A    between atoms: C_4  and  N_5 
REMARK    4  A    between atoms: C_8  and  C_13 
REMARK       I    between atoms: C_13  and  N_15 
REMARK    5  A    between atoms: N_15  and  C_16 
ROOT
HETATM    1  N   UNL     1     -51.470 -55.108  -2.966  1.00  0.00    -0.255 N 
HETATM    2  N   UNL     1     -50.538 -54.211  -2.457  1.00  0.00    -0.290 N 
ATOM      3  HN  UNL     1     -49.625 -54.084  -2.892  1.00  0.00     0.187 HD
HETATM    4  C   UNL     1     -50.889 -53.540  -1.399  1.00  0.00     0.116 A 
HETATM    5  C   UNL     1     -52.176 -53.681  -0.693  1.00  0.00     0.042 A 
HETATM    6  C   UNL     1     -53.056 -54.539  -1.207  1.00  0.00     0.078 A 
HETATM    7  C   UNL     1     -52.733 -55.321  -2.415  1.00  0.00     0.262 A 
HETATM    8  O   UNL     1     -53.571 -56.104  -2.852  1.00  0.00    -0.267 OA
ENDROOT
BRANCH   4   9
HETATM    9  C   UNL     1     -49.919 -52.525  -0.793  1.00  0.00     0.269 C 
HETATM   10  O   UNL     1     -48.845 -52.910  -0.350  1.00  0.00    -0.266 OA
HETATM   11  N   UNL     1     -50.339 -51.214  -0.833  1.00  0.00    -0.351 N 
HETATM   12  H   UNL     1     -51.310 -51.053  -1.086  1.00  0.00     0.163 HD
BRANCH  11  13
HETATM   13  C   UNL     1     -49.537 -50.129  -0.268  1.00  0.00     0.084 C 
HETATM   14  C   UNL     1     -50.189 -49.605   1.021  1.00  0.00     0.025 C 
HETATM   15  C   UNL     1     -49.249 -48.734   1.853  1.00  0.00     0.002 C 
HETATM   16  C   UNL     1     -49.249 -47.251   1.489  1.00  0.00     0.000 C 
HETATM   17  C   UNL     1     -49.304 -46.909   0.004  1.00  0.00     0.000 C 
HETATM   18  C   UNL     1     -48.498 -47.840  -0.898  1.00  0.00     0.002 C 
HETATM   19  C   UNL     1     -49.297 -49.065  -1.346  1.00  0.00     0.025 C 
ENDBRANCH  11  13
ENDBRANCH   4   9
BRANCH   1  20
HETATM   20  C   UNL     1     -51.047 -55.931  -4.099  1.00  0.00     0.178 C 
BRANCH  20  21
HETATM   21  C   UNL     1     -49.607 -55.673  -4.548  1.00  0.00     0.189 C 
BRANCH  21  22
HETATM   22  O   UNL     1     -48.710 -56.168  -3.548  1.00  0.00    -0.394 OA
HETATM   23  C   UNL     1     -48.584 -57.584  -3.613  1.00  0.00     0.201 C 
ENDBRANCH  21  22
ENDBRANCH  20  21
ENDBRANCH   1  20
TORSDOF 5
ENDMDL
