MODEL 1
REMARK VINA RESULT:      -5.1      0.000      0.000
REMARK  4 active torsions:
REMARK  status: ('A' for Active; 'I' for Inactive)
REMARK    1  A    between atoms: O_1  and  C_2 
REMARK    2  A    between atoms: C_2  and  C_3 
REMARK    3  A    between atoms: C_3  and  N_4 
REMARK    4  A    between atoms: C_5  and  C_6 
ROOT
HETATM    1  N   UNL     1     -43.153 -53.369  14.053  1.00  0.00    -0.332 N 
HETATM    2  C   UNL     1     -42.924 -53.294  15.414  1.00  0.00     0.098 A 
HETATM    3  N   UNL     1     -43.915 -52.662  16.017  1.00  0.00    -0.343 N 
ATOM      4  HN  UNL     1     -43.996 -52.460  17.015  1.00  0.00     0.167 HD
HETATM    5  C   UNL     1     -44.812 -52.332  15.037  1.00  0.00     0.060 A 
HETATM    6  C   UNL     1     -46.041 -51.664  15.142  1.00  0.00     0.033 A 
HETATM    7  C   UNL     1     -46.787 -51.435  13.979  1.00  0.00     0.026 A 
HETATM    8  C   UNL     1     -46.314 -51.866  12.739  1.00  0.00     0.036 A 
HETATM    9 CL   UNL     1     -47.255 -51.569  11.327  1.00  0.00    -0.084 Cl
HETATM   10  C   UNL     1     -45.090 -52.533  12.615  1.00  0.00     0.056 A 
HETATM   11  C   UNL     1     -44.360 -52.752  13.791  1.00  0.00     0.064 A 
ENDROOT
BRANCH   1  12
HETATM   12  C   UNL     1     -42.271 -53.923  13.038  1.00  0.00     0.156 C 
BRANCH  12  13
HETATM   13  C   UNL     1     -41.267 -52.914  12.489  1.00  0.00     0.184 C 
BRANCH  13  14
HETATM   14  O   UNL     1     -40.553 -53.459  11.386  1.00  0.00    -0.399 OA
HETATM   15  H   UNL     1     -40.865 -54.373  11.260  1.00  0.00     0.209 HD
ENDBRANCH  13  14
ENDBRANCH  12  13
ENDBRANCH   1  12
BRANCH   2  16
HETATM   16  C   UNL     1     -41.725 -53.832  16.115  1.00  0.00     0.191 C 
HETATM   17 CL   UNL     1     -41.818 -55.601  16.255  1.00  0.00    -0.122 Cl
ENDBRANCH   2  16
TORSDOF 4
ENDMDL
MODEL 2
REMARK VINA RESULT:      -5.1      2.728      5.228
REMARK  4 active torsions:
REMARK  status: ('A' for Active; 'I' for Inactive)
REMARK    1  A    between atoms: O_1  and  C_2 
REMARK    2  A    between atoms: C_2  and  C_3 
REMARK    3  A    between atoms: C_3  and  N_4 
REMARK    4  A    between atoms: C_5  and  C_6 
ROOT
HETATM    1  N   UNL     1     -44.320 -53.257  13.820  1.00  0.00    -0.332 N 
HETATM    2  C   UNL     1     -44.920 -52.177  13.201  1.00  0.00     0.098 A 
HETATM    3  N   UNL     1     -44.020 -51.446  12.566  1.00  0.00    -0.343 N 
ATOM      4  HN  UNL     1     -44.189 -50.590  12.036  1.00  0.00     0.167 HD
HETATM    5  C   UNL     1     -42.817 -52.067  12.762  1.00  0.00     0.060 A 
HETATM    6  C   UNL     1     -41.543 -51.710  12.293  1.00  0.00     0.033 A 
HETATM    7  C   UNL     1     -40.447 -52.513  12.636  1.00  0.00     0.026 A 
HETATM    8  C   UNL     1     -40.623 -53.646  13.431  1.00  0.00     0.036 A 
HETATM    9 CL   UNL     1     -39.255 -54.612  13.835  1.00  0.00    -0.084 Cl
HETATM   10  C   UNL     1     -41.884 -54.017  13.908  1.00  0.00     0.056 A 
HETATM   11  C   UNL     1     -42.967 -53.201  13.553  1.00  0.00     0.064 A 
ENDROOT
BRANCH   1  12
HETATM   12  C   UNL     1     -44.954 -54.252  14.670  1.00  0.00     0.156 C 
BRANCH  12  13
HETATM   13  C   UNL     1     -45.706 -55.327  13.891  1.00  0.00     0.184 C 
BRANCH  13  14
HETATM   14  O   UNL     1     -47.011 -55.519  14.423  1.00  0.00    -0.399 OA
HETATM   15  H   UNL     1     -47.644 -55.129  13.793  1.00  0.00     0.209 HD
ENDBRANCH  13  14
ENDBRANCH  12  13
ENDBRANCH   1  12
BRANCH   2  16
HETATM   16  C   UNL     1     -46.374 -51.858  13.247  1.00  0.00     0.191 C 
HETATM   17 CL   UNL     1     -46.838 -51.267  14.858  1.00  0.00    -0.122 Cl
ENDBRANCH   2  16
TORSDOF 4
ENDMDL
MODEL 3
REMARK VINA RESULT:      -4.9      1.861      2.140
REMARK  4 active torsions:
REMARK  status: ('A' for Active; 'I' for Inactive)
REMARK    1  A    between atoms: O_1  and  C_2 
REMARK    2  A    between atoms: C_2  and  C_3 
REMARK    3  A    between atoms: C_3  and  N_4 
REMARK    4  A    between atoms: C_5  and  C_6 
ROOT
HETATM    1  N   UNL     1     -41.897 -53.083  13.949  1.00  0.00    -0.332 N 
HETATM    2  C   UNL     1     -41.494 -54.140  14.743  1.00  0.00     0.098 A 
HETATM    3  N   UNL     1     -42.517 -54.930  15.019  1.00  0.00    -0.343 N 
ATOM      4  HN  UNL     1     -42.501 -55.775  15.591  1.00  0.00     0.167 HD
HETATM    5  C   UNL     1     -43.600 -54.389  14.383  1.00  0.00     0.060 A 
HETATM    6  C   UNL     1     -44.928 -54.842  14.341  1.00  0.00     0.033 A 
HETATM    7  C   UNL     1     -45.872 -54.104  13.617  1.00  0.00     0.026 A 
HETATM    8  C   UNL     1     -45.496 -52.937  12.950  1.00  0.00     0.036 A 
HETATM    9 CL   UNL     1     -46.682 -52.051  12.068  1.00  0.00    -0.084 Cl
HETATM   10  C   UNL     1     -44.178 -52.469  12.981  1.00  0.00     0.056 A 
HETATM   11  C   UNL     1     -43.249 -53.224  13.710  1.00  0.00     0.064 A 
ENDROOT
BRANCH   1  12
HETATM   12  C   UNL     1     -41.088 -51.965  13.490  1.00  0.00     0.156 C 
BRANCH  12  13
HETATM   13  C   UNL     1     -40.906 -51.928  11.976  1.00  0.00     0.184 C 
BRANCH  13  14
HETATM   14  O   UNL     1     -40.583 -53.219  11.472  1.00  0.00    -0.399 OA
HETATM   15  H   UNL     1     -40.549 -53.827  12.233  1.00  0.00     0.209 HD
ENDBRANCH  13  14
ENDBRANCH  12  13
ENDBRANCH   1  12
BRANCH   2  16
HETATM   16  C   UNL     1     -40.108 -54.362  15.241  1.00  0.00     0.191 C 
HETATM   17 CL   UNL     1     -39.049 -54.920  13.926  1.00  0.00    -0.122 Cl
ENDBRANCH   2  16
TORSDOF 4
ENDMDL
MODEL 4
REMARK VINA RESULT:      -4.9      6.487      8.454
REMARK  4 active torsions:
REMARK  status: ('A' for Active; 'I' for Inactive)
REMARK    1  A    between atoms: O_1  and  C_2 
REMARK    2  A    between atoms: C_2  and  C_3 
REMARK    3  A    between atoms: C_3  and  N_4 
REMARK    4  A    between atoms: C_5  and  C_6 
ROOT
HETATM    1  N   UNL     1     -41.365 -46.684  10.935  1.00  0.00    -0.332 N 
HETATM    2  C   UNL     1     -42.215 -47.352  10.074  1.00  0.00     0.098 A 
HETATM    3  N   UNL     1     -41.975 -48.652  10.102  1.00  0.00    -0.343 N 
ATOM      4  HN  UNL     1     -42.450 -49.374   9.559  1.00  0.00     0.167 HD
HETATM    5  C   UNL     1     -40.964 -48.835  11.006  1.00  0.00     0.060 A 
HETATM    6  C   UNL     1     -40.342 -50.023  11.418  1.00  0.00     0.033 A 
HETATM    7  C   UNL     1     -39.313 -49.954  12.365  1.00  0.00     0.026 A 
HETATM    8  C   UNL     1     -38.915 -48.722  12.888  1.00  0.00     0.036 A 
HETATM    9 CL   UNL     1     -37.645 -48.671  14.051  1.00  0.00    -0.084 Cl
HETATM   10  C   UNL     1     -39.522 -47.527  12.488  1.00  0.00     0.056 A 
HETATM   11  C   UNL     1     -40.551 -47.620  11.540  1.00  0.00     0.064 A 
ENDROOT
BRANCH   1  12
HETATM   12  C   UNL     1     -41.266 -45.247  11.139  1.00  0.00     0.156 C 
BRANCH  12  13
HETATM   13  C   UNL     1     -39.968 -44.646  10.607  1.00  0.00     0.184 C 
BRANCH  13  14
HETATM   14  O   UNL     1     -39.800 -44.943   9.226  1.00  0.00    -0.399 OA
HETATM   15  H   UNL     1     -39.071 -44.388   8.896  1.00  0.00     0.209 HD
ENDBRANCH  13  14
ENDBRANCH  12  13
ENDBRANCH   1  12
BRANCH   2  16
HETATM   16  C   UNL     1     -43.249 -46.711   9.216  1.00  0.00     0.191 C 
HETATM   17 CL   UNL     1     -43.671 -47.762   7.847  1.00  0.00    -0.122 Cl
ENDBRANCH   2  16
TORSDOF 4
ENDMDL
MODEL 5
REMARK VINA RESULT:      -4.9      2.801      3.767
REMARK  4 active torsions:
REMARK  status: ('A' for Active; 'I' for Inactive)
REMARK    1  A    between atoms: O_1  and  C_2 
REMARK    2  A    between atoms: C_2  and  C_3 
REMARK    3  A    between atoms: C_3  and  N_4 
REMARK    4  A    between atoms: C_5  and  C_6 
ROOT
HETATM    1  N   UNL     1     -42.138 -51.828  12.536  1.00  0.00    -0.332 N 
HETATM    2  C   UNL     1     -42.298 -50.456  12.489  1.00  0.00     0.098 A 
HETATM    3  N   UNL     1     -43.541 -50.123  12.789  1.00  0.00    -0.343 N 
ATOM      4  HN  UNL     1     -43.933 -49.181  12.820  1.00  0.00     0.167 HD
HETATM    5  C   UNL     1     -44.198 -51.294  13.052  1.00  0.00     0.060 A 
HETATM    6  C   UNL     1     -45.533 -51.502  13.430  1.00  0.00     0.033 A 
HETATM    7  C   UNL     1     -45.981 -52.813  13.639  1.00  0.00     0.026 A 
HETATM    8  C   UNL     1     -45.111 -53.891  13.474  1.00  0.00     0.036 A 
HETATM    9 CL   UNL     1     -45.692 -55.491  13.738  1.00  0.00    -0.084 Cl
HETATM   10  C   UNL     1     -43.777 -53.704  13.096  1.00  0.00     0.056 A 
HETATM   11  C   UNL     1     -43.350 -52.385  12.893  1.00  0.00     0.064 A 
ENDROOT
BRANCH   1  12
HETATM   12  C   UNL     1     -40.944 -52.590  12.205  1.00  0.00     0.156 C 
BRANCH  12  13
HETATM   13  C   UNL     1     -40.148 -53.034  13.428  1.00  0.00     0.184 C 
BRANCH  13  14
HETATM   14  O   UNL     1     -39.417 -54.224  13.152  1.00  0.00    -0.399 OA
HETATM   15  H   UNL     1     -39.876 -54.957  13.600  1.00  0.00     0.209 HD
ENDBRANCH  13  14
ENDBRANCH  12  13
ENDBRANCH   1  12
BRANCH   2  16
HETATM   16  C   UNL     1     -41.233 -49.478  12.134  1.00  0.00     0.191 C 
HETATM   17 CL   UNL     1     -41.650 -48.607  10.641  1.00  0.00    -0.122 Cl
ENDBRANCH   2  16
TORSDOF 4
ENDMDL
MODEL 6
REMARK VINA RESULT:      -4.8      3.817      6.079
REMARK  4 active torsions:
REMARK  status: ('A' for Active; 'I' for Inactive)
REMARK    1  A    between atoms: O_1  and  C_2 
REMARK    2  A    between atoms: C_2  and  C_3 
REMARK    3  A    between atoms: C_3  and  N_4 
REMARK    4  A    between atoms: C_5  and  C_6 
ROOT
HETATM    1  N   UNL     1     -39.856 -50.540  12.478  1.00  0.00    -0.332 N 
HETATM    2  C   UNL     1     -40.977 -50.157  11.766  1.00  0.00     0.098 A 
HETATM    3  N   UNL     1     -41.894 -51.108  11.795  1.00  0.00    -0.343 N 
ATOM      4  HN  UNL     1     -42.810 -51.091  11.345  1.00  0.00     0.167 HD
HETATM    5  C   UNL     1     -41.369 -52.122  12.550  1.00  0.00     0.060 A 
HETATM    6  C   UNL     1     -41.935 -53.356  12.902  1.00  0.00     0.033 A 
HETATM    7  C   UNL     1     -41.189 -54.242  13.690  1.00  0.00     0.026 A 
HETATM    8  C   UNL     1     -39.905 -53.899  14.116  1.00  0.00     0.036 A 
HETATM    9 CL   UNL     1     -39.013 -55.011  15.084  1.00  0.00    -0.084 Cl
HETATM   10  C   UNL     1     -39.323 -52.674  13.774  1.00  0.00     0.056 A 
HETATM   11  C   UNL     1     -40.088 -51.802  12.986  1.00  0.00     0.064 A 
ENDROOT
BRANCH   1  12
HETATM   12  C   UNL     1     -38.610 -49.805  12.625  1.00  0.00     0.156 C 
BRANCH  12  13
HETATM   13  C   UNL     1     -37.494 -50.313  11.717  1.00  0.00     0.184 C 
BRANCH  13  14
HETATM   14  O   UNL     1     -37.749 -49.971  10.360  1.00  0.00    -0.399 OA
HETATM   15  H   UNL     1     -38.087 -50.770   9.917  1.00  0.00     0.209 HD
ENDBRANCH  13  14
ENDBRANCH  12  13
ENDBRANCH   1  12
BRANCH   2  16
HETATM   16  C   UNL     1     -41.138 -48.862  11.047  1.00  0.00     0.191 C 
HETATM   17 CL   UNL     1     -42.778 -48.216  11.275  1.00  0.00    -0.122 Cl
ENDBRANCH   2  16
TORSDOF 4
ENDMDL
MODEL 7
REMARK VINA RESULT:      -4.5      2.457      3.242
REMARK  4 active torsions:
REMARK  status: ('A' for Active; 'I' for Inactive)
REMARK    1  A    between atoms: O_1  and  C_2 
REMARK    2  A    between atoms: C_2  and  C_3 
REMARK    3  A    between atoms: C_3  and  N_4 
REMARK    4  A    between atoms: C_5  and  C_6 
ROOT
HETATM    1  N   UNL     1     -43.077 -53.055  14.505  1.00  0.00    -0.332 N 
HETATM    2  C   UNL     1     -42.642 -52.970  13.196  1.00  0.00     0.098 A 
HETATM    3  N   UNL     1     -43.577 -52.435  12.430  1.00  0.00    -0.343 N 
ATOM      4  HN  UNL     1     -43.522 -52.266  11.425  1.00  0.00     0.167 HD
HETATM    5  C   UNL     1     -44.632 -52.154  13.254  1.00  0.00     0.060 A 
HETATM    6  C   UNL     1     -45.870 -51.569  12.949  1.00  0.00     0.033 A 
HETATM    7  C   UNL     1     -46.804 -51.386  13.977  1.00  0.00     0.026 A 
HETATM    8  C   UNL     1     -46.504 -51.780  15.282  1.00  0.00     0.036 A 
HETATM    9 CL   UNL     1     -47.674 -51.542  16.524  1.00  0.00    -0.084 Cl
HETATM   10  C   UNL     1     -45.276 -52.366  15.605  1.00  0.00     0.056 A 
HETATM   11  C   UNL     1     -44.356 -52.539  14.561  1.00  0.00     0.064 A 
ENDROOT
BRANCH   1  12
HETATM   12  C   UNL     1     -42.372 -53.643  15.633  1.00  0.00     0.156 C 
BRANCH  12  13
HETATM   13  C   UNL     1     -42.396 -55.169  15.635  1.00  0.00     0.184 C 
BRANCH  13  14
HETATM   14  O   UNL     1     -43.636 -55.657  15.137  1.00  0.00    -0.399 OA
HETATM   15  H   UNL     1     -44.220 -55.804  15.903  1.00  0.00     0.209 HD
ENDBRANCH  13  14
ENDBRANCH  12  13
ENDBRANCH   1  12
BRANCH   2  16
HETATM   16  C   UNL     1     -41.314 -53.427  12.699  1.00  0.00     0.191 C 
HETATM   17 CL   UNL     1     -40.050 -52.245  13.103  1.00  0.00    -0.122 Cl
ENDBRANCH   2  16
TORSDOF 4
ENDMDL
MODEL 8
REMARK VINA RESULT:      -4.4      3.354      4.619
REMARK  4 active torsions:
REMARK  status: ('A' for Active; 'I' for Inactive)
REMARK    1  A    between atoms: O_1  and  C_2 
REMARK    2  A    between atoms: C_2  and  C_3 
REMARK    3  A    between atoms: C_3  and  N_4 
REMARK    4  A    between atoms: C_5  and  C_6 
ROOT
HETATM    1  N   UNL     1     -42.331 -52.089  12.911  1.00  0.00    -0.332 N 
HETATM    2  C   UNL     1     -41.213 -52.842  12.602  1.00  0.00     0.098 A 
HETATM    3  N   UNL     1     -40.320 -52.106  11.964  1.00  0.00    -0.343 N 
ATOM      4  HN  UNL     1     -39.412 -52.412  11.613  1.00  0.00     0.167 HD
HETATM    5  C   UNL     1     -40.857 -50.851  11.867  1.00  0.00     0.060 A 
HETATM    6  C   UNL     1     -40.316 -49.692  11.292  1.00  0.00     0.033 A 
HETATM    7  C   UNL     1     -41.069 -48.511  11.312  1.00  0.00     0.026 A 
HETATM    8  C   UNL     1     -42.337 -48.492  11.895  1.00  0.00     0.036 A 
HETATM    9 CL   UNL     1     -43.239 -47.024  11.903  1.00  0.00    -0.084 Cl
HETATM   10  C   UNL     1     -42.894 -49.638  12.473  1.00  0.00     0.056 A 
HETATM   11  C   UNL     1     -42.122 -50.808  12.443  1.00  0.00     0.064 A 
ENDROOT
BRANCH   1  12
HETATM   12  C   UNL     1     -43.556 -52.548  13.546  1.00  0.00     0.156 C 
BRANCH  12  13
HETATM   13  C   UNL     1     -44.603 -53.052  12.557  1.00  0.00     0.184 C 
BRANCH  13  14
HETATM   14  O   UNL     1     -44.796 -54.455  12.694  1.00  0.00    -0.399 OA
HETATM   15  H   UNL     1     -45.117 -54.617  13.599  1.00  0.00     0.209 HD
ENDBRANCH  13  14
ENDBRANCH  12  13
ENDBRANCH   1  12
BRANCH   2  16
HETATM   16  C   UNL     1     -41.032 -54.285  12.923  1.00  0.00     0.191 C 
HETATM   17 CL   UNL     1     -39.500 -54.551  13.783  1.00  0.00    -0.122 Cl
ENDBRANCH   2  16
TORSDOF 4
ENDMDL
MODEL 9
REMARK VINA RESULT:      -4.4      3.481      5.181
REMARK  4 active torsions:
REMARK  status: ('A' for Active; 'I' for Inactive)
REMARK    1  A    between atoms: O_1  and  C_2 
REMARK    2  A    between atoms: C_2  and  C_3 
REMARK    3  A    between atoms: C_3  and  N_4 
REMARK    4  A    between atoms: C_5  and  C_6 
ROOT
HETATM    1  N   UNL     1     -41.924 -51.923  13.344  1.00  0.00    -0.332 N 
HETATM    2  C   UNL     1     -43.249 -51.545  13.242  1.00  0.00     0.098 A 
HETATM    3  N   UNL     1     -43.355 -50.393  12.601  1.00  0.00    -0.343 N 
ATOM      4  HN  UNL     1     -44.215 -49.883  12.396  1.00  0.00     0.167 HD
HETATM    5  C   UNL     1     -42.081 -50.022  12.268  1.00  0.00     0.060 A 
HETATM    6  C   UNL     1     -41.636 -48.889  11.572  1.00  0.00     0.033 A 
HETATM    7  C   UNL     1     -40.262 -48.725  11.354  1.00  0.00     0.026 A 
HETATM    8  C   UNL     1     -39.354 -49.674  11.825  1.00  0.00     0.036 A 
HETATM    9 CL   UNL     1     -37.670 -49.443  11.543  1.00  0.00    -0.084 Cl
HETATM   10  C   UNL     1     -39.778 -50.810  12.523  1.00  0.00     0.056 A 
HETATM   11  C   UNL     1     -41.157 -50.955  12.728  1.00  0.00     0.064 A 
ENDROOT
BRANCH   1  12
HETATM   12  C   UNL     1     -41.389 -53.086  14.034  1.00  0.00     0.156 C 
BRANCH  12  13
HETATM   13  C   UNL     1     -41.403 -54.355  13.188  1.00  0.00     0.184 C 
BRANCH  13  14
HETATM   14  O   UNL     1     -40.584 -54.205  12.034  1.00  0.00    -0.399 OA
HETATM   15  H   UNL     1     -40.756 -53.318  11.669  1.00  0.00     0.209 HD
ENDBRANCH  13  14
ENDBRANCH  12  13
ENDBRANCH   1  12
BRANCH   2  16
HETATM   16  C   UNL     1     -44.406 -52.308  13.786  1.00  0.00     0.191 C 
HETATM   17 CL   UNL     1     -45.753 -51.216  14.176  1.00  0.00    -0.122 Cl
ENDBRANCH   2  16
TORSDOF 4
ENDMDL
