MODEL 1
REMARK VINA RESULT:      -6.5      0.000      0.000
REMARK  5 active torsions:
REMARK  status: ('A' for Active; 'I' for Inactive)
REMARK    1  A    between atoms: C_2  and  C_4 
REMARK    2  A    between atoms: C_4  and  N_5 
REMARK    3  A    between atoms: C_4  and  C_9 
REMARK       I    between atoms: N_5  and  C_6 
REMARK       I    between atoms: C_9  and  N_11 
REMARK    4  A    between atoms: N_11  and  C_12 
REMARK    5  A    between atoms: C_15  and  N_19 
ROOT
HETATM    1  C   UNL     1     -41.413 -49.847  12.359  1.00  0.00     0.050 A 
HETATM    2  C   UNL     1     -40.616 -50.955  12.139  1.00  0.00     0.035 A 
HETATM    3  C   UNL     1     -41.125 -52.234  12.382  1.00  0.00     0.051 A 
HETATM    4  C   UNL     1     -42.430 -52.412  12.842  1.00  0.00     0.103 A 
HETATM    5  N   UNL     1     -43.213 -51.334  13.066  1.00  0.00    -0.350 N 
ATOM      6  HN  UNL     1     -44.166 -51.445  13.414  1.00  0.00     0.166 HD
HETATM    7  C   UNL     1     -42.702 -50.096  12.817  1.00  0.00     0.119 A 
ENDROOT
BRANCH   1   8
HETATM    8  N   UNL     1     -40.994 -48.526  12.110  1.00  0.00    -0.324 N 
HETATM    9  C   UNL     1     -41.365 -47.722  11.046  1.00  0.00     0.245 C 
HETATM   10  O   UNL     1     -41.996 -48.088  10.056  1.00  0.00    -0.271 OA
HETATM   11  H   UNL     1     -40.284 -48.142  12.739  1.00  0.00     0.169 HD
BRANCH   9  12
HETATM   12  C   UNL     1     -40.923 -46.240  11.177  1.00  0.00     0.180 C 
BRANCH  12  13
HETATM   13  C   UNL     1     -40.668 -45.820  12.646  1.00  0.00     0.009 C 
HETATM   14  C   UNL     1     -39.212 -45.399  12.871  1.00  0.00     0.012 C 
HETATM   15  C   UNL     1     -41.584 -44.657  13.056  1.00  0.00     0.012 C 
ENDBRANCH  12  13
BRANCH  12  16
HETATM   16  N   UNL     1     -39.829 -45.953  10.239  1.00  0.00    -0.348 N 
HETATM   17  C   UNL     1     -39.557 -44.710   9.727  1.00  0.00     0.214 C 
HETATM   18  O   UNL     1     -40.226 -43.712   9.995  1.00  0.00    -0.274 OA
HETATM   19  C   UNL     1     -38.315 -44.638   8.885  1.00  0.00     0.117 C 
HETATM   20  H   UNL     1     -39.131 -46.679  10.124  1.00  0.00     0.163 HD
ENDBRANCH  12  16
ENDBRANCH   9  12
ENDBRANCH   1   8
BRANCH   4  21
HETATM   21  N   UNL     1     -42.907 -53.674  13.131  1.00  0.00    -0.362 N 
HETATM   22  C   UNL     1     -44.332 -54.017  13.022  1.00  0.00     0.156 C 
HETATM   23  C   UNL     1     -44.944 -54.265  14.418  1.00  0.00     0.136 C 
HETATM   24  C   UNL     1     -46.372 -54.782  14.295  1.00  0.00     0.041 C 
HETATM   25  O   UNL     1     -44.191 -55.250  15.148  1.00  0.00    -0.378 OA
HETATM   26  C   UNL     1     -42.831 -54.807  15.340  1.00  0.00     0.136 C 
HETATM   27  C   UNL     1     -42.121 -55.892  16.141  1.00  0.00     0.041 C 
HETATM   28  C   UNL     1     -42.127 -54.579  13.986  1.00  0.00     0.156 C 
ENDBRANCH   4  21
TORSDOF 5
ENDMDL
MODEL 2
REMARK VINA RESULT:      -6.4      3.528      4.785
REMARK  5 active torsions:
REMARK  status: ('A' for Active; 'I' for Inactive)
REMARK    1  A    between atoms: C_2  and  C_4 
REMARK    2  A    between atoms: C_4  and  N_5 
REMARK    3  A    between atoms: C_4  and  C_9 
REMARK       I    between atoms: N_5  and  C_6 
REMARK       I    between atoms: C_9  and  N_11 
REMARK    4  A    between atoms: N_11  and  C_12 
REMARK    5  A    between atoms: C_15  and  N_19 
ROOT
HETATM    1  C   UNL     1     -40.418 -48.424  11.327  1.00  0.00     0.050 A 
HETATM    2  C   UNL     1     -39.638 -47.947  12.365  1.00  0.00     0.035 A 
HETATM    3  C   UNL     1     -38.937 -48.846  13.174  1.00  0.00     0.051 A 
HETATM    4  C   UNL     1     -39.008 -50.221  12.950  1.00  0.00     0.103 A 
HETATM    5  N   UNL     1     -39.773 -50.695  11.942  1.00  0.00    -0.350 N 
ATOM      6  HN  UNL     1     -39.846 -51.698  11.771  1.00  0.00     0.166 HD
HETATM    7  C   UNL     1     -40.444 -49.804  11.160  1.00  0.00     0.119 A 
ENDROOT
BRANCH   1   8
HETATM    8  N   UNL     1     -41.130 -47.591  10.445  1.00  0.00    -0.324 N 
HETATM    9  C   UNL     1     -42.490 -47.330  10.461  1.00  0.00     0.245 C 
HETATM   10  O   UNL     1     -43.324 -47.913  11.153  1.00  0.00    -0.271 OA
HETATM   11  H   UNL     1     -40.605 -47.193   9.662  1.00  0.00     0.169 HD
BRANCH   9  12
HETATM   12  C   UNL     1     -42.936 -46.190   9.508  1.00  0.00     0.180 C 
BRANCH  12  13
HETATM   13  C   UNL     1     -43.979 -46.658   8.463  1.00  0.00     0.009 C 
HETATM   14  C   UNL     1     -43.511 -47.911   7.716  1.00  0.00     0.012 C 
HETATM   15  C   UNL     1     -45.332 -46.959   9.127  1.00  0.00     0.012 C 
ENDBRANCH  12  13
BRANCH  12  16
HETATM   16  N   UNL     1     -43.309 -44.999  10.283  1.00  0.00    -0.348 N 
HETATM   17  C   UNL     1     -42.410 -44.099  10.798  1.00  0.00     0.214 C 
HETATM   18  O   UNL     1     -41.192 -44.219  10.671  1.00  0.00    -0.274 OA
HETATM   19  C   UNL     1     -43.032 -42.896  11.448  1.00  0.00     0.117 C 
HETATM   20  H   UNL     1     -44.288 -44.737  10.265  1.00  0.00     0.163 HD
ENDBRANCH  12  16
ENDBRANCH   9  12
ENDBRANCH   1   8
BRANCH   4  21
HETATM   21  N   UNL     1     -38.356 -51.105  13.785  1.00  0.00    -0.362 N 
HETATM   22  C   UNL     1     -38.797 -52.496  13.952  1.00  0.00     0.156 C 
HETATM   23  C   UNL     1     -39.371 -52.723  15.368  1.00  0.00     0.136 C 
HETATM   24  C   UNL     1     -39.672 -54.199  15.597  1.00  0.00     0.041 C 
HETATM   25  O   UNL     1     -38.435 -52.313  16.380  1.00  0.00    -0.378 OA
HETATM   26  C   UNL     1     -38.133 -50.907  16.251  1.00  0.00     0.136 C 
HETATM   27  C   UNL     1     -37.164 -50.557  17.373  1.00  0.00     0.041 C 
HETATM   28  C   UNL     1     -37.509 -50.599  14.874  1.00  0.00     0.156 C 
ENDBRANCH   4  21
TORSDOF 5
ENDMDL
MODEL 3
REMARK VINA RESULT:      -6.4      2.621      9.445
REMARK  5 active torsions:
REMARK  status: ('A' for Active; 'I' for Inactive)
REMARK    1  A    between atoms: C_2  and  C_4 
REMARK    2  A    between atoms: C_4  and  N_5 
REMARK    3  A    between atoms: C_4  and  C_9 
REMARK       I    between atoms: N_5  and  C_6 
REMARK       I    between atoms: C_9  and  N_11 
REMARK    4  A    between atoms: N_11  and  C_12 
REMARK    5  A    between atoms: C_15  and  N_19 
ROOT
HETATM    1  C   UNL     1     -42.770 -47.981  11.599  1.00  0.00     0.050 A 
HETATM    2  C   UNL     1     -42.184 -47.540  10.426  1.00  0.00     0.035 A 
HETATM    3  C   UNL     1     -41.913 -46.180  10.257  1.00  0.00     0.051 A 
HETATM    4  C   UNL     1     -42.221 -45.256  11.255  1.00  0.00     0.103 A 
HETATM    5  N   UNL     1     -42.799 -45.677  12.401  1.00  0.00    -0.350 N 
ATOM      6  HN  UNL     1     -43.042 -45.014  13.137  1.00  0.00     0.166 HD
HETATM    7  C   UNL     1     -43.050 -47.007  12.552  1.00  0.00     0.119 A 
ENDROOT
BRANCH   1   8
HETATM    8  N   UNL     1     -43.049 -49.334  11.868  1.00  0.00    -0.324 N 
HETATM    9  C   UNL     1     -42.211 -50.251  12.480  1.00  0.00     0.245 C 
HETATM   10  O   UNL     1     -41.023 -50.073  12.743  1.00  0.00    -0.271 OA
HETATM   11  H   UNL     1     -43.934 -49.702  11.509  1.00  0.00     0.169 HD
BRANCH   9  12
HETATM   12  C   UNL     1     -42.892 -51.597  12.846  1.00  0.00     0.180 C 
BRANCH  12  13
HETATM   13  C   UNL     1     -42.001 -52.491  13.743  1.00  0.00     0.009 C 
HETATM   14  C   UNL     1     -42.546 -52.584  15.173  1.00  0.00     0.012 C 
HETATM   15  C   UNL     1     -41.887 -53.913  13.170  1.00  0.00     0.012 C 
ENDBRANCH  12  13
BRANCH  12  16
HETATM   16  N   UNL     1     -44.252 -51.357  13.346  1.00  0.00    -0.348 N 
HETATM   17  C   UNL     1     -45.340 -52.129  13.023  1.00  0.00     0.214 C 
HETATM   18  O   UNL     1     -45.278 -53.093  12.262  1.00  0.00    -0.274 OA
HETATM   19  C   UNL     1     -46.603 -51.765  13.752  1.00  0.00     0.117 C 
HETATM   20  H   UNL     1     -44.342 -50.705  14.116  1.00  0.00     0.163 HD
ENDBRANCH  12  16
ENDBRANCH   9  12
ENDBRANCH   1   8
BRANCH   4  21
HETATM   21  N   UNL     1     -41.998 -43.908  11.059  1.00  0.00    -0.362 N 
HETATM   22  C   UNL     1     -40.744 -43.255  11.456  1.00  0.00     0.156 C 
HETATM   23  C   UNL     1     -40.978 -42.295  12.644  1.00  0.00     0.136 C 
HETATM   24  C   UNL     1     -39.718 -41.495  12.946  1.00  0.00     0.041 C 
HETATM   25  O   UNL     1     -42.026 -41.353  12.351  1.00  0.00    -0.378 OA
HETATM   26  C   UNL     1     -43.268 -42.041  12.093  1.00  0.00     0.136 C 
HETATM   27  C   UNL     1     -44.319 -40.972  11.823  1.00  0.00     0.041 C 
HETATM   28  C   UNL     1     -43.134 -42.992  10.886  1.00  0.00     0.156 C 
ENDBRANCH   4  21
TORSDOF 5
ENDMDL
MODEL 4
REMARK VINA RESULT:      -6.3      2.577      3.538
REMARK  5 active torsions:
REMARK  status: ('A' for Active; 'I' for Inactive)
REMARK    1  A    between atoms: C_2  and  C_4 
REMARK    2  A    between atoms: C_4  and  N_5 
REMARK    3  A    between atoms: C_4  and  C_9 
REMARK       I    between atoms: N_5  and  C_6 
REMARK       I    between atoms: C_9  and  N_11 
REMARK    4  A    between atoms: N_11  and  C_12 
REMARK    5  A    between atoms: C_15  and  N_19 
ROOT
HETATM    1  C   UNL     1     -41.197 -51.068  12.378  1.00  0.00     0.050 A 
HETATM    2  C   UNL     1     -40.770 -50.991  13.691  1.00  0.00     0.035 A 
HETATM    3  C   UNL     1     -40.561 -52.164  14.421  1.00  0.00     0.051 A 
HETATM    4  C   UNL     1     -40.773 -53.416  13.845  1.00  0.00     0.103 A 
HETATM    5  N   UNL     1     -41.197 -53.500  12.564  1.00  0.00    -0.350 N 
ATOM      6  HN  UNL     1     -41.369 -54.407  12.131  1.00  0.00     0.166 HD
HETATM    7  C   UNL     1     -41.389 -52.347  11.866  1.00  0.00     0.119 A 
ENDROOT
BRANCH   1   8
HETATM    8  N   UNL     1     -41.402 -49.941  11.560  1.00  0.00    -0.324 N 
HETATM    9  C   UNL     1     -42.267 -48.886  11.797  1.00  0.00     0.245 C 
HETATM   10  O   UNL     1     -43.117 -48.842  12.685  1.00  0.00    -0.271 OA
HETATM   11  H   UNL     1     -40.918 -49.932  10.658  1.00  0.00     0.169 HD
BRANCH   9  12
HETATM   12  C   UNL     1     -42.093 -47.685  10.831  1.00  0.00     0.180 C 
BRANCH  12  13
HETATM   13  C   UNL     1     -40.742 -46.953  11.025  1.00  0.00     0.009 C 
HETATM   14  C   UNL     1     -40.739 -45.578  10.348  1.00  0.00     0.012 C 
HETATM   15  C   UNL     1     -40.422 -46.765  12.516  1.00  0.00     0.012 C 
ENDBRANCH  12  13
BRANCH  12  16
HETATM   16  N   UNL     1     -42.398 -48.094   9.453  1.00  0.00    -0.348 N 
HETATM   17  C   UNL     1     -43.443 -47.599   8.714  1.00  0.00     0.214 C 
HETATM   18  O   UNL     1     -44.241 -46.770   9.150  1.00  0.00    -0.274 OA
HETATM   19  C   UNL     1     -43.481 -48.075   7.289  1.00  0.00     0.117 C 
HETATM   20  H   UNL     1     -41.682 -48.623   8.971  1.00  0.00     0.163 HD
ENDBRANCH  12  16
ENDBRANCH   9  12
ENDBRANCH   1   8
BRANCH   4  21
HETATM   21  N   UNL     1     -40.615 -54.569  14.588  1.00  0.00    -0.362 N 
HETATM   22  C   UNL     1     -41.656 -55.062  15.500  1.00  0.00     0.156 C 
HETATM   23  C   UNL     1     -41.204 -54.927  16.971  1.00  0.00     0.136 C 
HETATM   24  C   UNL     1     -42.208 -55.590  17.905  1.00  0.00     0.041 C 
HETATM   25  O   UNL     1     -39.932 -55.564  17.184  1.00  0.00    -0.378 OA
HETATM   26  C   UNL     1     -38.917 -54.957  16.358  1.00  0.00     0.136 C 
HETATM   27  C   UNL     1     -37.607 -55.671  16.668  1.00  0.00     0.041 C 
HETATM   28  C   UNL     1     -39.268 -55.089  14.862  1.00  0.00     0.156 C 
ENDBRANCH   4  21
TORSDOF 5
ENDMDL
MODEL 5
REMARK VINA RESULT:      -6.3      1.984      9.007
REMARK  5 active torsions:
REMARK  status: ('A' for Active; 'I' for Inactive)
REMARK    1  A    between atoms: C_2  and  C_4 
REMARK    2  A    between atoms: C_4  and  N_5 
REMARK    3  A    between atoms: C_4  and  C_9 
REMARK       I    between atoms: N_5  and  C_6 
REMARK       I    between atoms: C_9  and  N_11 
REMARK    4  A    between atoms: N_11  and  C_12 
REMARK    5  A    between atoms: C_15  and  N_19 
ROOT
HETATM    1  C   UNL     1     -42.321 -49.870  12.136  1.00  0.00     0.050 A 
HETATM    2  C   UNL     1     -43.027 -48.714  12.415  1.00  0.00     0.035 A 
HETATM    3  C   UNL     1     -42.391 -47.473  12.319  1.00  0.00     0.051 A 
HETATM    4  C   UNL     1     -41.051 -47.380  11.943  1.00  0.00     0.103 A 
HETATM    5  N   UNL     1     -40.352 -48.505  11.674  1.00  0.00    -0.350 N 
ATOM      6  HN  UNL     1     -39.368 -48.456  11.409  1.00  0.00     0.166 HD
HETATM    7  C   UNL     1     -40.990 -49.704  11.766  1.00  0.00     0.119 A 
ENDROOT
BRANCH   1   8
HETATM    8  N   UNL     1     -42.889 -51.157  12.175  1.00  0.00    -0.324 N 
HETATM    9  C   UNL     1     -43.333 -51.837  13.296  1.00  0.00     0.245 C 
HETATM   10  O   UNL     1     -43.154 -51.491  14.463  1.00  0.00    -0.271 OA
HETATM   11  H   UNL     1     -42.911 -51.678  11.294  1.00  0.00     0.169 HD
BRANCH   9  12
HETATM   12  C   UNL     1     -44.123 -53.136  12.987  1.00  0.00     0.180 C 
BRANCH  12  13
HETATM   13  C   UNL     1     -44.441 -53.959  14.260  1.00  0.00     0.009 C 
HETATM   14  C   UNL     1     -45.622 -54.911  14.041  1.00  0.00     0.012 C 
HETATM   15  C   UNL     1     -43.223 -54.784  14.704  1.00  0.00     0.012 C 
ENDBRANCH  12  13
BRANCH  12  16
HETATM   16  N   UNL     1     -45.275 -52.836  12.126  1.00  0.00    -0.348 N 
HETATM   17  C   UNL     1     -46.297 -51.987  12.471  1.00  0.00     0.214 C 
HETATM   18  O   UNL     1     -46.352 -51.407  13.555  1.00  0.00    -0.274 OA
HETATM   19  C   UNL     1     -47.301 -51.741  11.380  1.00  0.00     0.117 C 
HETATM   20  H   UNL     1     -45.202 -53.125  11.158  1.00  0.00     0.163 HD
ENDBRANCH  12  16
ENDBRANCH   9  12
ENDBRANCH   1   8
BRANCH   4  21
HETATM   21  N   UNL     1     -40.416 -46.155  11.902  1.00  0.00    -0.362 N 
HETATM   22  C   UNL     1     -41.024 -44.938  12.457  1.00  0.00     0.156 C 
HETATM   23  C   UNL     1     -41.405 -43.954  11.329  1.00  0.00     0.136 C 
HETATM   24  C   UNL     1     -41.878 -42.628  11.909  1.00  0.00     0.041 C 
HETATM   25  O   UNL     1     -40.277 -43.674  10.480  1.00  0.00    -0.378 OA
HETATM   26  C   UNL     1     -39.798 -44.885   9.859  1.00  0.00     0.136 C 
HETATM   27  C   UNL     1     -38.630 -44.492   8.963  1.00  0.00     0.041 C 
HETATM   28  C   UNL     1     -39.350 -45.912  10.920  1.00  0.00     0.156 C 
ENDBRANCH   4  21
TORSDOF 5
ENDMDL
MODEL 6
REMARK VINA RESULT:      -6.2      1.988      9.111
REMARK  5 active torsions:
REMARK  status: ('A' for Active; 'I' for Inactive)
REMARK    1  A    between atoms: C_2  and  C_4 
REMARK    2  A    between atoms: C_4  and  N_5 
REMARK    3  A    between atoms: C_4  and  C_9 
REMARK       I    between atoms: N_5  and  C_6 
REMARK       I    between atoms: C_9  and  N_11 
REMARK    4  A    between atoms: N_11  and  C_12 
REMARK    5  A    between atoms: C_15  and  N_19 
ROOT
HETATM    1  C   UNL     1     -42.480 -50.874  13.399  1.00  0.00     0.050 A 
HETATM    2  C   UNL     1     -43.206 -49.698  13.428  1.00  0.00     0.035 A 
HETATM    3  C   UNL     1     -42.971 -48.715  12.462  1.00  0.00     0.051 A 
HETATM    4  C   UNL     1     -42.015 -48.903  11.464  1.00  0.00     0.103 A 
HETATM    5  N   UNL     1     -41.297 -50.048  11.433  1.00  0.00    -0.350 N 
ATOM      6  HN  UNL     1     -40.585 -50.197  10.717  1.00  0.00     0.166 HD
HETATM    7  C   UNL     1     -41.544 -50.997  12.378  1.00  0.00     0.119 A 
ENDROOT
BRANCH   1   8
HETATM    8  N   UNL     1     -42.673 -51.929  14.311  1.00  0.00    -0.324 N 
HETATM    9  C   UNL     1     -43.252 -53.160  14.050  1.00  0.00     0.245 C 
HETATM   10  O   UNL     1     -43.839 -53.471  13.015  1.00  0.00    -0.271 OA
HETATM   11  H   UNL     1     -42.429 -51.744  15.287  1.00  0.00     0.169 HD
BRANCH   9  12
HETATM   12  C   UNL     1     -43.107 -54.193  15.198  1.00  0.00     0.180 C 
BRANCH  12  13
HETATM   13  C   UNL     1     -41.629 -54.465  15.574  1.00  0.00     0.009 C 
HETATM   14  C   UNL     1     -41.478 -55.758  16.382  1.00  0.00     0.012 C 
HETATM   15  C   UNL     1     -40.747 -54.565  14.320  1.00  0.00     0.012 C 
ENDBRANCH  12  13
BRANCH  12  16
HETATM   16  N   UNL     1     -43.988 -53.834  16.318  1.00  0.00    -0.348 N 
HETATM   17  C   UNL     1     -45.333 -54.104  16.360  1.00  0.00     0.214 C 
HETATM   18  O   UNL     1     -45.934 -54.663  15.443  1.00  0.00    -0.274 OA
HETATM   19  C   UNL     1     -46.001 -53.753  17.658  1.00  0.00     0.117 C 
HETATM   20  H   UNL     1     -43.533 -53.547  17.175  1.00  0.00     0.163 HD
ENDBRANCH  12  16
ENDBRANCH   9  12
ENDBRANCH   1   8
BRANCH   4  21
HETATM   21  N   UNL     1     -41.751 -47.907  10.546  1.00  0.00    -0.362 N 
HETATM   22  C   UNL     1     -40.676 -46.926  10.742  1.00  0.00     0.156 C 
HETATM   23  C   UNL     1     -41.259 -45.519  11.001  1.00  0.00     0.136 C 
HETATM   24  C   UNL     1     -40.151 -44.475  11.038  1.00  0.00     0.041 C 
HETATM   25  O   UNL     1     -42.177 -45.137   9.961  1.00  0.00    -0.378 OA
HETATM   26  C   UNL     1     -43.281 -46.063   9.895  1.00  0.00     0.136 C 
HETATM   27  C   UNL     1     -44.210 -45.567   8.793  1.00  0.00     0.041 C 
HETATM   28  C   UNL     1     -42.789 -47.492   9.592  1.00  0.00     0.156 C 
ENDBRANCH   4  21
TORSDOF 5
ENDMDL
MODEL 7
REMARK VINA RESULT:      -6.2      2.669      3.573
REMARK  5 active torsions:
REMARK  status: ('A' for Active; 'I' for Inactive)
REMARK    1  A    between atoms: C_2  and  C_4 
REMARK    2  A    between atoms: C_4  and  N_5 
REMARK    3  A    between atoms: C_4  and  C_9 
REMARK       I    between atoms: N_5  and  C_6 
REMARK       I    between atoms: C_9  and  N_11 
REMARK    4  A    between atoms: N_11  and  C_12 
REMARK    5  A    between atoms: C_15  and  N_19 
ROOT
HETATM    1  C   UNL     1     -40.869 -50.230  11.773  1.00  0.00     0.050 A 
HETATM    2  C   UNL     1     -39.632 -50.176  12.390  1.00  0.00     0.035 A 
HETATM    3  C   UNL     1     -39.275 -51.163  13.312  1.00  0.00     0.051 A 
HETATM    4  C   UNL     1     -40.145 -52.210  13.618  1.00  0.00     0.103 A 
HETATM    5  N   UNL     1     -41.357 -52.267  13.024  1.00  0.00    -0.350 N 
ATOM      6  HN  UNL     1     -42.011 -53.018  13.245  1.00  0.00     0.166 HD
HETATM    7  C   UNL     1     -41.686 -51.299  12.123  1.00  0.00     0.119 A 
ENDROOT
BRANCH   1   8
HETATM    8  N   UNL     1     -41.298 -49.298  10.810  1.00  0.00    -0.324 N 
HETATM    9  C   UNL     1     -42.304 -48.357  10.952  1.00  0.00     0.245 C 
HETATM   10  O   UNL     1     -43.096 -48.291  11.891  1.00  0.00    -0.271 OA
HETATM   11  H   UNL     1     -40.876 -49.368   9.880  1.00  0.00     0.169 HD
BRANCH   9  12
HETATM   12  C   UNL     1     -42.381 -47.321   9.800  1.00  0.00     0.180 C 
BRANCH  12  13
HETATM   13  C   UNL     1     -43.716 -47.395   9.018  1.00  0.00     0.009 C 
HETATM   14  C   UNL     1     -44.388 -46.022   8.910  1.00  0.00     0.012 C 
HETATM   15  C   UNL     1     -43.498 -47.947   7.601  1.00  0.00     0.012 C 
ENDBRANCH  12  13
BRANCH  12  16
HETATM   16  N   UNL     1     -42.012 -45.987  10.293  1.00  0.00    -0.348 N 
HETATM   17  C   UNL     1     -40.756 -45.643  10.725  1.00  0.00     0.214 C 
HETATM   18  O   UNL     1     -39.816 -46.438  10.757  1.00  0.00    -0.274 OA
HETATM   19  C   UNL     1     -40.587 -44.190  11.066  1.00  0.00     0.117 C 
HETATM   20  H   UNL     1     -42.676 -45.242  10.119  1.00  0.00     0.163 HD
ENDBRANCH  12  16
ENDBRANCH   9  12
ENDBRANCH   1   8
BRANCH   4  21
HETATM   21  N   UNL     1     -39.806 -53.152  14.568  1.00  0.00    -0.362 N 
HETATM   22  C   UNL     1     -40.564 -54.398  14.740  1.00  0.00     0.156 C 
HETATM   23  C   UNL     1     -41.330 -54.393  16.082  1.00  0.00     0.136 C 
HETATM   24  C   UNL     1     -41.978 -55.747  16.337  1.00  0.00     0.041 C 
HETATM   25  O   UNL     1     -40.445 -54.123  17.184  1.00  0.00    -0.378 OA
HETATM   26  C   UNL     1     -39.824 -52.830  17.031  1.00  0.00     0.136 C 
HETATM   27  C   UNL     1     -38.933 -52.619  18.249  1.00  0.00     0.041 C 
HETATM   28  C   UNL     1     -38.996 -52.765  15.731  1.00  0.00     0.156 C 
ENDBRANCH   4  21
TORSDOF 5
ENDMDL
MODEL 8
REMARK VINA RESULT:      -6.1      1.691      2.375
REMARK  5 active torsions:
REMARK  status: ('A' for Active; 'I' for Inactive)
REMARK    1  A    between atoms: C_2  and  C_4 
REMARK    2  A    between atoms: C_4  and  N_5 
REMARK    3  A    between atoms: C_4  and  C_9 
REMARK       I    between atoms: N_5  and  C_6 
REMARK       I    between atoms: C_9  and  N_11 
REMARK    4  A    between atoms: N_11  and  C_12 
REMARK    5  A    between atoms: C_15  and  N_19 
ROOT
HETATM    1  C   UNL     1     -42.176 -49.008  12.755  1.00  0.00     0.050 A 
HETATM    2  C   UNL     1     -43.139 -49.299  13.704  1.00  0.00     0.035 A 
HETATM    3  C   UNL     1     -43.588 -50.614  13.853  1.00  0.00     0.051 A 
HETATM    4  C   UNL     1     -43.079 -51.642  13.060  1.00  0.00     0.103 A 
HETATM    5  N   UNL     1     -42.142 -51.365  12.126  1.00  0.00    -0.350 N 
ATOM      6  HN  UNL     1     -41.768 -52.102  11.529  1.00  0.00     0.166 HD
HETATM    7  C   UNL     1     -41.711 -50.079  11.999  1.00  0.00     0.119 A 
ENDROOT
BRANCH   1   8
HETATM    8  N   UNL     1     -41.643 -47.720  12.558  1.00  0.00    -0.324 N 
HETATM    9  C   UNL     1     -42.220 -46.679  11.852  1.00  0.00     0.245 C 
HETATM   10  O   UNL     1     -43.222 -46.761  11.143  1.00  0.00    -0.271 OA
HETATM   11  H   UNL     1     -40.696 -47.555  12.910  1.00  0.00     0.169 HD
BRANCH   9  12
HETATM   12  C   UNL     1     -41.499 -45.315  12.015  1.00  0.00     0.180 C 
BRANCH  12  13
HETATM   13  C   UNL     1     -39.994 -45.388  11.658  1.00  0.00     0.009 C 
HETATM   14  C   UNL     1     -39.732 -44.954  10.212  1.00  0.00     0.012 C 
HETATM   15  C   UNL     1     -39.158 -44.502  12.595  1.00  0.00     0.012 C 
ENDBRANCH  12  13
BRANCH  12  16
HETATM   16  N   UNL     1     -42.258 -44.255  11.337  1.00  0.00    -0.348 N 
HETATM   17  C   UNL     1     -42.797 -43.165  11.970  1.00  0.00     0.214 C 
HETATM   18  O   UNL     1     -42.708 -42.981  13.184  1.00  0.00    -0.274 OA
HETATM   19  C   UNL     1     -43.423 -42.154  11.052  1.00  0.00     0.117 C 
HETATM   20  H   UNL     1     -42.208 -44.243  10.325  1.00  0.00     0.163 HD
ENDBRANCH  12  16
ENDBRANCH   9  12
ENDBRANCH   1   8
BRANCH   4  21
HETATM   21  N   UNL     1     -43.566 -52.928  13.177  1.00  0.00    -0.362 N 
HETATM   22  C   UNL     1     -45.005 -53.219  13.227  1.00  0.00     0.156 C 
HETATM   23  C   UNL     1     -45.413 -53.722  14.630  1.00  0.00     0.136 C 
HETATM   24  C   UNL     1     -46.865 -54.182  14.635  1.00  0.00     0.041 C 
HETATM   25  O   UNL     1     -44.605 -54.842  15.035  1.00  0.00    -0.378 OA
HETATM   26  C   UNL     1     -43.213 -54.467  15.094  1.00  0.00     0.136 C 
HETATM   27  C   UNL     1     -42.442 -55.697  15.556  1.00  0.00     0.041 C 
HETATM   28  C   UNL     1     -42.709 -53.993  13.715  1.00  0.00     0.156 C 
ENDBRANCH   4  21
TORSDOF 5
ENDMDL
MODEL 9
REMARK VINA RESULT:      -6.0      1.924      9.173
REMARK  5 active torsions:
REMARK  status: ('A' for Active; 'I' for Inactive)
REMARK    1  A    between atoms: C_2  and  C_4 
REMARK    2  A    between atoms: C_4  and  N_5 
REMARK    3  A    between atoms: C_4  and  C_9 
REMARK       I    between atoms: N_5  and  C_6 
REMARK       I    between atoms: C_9  and  N_11 
REMARK    4  A    between atoms: N_11  and  C_12 
REMARK    5  A    between atoms: C_15  and  N_19 
ROOT
HETATM    1  C   UNL     1     -42.275 -49.824  12.180  1.00  0.00     0.050 A 
HETATM    2  C   UNL     1     -43.133 -48.760  12.392  1.00  0.00     0.035 A 
HETATM    3  C   UNL     1     -42.770 -47.482  11.959  1.00  0.00     0.051 A 
HETATM    4  C   UNL     1     -41.555 -47.260  11.311  1.00  0.00     0.103 A 
HETATM    5  N   UNL     1     -40.708 -48.293  11.106  1.00  0.00    -0.350 N 
ATOM      6  HN  UNL     1     -39.810 -48.147  10.645  1.00  0.00     0.166 HD
HETATM    7  C   UNL     1     -41.081 -49.533  11.528  1.00  0.00     0.119 A 
ENDROOT
BRANCH   1   8
HETATM    8  N   UNL     1     -42.572 -51.148  12.553  1.00  0.00    -0.324 N 
HETATM    9  C   UNL     1     -42.316 -51.746  13.775  1.00  0.00     0.245 C 
HETATM   10  O   UNL     1     -41.639 -51.264  14.681  1.00  0.00    -0.271 OA
HETATM   11  H   UNL     1     -42.951 -51.758  11.823  1.00  0.00     0.169 HD
BRANCH   9  12
HETATM   12  C   UNL     1     -42.973 -53.140  13.957  1.00  0.00     0.180 C 
BRANCH  12  13
HETATM   13  C   UNL     1     -42.090 -54.114  14.776  1.00  0.00     0.009 C 
HETATM   14  C   UNL     1     -42.864 -55.372  15.187  1.00  0.00     0.012 C 
HETATM   15  C   UNL     1     -40.849 -54.542  13.977  1.00  0.00     0.012 C 
ENDBRANCH  12  13
BRANCH  12  16
HETATM   16  N   UNL     1     -44.356 -52.990  14.432  1.00  0.00    -0.348 N 
HETATM   17  C   UNL     1     -45.466 -53.213  13.659  1.00  0.00     0.214 C 
HETATM   18  O   UNL     1     -45.405 -53.547  12.476  1.00  0.00    -0.274 OA
HETATM   19  C   UNL     1     -46.772 -53.116  14.396  1.00  0.00     0.117 C 
HETATM   20  H   UNL     1     -44.481 -52.904  15.434  1.00  0.00     0.163 HD
ENDBRANCH  12  16
ENDBRANCH   9  12
ENDBRANCH   1   8
BRANCH   4  21
HETATM   21  N   UNL     1     -41.181 -45.986  10.934  1.00  0.00    -0.362 N 
HETATM   22  C   UNL     1     -39.935 -45.364  11.403  1.00  0.00     0.156 C 
HETATM   23  C   UNL     1     -40.236 -44.197  12.369  1.00  0.00     0.136 C 
HETATM   24  C   UNL     1     -38.957 -43.448  12.723  1.00  0.00     0.041 C 
HETATM   25  O   UNL     1     -41.140 -43.250  11.774  1.00  0.00    -0.378 OA
HETATM   26  C   UNL     1     -42.395 -43.882  11.450  1.00  0.00     0.136 C 
HETATM   27  C   UNL     1     -43.294 -42.805  10.855  1.00  0.00     0.041 C 
HETATM   28  C   UNL     1     -42.191 -45.036  10.447  1.00  0.00     0.156 C 
ENDBRANCH   4  21
TORSDOF 5
ENDMDL
