MODEL 1
REMARK VINA RESULT:      -6.3      0.000      0.000
REMARK  3 active torsions:
REMARK  status: ('A' for Active; 'I' for Inactive)
REMARK    1  A    between atoms: C_2  and  N_3 
REMARK    2  A    between atoms: C_5  and  N_6 
REMARK       I    between atoms: N_6  and  C_7 
REMARK       I    between atoms: C_7  and  N_9 
REMARK    3  A    between atoms: N_9  and  C_10 
ROOT
HETATM    1  N   UNL     1     -42.079 -47.222   9.783  1.00  0.00    -0.306 N 
HETATM    2  C   UNL     1     -41.718 -47.899  10.929  1.00  0.00     0.321 C 
HETATM    3  O   UNL     1     -42.466 -48.215  11.846  1.00  0.00    -0.247 OA
HETATM    4  N   UNL     1     -40.384 -48.242  10.947  1.00  0.00    -0.336 N 
HETATM    5  H   UNL     1     -41.389 -47.078   9.062  1.00  0.00     0.171 HD
HETATM    6  H   UNL     1     -39.753 -47.660  10.419  1.00  0.00     0.164 HD
ENDROOT
BRANCH   1   7
HETATM    7  C   UNL     1     -43.382 -46.841   9.503  1.00  0.00     0.070 A 
HETATM    8  C   UNL     1     -44.510 -47.620   9.570  1.00  0.00     0.141 A 
HETATM    9  N   UNL     1     -45.549 -46.845   9.156  1.00  0.00    -0.302 N 
HETATM   10  N   UNL     1     -45.187 -45.582   8.856  1.00  0.00    -0.308 N 
HETATM   11  C   UNL     1     -43.863 -45.585   9.066  1.00  0.00     0.138 A 
ATOM     12  HN  UNL     1     -45.777 -44.811   8.545  1.00  0.00     0.186 HD
BRANCH   9  13
HETATM   13  C   UNL     1     -46.916 -47.296   8.987  1.00  0.00     0.143 C 
HETATM   14  C   UNL     1     -46.995 -48.804   8.832  1.00  0.00     0.028 C 
ENDBRANCH   9  13
ENDBRANCH   1   7
BRANCH   4  15
HETATM   15  C   UNL     1     -39.848 -48.929  12.120  1.00  0.00     0.121 C 
HETATM   16  C   UNL     1     -38.737 -49.918  11.741  1.00  0.00     0.057 C 
HETATM   17  C   UNL     1     -37.514 -49.496  12.551  1.00  0.00     0.275 C 
HETATM   18  N   UNL     1     -38.096 -48.788  13.681  1.00  0.00     0.095 N 
HETATM   19  C   UNL     1     -37.161 -47.973  14.449  1.00  0.00     0.273 C 
HETATM   20  C   UNL     1     -39.173 -47.967  13.110  1.00  0.00     0.245 C 
HETATM   21  C   UNL     1     -37.904 -47.307  15.615  1.00  0.00     0.030 C 
HETATM   22  C   UNL     1     -39.160 -46.555  15.160  1.00  0.00     0.004 C 
HETATM   23  C   UNL     1     -40.034 -47.425  14.249  1.00  0.00     0.038 C 
ENDBRANCH   4  15
TORSDOF 3
ENDMDL
MODEL 2
REMARK VINA RESULT:      -6.2      4.517      6.902
REMARK  3 active torsions:
REMARK  status: ('A' for Active; 'I' for Inactive)
REMARK    1  A    between atoms: C_2  and  N_3 
REMARK    2  A    between atoms: C_5  and  N_6 
REMARK       I    between atoms: N_6  and  C_7 
REMARK       I    between atoms: C_7  and  N_9 
REMARK    3  A    between atoms: N_9  and  C_10 
ROOT
HETATM    1  N   UNL     1     -42.374 -51.898  12.088  1.00  0.00    -0.306 N 
HETATM    2  C   UNL     1     -42.736 -50.586  12.307  1.00  0.00     0.321 C 
HETATM    3  O   UNL     1     -43.589 -50.196  13.095  1.00  0.00    -0.247 OA
HETATM    4  N   UNL     1     -42.001 -49.698  11.554  1.00  0.00    -0.336 N 
HETATM    5  H   UNL     1     -41.608 -52.096  11.463  1.00  0.00     0.171 HD
HETATM    6  H   UNL     1     -41.624 -50.036  10.683  1.00  0.00     0.164 HD
ENDROOT
BRANCH   1   7
HETATM    7  C   UNL     1     -42.920 -52.966  12.785  1.00  0.00     0.070 A 
HETATM    8  C   UNL     1     -44.175 -53.502  12.637  1.00  0.00     0.141 A 
HETATM    9  N   UNL     1     -44.291 -54.491  13.564  1.00  0.00    -0.302 N 
HETATM   10  N   UNL     1     -43.173 -54.674  14.293  1.00  0.00    -0.308 N 
HETATM   11  C   UNL     1     -42.340 -53.739  13.817  1.00  0.00     0.138 A 
ATOM     12  HN  UNL     1     -43.001 -55.359  15.029  1.00  0.00     0.186 HD
BRANCH   9  13
HETATM   13  C   UNL     1     -45.490 -55.266  13.818  1.00  0.00     0.143 C 
HETATM   14  C   UNL     1     -46.444 -54.535  14.745  1.00  0.00     0.028 C 
ENDBRANCH   9  13
ENDBRANCH   1   7
BRANCH   4  15
HETATM   15  C   UNL     1     -42.303 -48.272  11.653  1.00  0.00     0.121 C 
HETATM   16  C   UNL     1     -41.026 -47.425  11.742  1.00  0.00     0.057 C 
HETATM   17  C   UNL     1     -41.101 -46.439  10.579  1.00  0.00     0.275 C 
HETATM   18  N   UNL     1     -42.528 -46.353  10.312  1.00  0.00     0.095 N 
HETATM   19  C   UNL     1     -42.883 -45.751   9.032  1.00  0.00     0.273 C 
HETATM   20  C   UNL     1     -43.023 -47.734  10.406  1.00  0.00     0.245 C 
HETATM   21  C   UNL     1     -44.412 -45.705   8.896  1.00  0.00     0.030 C 
HETATM   22  C   UNL     1     -45.065 -47.070   9.147  1.00  0.00     0.004 C 
HETATM   23  C   UNL     1     -44.549 -47.708  10.442  1.00  0.00     0.038 C 
ENDBRANCH   4  15
TORSDOF 3
ENDMDL
MODEL 3
REMARK VINA RESULT:      -6.1      4.872      6.670
REMARK  3 active torsions:
REMARK  status: ('A' for Active; 'I' for Inactive)
REMARK    1  A    between atoms: C_2  and  N_3 
REMARK    2  A    between atoms: C_5  and  N_6 
REMARK       I    between atoms: N_6  and  C_7 
REMARK       I    between atoms: C_7  and  N_9 
REMARK    3  A    between atoms: N_9  and  C_10 
ROOT
HETATM    1  N   UNL     1     -42.846 -48.957  11.512  1.00  0.00    -0.306 N 
HETATM    2  C   UNL     1     -43.103 -49.610  12.699  1.00  0.00     0.321 C 
HETATM    3  O   UNL     1     -42.462 -49.499  13.737  1.00  0.00    -0.247 OA
HETATM    4  N   UNL     1     -44.218 -50.416  12.633  1.00  0.00    -0.336 N 
HETATM    5  H   UNL     1     -43.485 -49.074  10.741  1.00  0.00     0.171 HD
HETATM    6  H   UNL     1     -44.467 -50.782  11.728  1.00  0.00     0.164 HD
ENDROOT
BRANCH   1   7
HETATM    7  C   UNL     1     -41.823 -48.035  11.358  1.00  0.00     0.070 A 
HETATM    8  C   UNL     1     -41.945 -46.680  11.167  1.00  0.00     0.141 A 
HETATM    9  N   UNL     1     -40.685 -46.190  11.011  1.00  0.00    -0.302 N 
HETATM   10  N   UNL     1     -39.727 -47.131  11.128  1.00  0.00    -0.308 N 
HETATM   11  C   UNL     1     -40.426 -48.255  11.336  1.00  0.00     0.138 A 
ATOM     12  HN  UNL     1     -38.716 -47.016  11.073  1.00  0.00     0.186 HD
BRANCH   9  13
HETATM   13  C   UNL     1     -40.354 -44.814  10.698  1.00  0.00     0.143 C 
HETATM   14  C   UNL     1     -39.235 -44.725   9.676  1.00  0.00     0.028 C 
ENDBRANCH   9  13
ENDBRANCH   1   7
BRANCH   4  15
HETATM   15  C   UNL     1     -44.590 -51.204  13.806  1.00  0.00     0.121 C 
HETATM   16  C   UNL     1     -46.110 -51.385  13.910  1.00  0.00     0.057 C 
HETATM   17  C   UNL     1     -46.345 -52.894  13.945  1.00  0.00     0.275 C 
HETATM   18  N   UNL     1     -45.082 -53.412  14.446  1.00  0.00     0.095 N 
HETATM   19  C   UNL     1     -44.885 -54.845  14.263  1.00  0.00     0.273 C 
HETATM   20  C   UNL     1     -44.043 -52.639  13.751  1.00  0.00     0.245 C 
HETATM   21  C   UNL     1     -43.529 -55.254  14.856  1.00  0.00     0.030 C 
HETATM   22  C   UNL     1     -42.374 -54.392  14.331  1.00  0.00     0.004 C 
HETATM   23  C   UNL     1     -42.701 -52.898  14.430  1.00  0.00     0.038 C 
ENDBRANCH   4  15
TORSDOF 3
ENDMDL
MODEL 4
REMARK VINA RESULT:      -6.0      4.598      6.599
REMARK  3 active torsions:
REMARK  status: ('A' for Active; 'I' for Inactive)
REMARK    1  A    between atoms: C_2  and  N_3 
REMARK    2  A    between atoms: C_5  and  N_6 
REMARK       I    between atoms: N_6  and  C_7 
REMARK       I    between atoms: C_7  and  N_9 
REMARK    3  A    between atoms: N_9  and  C_10 
ROOT
HETATM    1  N   UNL     1     -41.113 -50.838  11.198  1.00  0.00    -0.306 N 
HETATM    2  C   UNL     1     -41.999 -51.381  12.103  1.00  0.00     0.321 C 
HETATM    3  O   UNL     1     -42.494 -50.804  13.064  1.00  0.00    -0.247 OA
HETATM    4  N   UNL     1     -42.329 -52.686  11.808  1.00  0.00    -0.336 N 
HETATM    5  H   UNL     1     -40.825 -51.388  10.404  1.00  0.00     0.171 HD
HETATM    6  H   UNL     1     -41.650 -53.227  11.296  1.00  0.00     0.164 HD
ENDROOT
BRANCH   1   7
HETATM    7  C   UNL     1     -40.693 -49.517  11.243  1.00  0.00     0.070 A 
HETATM    8  C   UNL     1     -41.400 -48.405  10.855  1.00  0.00     0.141 A 
HETATM    9  N   UNL     1     -40.575 -47.337  11.024  1.00  0.00    -0.302 N 
HETATM   10  N   UNL     1     -39.375 -47.664  11.542  1.00  0.00    -0.308 N 
HETATM   11  C   UNL     1     -39.450 -48.996  11.670  1.00  0.00     0.138 A 
ATOM     12  HN  UNL     1     -38.598 -47.049  11.779  1.00  0.00     0.186 HD
BRANCH   9  13
HETATM   13  C   UNL     1     -40.887 -45.970  10.655  1.00  0.00     0.143 C 
HETATM   14  C   UNL     1     -39.639 -45.192  10.277  1.00  0.00     0.028 C 
ENDBRANCH   9  13
ENDBRANCH   1   7
BRANCH   4  15
HETATM   15  C   UNL     1     -43.229 -53.406  12.705  1.00  0.00     0.121 C 
HETATM   16  C   UNL     1     -42.487 -53.964  13.927  1.00  0.00     0.057 C 
HETATM   17  C   UNL     1     -43.199 -53.382  15.145  1.00  0.00     0.275 C 
HETATM   18  N   UNL     1     -44.529 -53.084  14.638  1.00  0.00     0.095 N 
HETATM   19  C   UNL     1     -45.330 -52.202  15.479  1.00  0.00     0.273 C 
HETATM   20  C   UNL     1     -44.313 -52.498  13.307  1.00  0.00     0.245 C 
HETATM   21  C   UNL     1     -46.708 -51.994  14.835  1.00  0.00     0.030 C 
HETATM   22  C   UNL     1     -46.611 -51.544  13.372  1.00  0.00     0.004 C 
HETATM   23  C   UNL     1     -45.651 -52.435  12.575  1.00  0.00     0.038 C 
ENDBRANCH   4  15
TORSDOF 3
ENDMDL
MODEL 5
REMARK VINA RESULT:      -5.8      5.050      7.585
REMARK  3 active torsions:
REMARK  status: ('A' for Active; 'I' for Inactive)
REMARK    1  A    between atoms: C_2  and  N_3 
REMARK    2  A    between atoms: C_5  and  N_6 
REMARK       I    between atoms: N_6  and  C_7 
REMARK       I    between atoms: C_7  and  N_9 
REMARK    3  A    between atoms: N_9  and  C_10 
ROOT
HETATM    1  N   UNL     1     -41.334 -51.705  11.439  1.00  0.00    -0.306 N 
HETATM    2  C   UNL     1     -42.241 -52.153  12.376  1.00  0.00     0.321 C 
HETATM    3  O   UNL     1     -42.387 -51.708  13.508  1.00  0.00    -0.247 OA
HETATM    4  N   UNL     1     -43.037 -53.173  11.902  1.00  0.00    -0.336 N 
HETATM    5  H   UNL     1     -41.352 -52.102  10.512  1.00  0.00     0.171 HD
HETATM    6  H   UNL     1     -42.655 -53.753  11.172  1.00  0.00     0.164 HD
ENDROOT
BRANCH   1   7
HETATM    7  C   UNL     1     -40.479 -50.637  11.657  1.00  0.00     0.070 A 
HETATM    8  C   UNL     1     -39.413 -50.586  12.522  1.00  0.00     0.141 A 
HETATM    9  N   UNL     1     -38.903 -49.328  12.444  1.00  0.00    -0.302 N 
HETATM   10  N   UNL     1     -39.538 -48.548  11.548  1.00  0.00    -0.308 N 
HETATM   11  C   UNL     1     -40.501 -49.349  11.073  1.00  0.00     0.138 A 
ATOM     12  HN  UNL     1     -39.336 -47.582  11.292  1.00  0.00     0.186 HD
BRANCH   9  13
HETATM   13  C   UNL     1     -37.820 -48.810  13.257  1.00  0.00     0.143 C 
HETATM   14  C   UNL     1     -37.515 -49.721  14.432  1.00  0.00     0.028 C 
ENDBRANCH   9  13
ENDBRANCH   1   7
BRANCH   4  15
HETATM   15  C   UNL     1     -44.019 -53.775  12.800  1.00  0.00     0.121 C 
HETATM   16  C   UNL     1     -43.349 -54.628  13.886  1.00  0.00     0.057 C 
HETATM   17  C   UNL     1     -43.825 -54.051  15.217  1.00  0.00     0.275 C 
HETATM   18  N   UNL     1     -45.080 -53.405  14.866  1.00  0.00     0.095 N 
HETATM   19  C   UNL     1     -45.596 -52.474  15.862  1.00  0.00     0.273 C 
HETATM   20  C   UNL     1     -44.821 -52.727  13.587  1.00  0.00     0.245 C 
HETATM   21  C   UNL     1     -46.928 -51.887  15.371  1.00  0.00     0.030 C 
HETATM   22  C   UNL     1     -46.825 -51.298  13.959  1.00  0.00     0.004 C 
HETATM   23  C   UNL     1     -46.153 -52.279  12.991  1.00  0.00     0.038 C 
ENDBRANCH   4  15
TORSDOF 3
ENDMDL
MODEL 6
REMARK VINA RESULT:      -5.7      2.362      3.290
REMARK  3 active torsions:
REMARK  status: ('A' for Active; 'I' for Inactive)
REMARK    1  A    between atoms: C_2  and  N_3 
REMARK    2  A    between atoms: C_5  and  N_6 
REMARK       I    between atoms: N_6  and  C_7 
REMARK       I    between atoms: C_7  and  N_9 
REMARK    3  A    between atoms: N_9  and  C_10 
ROOT
HETATM    1  N   UNL     1     -42.069 -47.581  11.637  1.00  0.00    -0.306 N 
HETATM    2  C   UNL     1     -41.208 -48.633  11.407  1.00  0.00     0.321 C 
HETATM    3  O   UNL     1     -41.124 -49.282  10.371  1.00  0.00    -0.247 OA
HETATM    4  N   UNL     1     -40.381 -48.889  12.479  1.00  0.00    -0.336 N 
HETATM    5  H   UNL     1     -42.001 -47.074  12.507  1.00  0.00     0.171 HD
HETATM    6  H   UNL     1     -40.722 -48.635  13.392  1.00  0.00     0.164 HD
ENDROOT
BRANCH   1   7
HETATM    7  C   UNL     1     -42.942 -47.088  10.680  1.00  0.00     0.070 A 
HETATM    8  C   UNL     1     -44.237 -47.484  10.451  1.00  0.00     0.141 A 
HETATM    9  N   UNL     1     -44.684 -46.769   9.384  1.00  0.00    -0.302 N 
HETATM   10  N   UNL     1     -43.778 -45.889   8.913  1.00  0.00    -0.308 N 
HETATM   11  C   UNL     1     -42.716 -46.090   9.704  1.00  0.00     0.138 A 
ATOM     12  HN  UNL     1     -43.877 -45.230   8.141  1.00  0.00     0.186 HD
BRANCH   9  13
HETATM   13  C   UNL     1     -45.975 -46.934   8.746  1.00  0.00     0.143 C 
HETATM   14  C   UNL     1     -46.535 -48.328   8.963  1.00  0.00     0.028 C 
ENDBRANCH   9  13
ENDBRANCH   1   7
BRANCH   4  15
HETATM   15  C   UNL     1     -39.442 -50.005  12.394  1.00  0.00     0.121 C 
HETATM   16  C   UNL     1     -38.123 -49.694  13.113  1.00  0.00     0.057 C 
HETATM   17  C   UNL     1     -37.945 -50.801  14.149  1.00  0.00     0.275 C 
HETATM   18  N   UNL     1     -38.732 -51.895  13.600  1.00  0.00     0.095 N 
HETATM   19  C   UNL     1     -39.032 -52.972  14.536  1.00  0.00     0.273 C 
HETATM   20  C   UNL     1     -39.963 -51.269  13.095  1.00  0.00     0.245 C 
HETATM   21  C   UNL     1     -39.844 -54.060  13.819  1.00  0.00     0.030 C 
HETATM   22  C   UNL     1     -41.075 -53.496  13.099  1.00  0.00     0.004 C 
HETATM   23  C   UNL     1     -40.711 -52.284  12.234  1.00  0.00     0.038 C 
ENDBRANCH   4  15
TORSDOF 3
ENDMDL
MODEL 7
REMARK VINA RESULT:      -5.6      4.598      6.359
REMARK  3 active torsions:
REMARK  status: ('A' for Active; 'I' for Inactive)
REMARK    1  A    between atoms: C_2  and  N_3 
REMARK    2  A    between atoms: C_5  and  N_6 
REMARK       I    between atoms: N_6  and  C_7 
REMARK       I    between atoms: C_7  and  N_9 
REMARK    3  A    between atoms: N_9  and  C_10 
ROOT
HETATM    1  N   UNL     1     -40.617 -49.115  12.917  1.00  0.00    -0.306 N 
HETATM    2  C   UNL     1     -40.858 -50.424  12.558  1.00  0.00     0.321 C 
HETATM    3  O   UNL     1     -41.106 -50.828  11.428  1.00  0.00    -0.247 OA
HETATM    4  N   UNL     1     -40.761 -51.294  13.621  1.00  0.00    -0.336 N 
HETATM    5  H   UNL     1     -40.354 -48.909  13.868  1.00  0.00     0.171 HD
HETATM    6  H   UNL     1     -40.950 -50.921  14.538  1.00  0.00     0.164 HD
ENDROOT
BRANCH   1   7
HETATM    7  C   UNL     1     -40.583 -48.070  12.006  1.00  0.00     0.070 A 
HETATM    8  C   UNL     1     -39.823 -46.928  12.076  1.00  0.00     0.141 A 
HETATM    9  N   UNL     1     -40.156 -46.167  10.999  1.00  0.00    -0.302 N 
HETATM   10  N   UNL     1     -41.063 -46.752  10.191  1.00  0.00    -0.308 N 
HETATM   11  C   UNL     1     -41.323 -47.911  10.812  1.00  0.00     0.138 A 
ATOM     12  HN  UNL     1     -41.456 -46.399   9.320  1.00  0.00     0.186 HD
BRANCH   9  13
HETATM   13  C   UNL     1     -39.656 -44.834  10.727  1.00  0.00     0.143 C 
HETATM   14  C   UNL     1     -38.996 -44.750   9.363  1.00  0.00     0.028 C 
ENDBRANCH   9  13
ENDBRANCH   1   7
BRANCH   4  15
HETATM   15  C   UNL     1     -41.033 -52.712  13.399  1.00  0.00     0.121 C 
HETATM   16  C   UNL     1     -40.201 -53.603  14.332  1.00  0.00     0.057 C 
HETATM   17  C   UNL     1     -41.211 -54.457  15.096  1.00  0.00     0.275 C 
HETATM   18  N   UNL     1     -42.367 -54.469  14.213  1.00  0.00     0.095 N 
HETATM   19  C   UNL     1     -43.610 -54.920  14.827  1.00  0.00     0.273 C 
HETATM   20  C   UNL     1     -42.488 -53.091  13.715  1.00  0.00     0.245 C 
HETATM   21  C   UNL     1     -44.732 -54.903  13.779  1.00  0.00     0.030 C 
HETATM   22  C   UNL     1     -44.844 -53.553  13.060  1.00  0.00     0.004 C 
HETATM   23  C   UNL     1     -43.479 -53.074  12.554  1.00  0.00     0.038 C 
ENDBRANCH   4  15
TORSDOF 3
ENDMDL
MODEL 8
REMARK VINA RESULT:      -5.6      4.252      5.258
REMARK  3 active torsions:
REMARK  status: ('A' for Active; 'I' for Inactive)
REMARK    1  A    between atoms: C_2  and  N_3 
REMARK    2  A    between atoms: C_5  and  N_6 
REMARK       I    between atoms: N_6  and  C_7 
REMARK       I    between atoms: C_7  and  N_9 
REMARK    3  A    between atoms: N_9  and  C_10 
ROOT
HETATM    1  N   UNL     1     -41.463 -49.001  12.680  1.00  0.00    -0.306 N 
HETATM    2  C   UNL     1     -41.096 -50.323  12.539  1.00  0.00     0.321 C 
HETATM    3  O   UNL     1     -40.976 -50.929  11.482  1.00  0.00    -0.247 OA
HETATM    4  N   UNL     1     -40.827 -50.932  13.745  1.00  0.00    -0.336 N 
HETATM    5  H   UNL     1     -41.461 -48.588  13.600  1.00  0.00     0.171 HD
HETATM    6  H   UNL     1     -41.293 -50.565  14.560  1.00  0.00     0.164 HD
ENDROOT
BRANCH   1   7
HETATM    7  C   UNL     1     -41.708 -48.160  11.605  1.00  0.00     0.070 A 
HETATM    8  C   UNL     1     -42.854 -48.083  10.854  1.00  0.00     0.141 A 
HETATM    9  N   UNL     1     -42.623 -47.165   9.877  1.00  0.00    -0.302 N 
HETATM   10  N   UNL     1     -41.405 -46.594   9.958  1.00  0.00    -0.308 N 
HETATM   11  C   UNL     1     -40.849 -47.207  11.012  1.00  0.00     0.138 A 
ATOM     12  HN  UNL     1     -41.003 -45.870   9.363  1.00  0.00     0.186 HD
BRANCH   9  13
HETATM   13  C   UNL     1     -43.539 -46.832   8.804  1.00  0.00     0.143 C 
HETATM   14  C   UNL     1     -43.456 -47.833   7.665  1.00  0.00     0.028 C 
ENDBRANCH   9  13
ENDBRANCH   1   7
BRANCH   4  15
HETATM   15  C   UNL     1     -40.464 -52.347  13.754  1.00  0.00     0.121 C 
HETATM   16  C   UNL     1     -39.111 -52.583  14.439  1.00  0.00     0.057 C 
HETATM   17  C   UNL     1     -39.385 -53.575  15.567  1.00  0.00     0.275 C 
HETATM   18  N   UNL     1     -40.588 -54.258  15.119  1.00  0.00     0.095 N 
HETATM   19  C   UNL     1     -41.284 -55.024  16.146  1.00  0.00     0.273 C 
HETATM   20  C   UNL     1     -41.449 -53.203  14.566  1.00  0.00     0.245 C 
HETATM   21  C   UNL     1     -42.514 -55.705  15.530  1.00  0.00     0.030 C 
HETATM   22  C   UNL     1     -43.411 -54.722  14.768  1.00  0.00     0.004 C 
HETATM   23  C   UNL     1     -42.597 -53.857  13.799  1.00  0.00     0.038 C 
ENDBRANCH   4  15
TORSDOF 3
ENDMDL
MODEL 9
REMARK VINA RESULT:      -5.6      3.810      6.757
REMARK  3 active torsions:
REMARK  status: ('A' for Active; 'I' for Inactive)
REMARK    1  A    between atoms: C_2  and  N_3 
REMARK    2  A    between atoms: C_5  and  N_6 
REMARK       I    between atoms: N_6  and  C_7 
REMARK       I    between atoms: C_7  and  N_9 
REMARK    3  A    between atoms: N_9  and  C_10 
ROOT
HETATM    1  N   UNL     1     -42.594 -51.034  12.760  1.00  0.00    -0.306 N 
HETATM    2  C   UNL     1     -41.825 -50.229  11.947  1.00  0.00     0.321 C 
HETATM    3  O   UNL     1     -40.650 -50.412  11.653  1.00  0.00    -0.247 OA
HETATM    4  N   UNL     1     -42.530 -49.161  11.435  1.00  0.00    -0.336 N 
HETATM    5  H   UNL     1     -43.572 -50.822  12.876  1.00  0.00     0.171 HD
HETATM    6  H   UNL     1     -43.314 -48.828  11.975  1.00  0.00     0.164 HD
ENDROOT
BRANCH   1   7
HETATM    7  C   UNL     1     -42.126 -52.210  13.328  1.00  0.00     0.070 A 
HETATM    8  C   UNL     1     -41.331 -52.338  14.441  1.00  0.00     0.141 A 
HETATM    9  N   UNL     1     -41.079 -53.666  14.593  1.00  0.00    -0.302 N 
HETATM   10  N   UNL     1     -41.693 -54.435  13.672  1.00  0.00    -0.308 N 
HETATM   11  C   UNL     1     -42.327 -53.542  12.901  1.00  0.00     0.138 A 
ATOM     12  HN  UNL     1     -41.679 -55.451  13.584  1.00  0.00     0.186 HD
BRANCH   9  13
HETATM   13  C   UNL     1     -40.205 -54.244  15.595  1.00  0.00     0.143 C 
HETATM   14  C   UNL     1     -39.019 -54.952  14.964  1.00  0.00     0.028 C 
ENDBRANCH   9  13
ENDBRANCH   1   7
BRANCH   4  15
HETATM   15  C   UNL     1     -41.834 -48.198  10.587  1.00  0.00     0.121 C 
HETATM   16  C   UNL     1     -42.754 -47.628   9.499  1.00  0.00     0.057 C 
HETATM   17  C   UNL     1     -42.731 -46.113   9.689  1.00  0.00     0.275 C 
HETATM   18  N   UNL     1     -41.464 -45.886  10.367  1.00  0.00     0.095 N 
HETATM   19  C   UNL     1     -41.321 -44.573  10.986  1.00  0.00     0.273 C 
HETATM   20  C   UNL     1     -41.362 -46.960  11.366  1.00  0.00     0.245 C 
HETATM   21  C   UNL     1     -39.936 -44.466  11.641  1.00  0.00     0.030 C 
HETATM   22  C   UNL     1     -39.640 -45.638  12.585  1.00  0.00     0.004 C 
HETATM   23  C   UNL     1     -39.938 -46.985  11.915  1.00  0.00     0.038 C 
ENDBRANCH   4  15
TORSDOF 3
ENDMDL
