MODEL 1
REMARK VINA RESULT:      -6.4      0.000      0.000
REMARK  3 active torsions:
REMARK  status: ('A' for Active; 'I' for Inactive)
REMARK    1  A    between atoms: O_2  and  C_3 
REMARK    2  A    between atoms: C_6  and  N_7 
REMARK       I    between atoms: N_7  and  C_8 
REMARK       I    between atoms: C_8  and  N_10 
REMARK    3  A    between atoms: N_10  and  C_11 
ROOT
HETATM    1  N   UNL     1     -41.914 -50.030  11.757  1.00  0.00    -0.308 N 
HETATM    2  C   UNL     1     -43.073 -50.178  12.475  1.00  0.00     0.321 C 
HETATM    3  O   UNL     1     -43.719 -49.272  12.987  1.00  0.00    -0.247 OA
HETATM    4  N   UNL     1     -43.480 -51.483  12.608  1.00  0.00    -0.330 N 
HETATM    5  H   UNL     1     -41.532 -50.858  11.325  1.00  0.00     0.170 HD
HETATM    6  H   UNL     1     -43.172 -52.192  11.958  1.00  0.00     0.165 HD
ENDROOT
BRANCH   1   7
HETATM    7  C   UNL     1     -41.267 -48.795  11.506  1.00  0.00     0.051 A 
HETATM    8  C   UNL     1     -40.204 -48.309  12.269  1.00  0.00     0.035 A 
HETATM    9  C   UNL     1     -39.628 -47.078  11.969  1.00  0.00     0.058 A 
HETATM   10  C   UNL     1     -40.128 -46.363  10.899  1.00  0.00     0.141 A 
HETATM   11  N   UNL     1     -41.146 -46.792  10.122  1.00  0.00    -0.345 N 
HETATM   12  C   UNL     1     -41.686 -47.995  10.445  1.00  0.00     0.119 A 
ATOM     13  HN  UNL     1     -41.490 -46.243   9.335  1.00  0.00     0.167 HD
BRANCH  10  14
HETATM   14  O   UNL     1     -39.517 -45.151  10.651  1.00  0.00    -0.341 OA
HETATM   15  C   UNL     1     -40.353 -44.038  10.933  1.00  0.00     0.211 C 
ENDBRANCH  10  14
ENDBRANCH   1   7
BRANCH   4  16
HETATM   16  C   UNL     1     -44.749 -51.719  13.289  1.00  0.00     0.172 C 
HETATM   17  C   UNL     1     -44.603 -51.550  14.810  1.00  0.00     0.034 C 
HETATM   18  C   UNL     1     -45.943 -51.235  15.474  1.00  0.00     0.004 C 
HETATM   19  C   UNL     1     -46.871 -52.429  15.722  1.00  0.00     0.015 C 
HETATM   20  C   UNL     1     -46.745 -53.644  14.799  1.00  0.00     0.095 C 
HETATM   21  N   UNL     1     -46.607 -53.302  13.398  1.00  0.00    -0.261 NA
HETATM   22  C   UNL     1     -45.311 -53.100  12.946  1.00  0.00     0.220 C 
HETATM   23  H   UNL     1     -47.239 -52.552  13.144  1.00  0.00     0.130 HD
HETATM   24  O   UNL     1     -44.669 -53.954  12.342  1.00  0.00    -0.278 OA
ENDBRANCH   4  16
TORSDOF 3
ENDMDL
MODEL 2
REMARK VINA RESULT:      -6.3      2.161      2.429
REMARK  3 active torsions:
REMARK  status: ('A' for Active; 'I' for Inactive)
REMARK    1  A    between atoms: O_2  and  C_3 
REMARK    2  A    between atoms: C_6  and  N_7 
REMARK       I    between atoms: N_7  and  C_8 
REMARK       I    between atoms: C_8  and  N_10 
REMARK    3  A    between atoms: N_10  and  C_11 
ROOT
HETATM    1  N   UNL     1     -41.435 -49.913  11.013  1.00  0.00    -0.308 N 
HETATM    2  C   UNL     1     -41.758 -50.527  12.195  1.00  0.00     0.321 C 
HETATM    3  O   UNL     1     -41.949 -49.963  13.266  1.00  0.00    -0.247 OA
HETATM    4  N   UNL     1     -41.844 -51.894  12.106  1.00  0.00    -0.330 N 
HETATM    5  H   UNL     1     -41.385 -50.497  10.191  1.00  0.00     0.170 HD
HETATM    6  H   UNL     1     -42.008 -52.348  11.217  1.00  0.00     0.165 HD
ENDROOT
BRANCH   1   7
HETATM    7  C   UNL     1     -41.252 -48.519  10.846  1.00  0.00     0.051 A 
HETATM    8  C   UNL     1     -40.182 -47.806  11.388  1.00  0.00     0.035 A 
HETATM    9  C   UNL     1     -40.078 -46.433  11.192  1.00  0.00     0.058 A 
HETATM   10  C   UNL     1     -41.051 -45.802  10.442  1.00  0.00     0.141 A 
HETATM   11  N   UNL     1     -42.100 -46.444   9.885  1.00  0.00    -0.345 N 
HETATM   12  C   UNL     1     -42.172 -47.783  10.100  1.00  0.00     0.119 A 
ATOM     13  HN  UNL     1     -42.801 -45.950   9.333  1.00  0.00     0.167 HD
BRANCH  10  14
HETATM   14  O   UNL     1     -40.895 -44.441  10.283  1.00  0.00    -0.341 OA
HETATM   15  C   UNL     1     -40.503 -43.780  11.479  1.00  0.00     0.211 C 
ENDBRANCH  10  14
ENDBRANCH   1   7
BRANCH   4  16
HETATM   16  C   UNL     1     -42.264 -52.616  13.302  1.00  0.00     0.172 C 
HETATM   17  C   UNL     1     -41.331 -53.802  13.592  1.00  0.00     0.034 C 
HETATM   18  C   UNL     1     -41.381 -54.214  15.063  1.00  0.00     0.004 C 
HETATM   19  C   UNL     1     -42.571 -55.082  15.481  1.00  0.00     0.015 C 
HETATM   20  C   UNL     1     -43.870 -54.959  14.679  1.00  0.00     0.095 C 
HETATM   21  N   UNL     1     -44.235 -53.594  14.364  1.00  0.00    -0.261 NA
HETATM   22  C   UNL     1     -43.716 -53.083  13.183  1.00  0.00     0.220 C 
HETATM   23  H   UNL     1     -44.087 -52.985  15.161  1.00  0.00     0.130 HD
HETATM   24  O   UNL     1     -44.356 -53.024  12.138  1.00  0.00    -0.278 OA
ENDBRANCH   4  16
TORSDOF 3
ENDMDL
MODEL 3
REMARK VINA RESULT:      -6.0      2.635      7.953
REMARK  3 active torsions:
REMARK  status: ('A' for Active; 'I' for Inactive)
REMARK    1  A    between atoms: O_2  and  C_3 
REMARK    2  A    between atoms: C_6  and  N_7 
REMARK       I    between atoms: N_7  and  C_8 
REMARK       I    between atoms: C_8  and  N_10 
REMARK    3  A    between atoms: N_10  and  C_11 
ROOT
HETATM    1  N   UNL     1     -42.011 -51.862  11.919  1.00  0.00    -0.308 N 
HETATM    2  C   UNL     1     -41.982 -50.525  12.223  1.00  0.00     0.321 C 
HETATM    3  O   UNL     1     -42.223 -50.035  13.320  1.00  0.00    -0.247 OA
HETATM    4  N   UNL     1     -41.665 -49.719  11.157  1.00  0.00    -0.330 N 
HETATM    5  H   UNL     1     -41.712 -52.128  10.992  1.00  0.00     0.170 HD
HETATM    6  H   UNL     1     -41.165 -50.087  10.359  1.00  0.00     0.165 HD
ENDROOT
BRANCH   1   7
HETATM    7  C   UNL     1     -42.344 -52.894  12.828  1.00  0.00     0.051 A 
HETATM    8  C   UNL     1     -43.620 -53.449  12.938  1.00  0.00     0.035 A 
HETATM    9  C   UNL     1     -43.874 -54.452  13.868  1.00  0.00     0.058 A 
HETATM   10  C   UNL     1     -42.833 -54.887  14.664  1.00  0.00     0.141 A 
HETATM   11  N   UNL     1     -41.578 -54.394  14.591  1.00  0.00    -0.345 N 
HETATM   12  C   UNL     1     -41.368 -53.414  13.676  1.00  0.00     0.119 A 
ATOM     13  HN  UNL     1     -40.829 -54.739  15.191  1.00  0.00     0.167 HD
BRANCH  10  14
HETATM   14  O   UNL     1     -43.146 -55.883  15.566  1.00  0.00    -0.341 OA
HETATM   15  C   UNL     1     -42.161 -56.048  16.578  1.00  0.00     0.211 C 
ENDBRANCH  10  14
ENDBRANCH   1   7
BRANCH   4  16
HETATM   16  C   UNL     1     -41.532 -48.290  11.418  1.00  0.00     0.172 C 
HETATM   17  C   UNL     1     -42.083 -47.459  10.248  1.00  0.00     0.034 C 
HETATM   18  C   UNL     1     -42.474 -46.050  10.692  1.00  0.00     0.004 C 
HETATM   19  C   UNL     1     -41.328 -45.043  10.834  1.00  0.00     0.015 C 
HETATM   20  C   UNL     1     -39.931 -45.582  11.152  1.00  0.00     0.095 C 
HETATM   21  N   UNL     1     -39.920 -46.614  12.168  1.00  0.00    -0.261 NA
HETATM   22  C   UNL     1     -40.079 -47.916  11.715  1.00  0.00     0.220 C 
HETATM   23  H   UNL     1     -40.546 -46.379  12.931  1.00  0.00     0.130 HD
HETATM   24  O   UNL     1     -39.140 -48.689  11.552  1.00  0.00    -0.278 OA
ENDBRANCH   4  16
TORSDOF 3
ENDMDL
MODEL 4
REMARK VINA RESULT:      -5.9      2.046      7.954
REMARK  3 active torsions:
REMARK  status: ('A' for Active; 'I' for Inactive)
REMARK    1  A    between atoms: O_2  and  C_3 
REMARK    2  A    between atoms: C_6  and  N_7 
REMARK       I    between atoms: N_7  and  C_8 
REMARK       I    between atoms: C_8  and  N_10 
REMARK    3  A    between atoms: N_10  and  C_11 
ROOT
HETATM    1  N   UNL     1     -44.621 -50.679  12.768  1.00  0.00    -0.308 N 
HETATM    2  C   UNL     1     -43.597 -49.784  12.935  1.00  0.00     0.321 C 
HETATM    3  O   UNL     1     -42.876 -49.697  13.922  1.00  0.00    -0.247 OA
HETATM    4  N   UNL     1     -43.428 -48.928  11.874  1.00  0.00    -0.330 N 
HETATM    5  H   UNL     1     -45.080 -50.689  11.869  1.00  0.00     0.170 HD
HETATM    6  H   UNL     1     -43.769 -49.168  10.954  1.00  0.00     0.165 HD
ENDROOT
BRANCH   1   7
HETATM    7  C   UNL     1     -45.022 -51.642  13.725  1.00  0.00     0.051 A 
HETATM    8  C   UNL     1     -46.195 -51.547  14.476  1.00  0.00     0.035 A 
HETATM    9  C   UNL     1     -46.514 -52.527  15.410  1.00  0.00     0.058 A 
HETATM   10  C   UNL     1     -45.651 -53.593  15.563  1.00  0.00     0.141 A 
HETATM   11  N   UNL     1     -44.510 -53.741  14.855  1.00  0.00    -0.345 N 
HETATM   12  C   UNL     1     -44.228 -52.763  13.956  1.00  0.00     0.119 A 
ATOM     13  HN  UNL     1     -43.894 -54.543  14.989  1.00  0.00     0.167 HD
BRANCH  10  14
HETATM   14  O   UNL     1     -46.021 -54.533  16.504  1.00  0.00    -0.341 OA
HETATM   15  C   UNL     1     -45.717 -54.139  17.835  1.00  0.00     0.211 C 
ENDBRANCH  10  14
ENDBRANCH   1   7
BRANCH   4  16
HETATM   16  C   UNL     1     -42.305 -47.998  11.940  1.00  0.00     0.172 C 
HETATM   17  C   UNL     1     -42.721 -46.669  12.589  1.00  0.00     0.034 C 
HETATM   18  C   UNL     1     -41.520 -45.925  13.172  1.00  0.00     0.004 C 
HETATM   19  C   UNL     1     -40.664 -45.139  12.175  1.00  0.00     0.015 C 
HETATM   20  C   UNL     1     -40.632 -45.615  10.720  1.00  0.00     0.095 C 
HETATM   21  N   UNL     1     -40.512 -47.051  10.577  1.00  0.00    -0.261 NA
HETATM   22  C   UNL     1     -41.703 -47.762  10.553  1.00  0.00     0.220 C 
HETATM   23  H   UNL     1     -39.838 -47.426  11.234  1.00  0.00     0.130 HD
HETATM   24  O   UNL     1     -42.233 -48.150   9.517  1.00  0.00    -0.278 OA
ENDBRANCH   4  16
TORSDOF 3
ENDMDL
MODEL 5
REMARK VINA RESULT:      -5.9      2.187      7.929
REMARK  3 active torsions:
REMARK  status: ('A' for Active; 'I' for Inactive)
REMARK    1  A    between atoms: O_2  and  C_3 
REMARK    2  A    between atoms: C_6  and  N_7 
REMARK       I    between atoms: N_7  and  C_8 
REMARK       I    between atoms: C_8  and  N_10 
REMARK    3  A    between atoms: N_10  and  C_11 
ROOT
HETATM    1  N   UNL     1     -42.133 -49.665  13.263  1.00  0.00    -0.308 N 
HETATM    2  C   UNL     1     -42.251 -48.525  12.511  1.00  0.00     0.321 C 
HETATM    3  O   UNL     1     -43.037 -48.356  11.586  1.00  0.00    -0.247 OA
HETATM    4  N   UNL     1     -41.373 -47.531  12.867  1.00  0.00    -0.330 N 
HETATM    5  H   UNL     1     -41.496 -49.635  14.046  1.00  0.00     0.170 HD
HETATM    6  H   UNL     1     -40.956 -47.511  13.787  1.00  0.00     0.165 HD
ENDROOT
BRANCH   1   7
HETATM    7  C   UNL     1     -42.894 -50.844  13.076  1.00  0.00     0.051 A 
HETATM    8  C   UNL     1     -44.161 -51.045  13.626  1.00  0.00     0.035 A 
HETATM    9  C   UNL     1     -44.842 -52.238  13.409  1.00  0.00     0.058 A 
HETATM   10  C   UNL     1     -44.239 -53.205  12.630  1.00  0.00     0.141 A 
HETATM   11  N   UNL     1     -43.022 -53.059  12.063  1.00  0.00    -0.345 N 
HETATM   12  C   UNL     1     -42.384 -51.883  12.300  1.00  0.00     0.119 A 
ATOM     13  HN  UNL     1     -42.604 -53.791  11.489  1.00  0.00     0.167 HD
BRANCH  10  14
HETATM   14  O   UNL     1     -44.962 -54.366  12.450  1.00  0.00    -0.341 OA
HETATM   15  C   UNL     1     -45.352 -54.976  13.673  1.00  0.00     0.211 C 
ENDBRANCH  10  14
ENDBRANCH   1   7
BRANCH   4  16
HETATM   16  C   UNL     1     -41.491 -46.255  12.169  1.00  0.00     0.172 C 
HETATM   17  C   UNL     1     -40.117 -45.591  11.989  1.00  0.00     0.034 C 
HETATM   18  C   UNL     1     -40.118 -44.598  10.827  1.00  0.00     0.004 C 
HETATM   19  C   UNL     1     -40.717 -43.219  11.118  1.00  0.00     0.015 C 
HETATM   20  C   UNL     1     -41.783 -43.112  12.212  1.00  0.00     0.095 C 
HETATM   21  N   UNL     1     -42.769 -44.172  12.174  1.00  0.00    -0.261 NA
HETATM   22  C   UNL     1     -42.459 -45.317  12.893  1.00  0.00     0.220 C 
HETATM   23  H   UNL     1     -43.056 -44.366  11.221  1.00  0.00     0.130 HD
HETATM   24  O   UNL     1     -42.906 -45.549  14.012  1.00  0.00    -0.278 OA
ENDBRANCH   4  16
TORSDOF 3
ENDMDL
MODEL 6
REMARK VINA RESULT:      -5.8      3.830      4.653
REMARK  3 active torsions:
REMARK  status: ('A' for Active; 'I' for Inactive)
REMARK    1  A    between atoms: O_2  and  C_3 
REMARK    2  A    between atoms: C_6  and  N_7 
REMARK       I    between atoms: N_7  and  C_8 
REMARK       I    between atoms: C_8  and  N_10 
REMARK    3  A    between atoms: N_10  and  C_11 
ROOT
HETATM    1  N   UNL     1     -41.016 -48.981  13.078  1.00  0.00    -0.308 N 
HETATM    2  C   UNL     1     -41.067 -50.350  13.119  1.00  0.00     0.321 C 
HETATM    3  O   UNL     1     -41.573 -51.073  12.270  1.00  0.00    -0.247 OA
HETATM    4  N   UNL     1     -40.498 -50.894  14.244  1.00  0.00    -0.330 N 
HETATM    5  H   UNL     1     -40.497 -48.518  13.810  1.00  0.00     0.170 HD
HETATM    6  H   UNL     1     -39.815 -50.378  14.782  1.00  0.00     0.165 HD
ENDROOT
BRANCH   1   7
HETATM    7  C   UNL     1     -41.562 -48.179  12.047  1.00  0.00     0.051 A 
HETATM    8  C   UNL     1     -42.931 -48.000  11.845  1.00  0.00     0.035 A 
HETATM    9  C   UNL     1     -43.391 -47.207  10.798  1.00  0.00     0.058 A 
HETATM   10  C   UNL     1     -42.462 -46.597   9.980  1.00  0.00     0.141 A 
HETATM   11  N   UNL     1     -41.126 -46.726  10.137  1.00  0.00    -0.345 N 
HETATM   12  C   UNL     1     -40.713 -47.510  11.166  1.00  0.00     0.119 A 
ATOM     13  HN  UNL     1     -40.464 -46.259   9.518  1.00  0.00     0.167 HD
BRANCH  10  14
HETATM   14  O   UNL     1     -42.977 -45.824   8.960  1.00  0.00    -0.341 OA
HETATM   15  C   UNL     1     -44.390 -45.922   8.847  1.00  0.00     0.211 C 
ENDBRANCH  10  14
ENDBRANCH   1   7
BRANCH   4  16
HETATM   16  C   UNL     1     -40.438 -52.350  14.325  1.00  0.00     0.172 C 
HETATM   17  C   UNL     1     -40.699 -52.838  15.758  1.00  0.00     0.034 C 
HETATM   18  C   UNL     1     -41.192 -54.284  15.781  1.00  0.00     0.004 C 
HETATM   19  C   UNL     1     -40.117 -55.366  15.636  1.00  0.00     0.015 C 
HETATM   20  C   UNL     1     -38.833 -55.010  14.882  1.00  0.00     0.095 C 
HETATM   21  N   UNL     1     -39.059 -54.256  13.666  1.00  0.00    -0.261 NA
HETATM   22  C   UNL     1     -39.099 -52.876  13.805  1.00  0.00     0.220 C 
HETATM   23  H   UNL     1     -39.849 -54.627  13.151  1.00  0.00     0.130 HD
HETATM   24  O   UNL     1     -38.145 -52.148  13.551  1.00  0.00    -0.278 OA
ENDBRANCH   4  16
TORSDOF 3
ENDMDL
MODEL 7
REMARK VINA RESULT:      -5.7      4.940      7.062
REMARK  3 active torsions:
REMARK  status: ('A' for Active; 'I' for Inactive)
REMARK    1  A    between atoms: O_2  and  C_3 
REMARK    2  A    between atoms: C_6  and  N_7 
REMARK       I    between atoms: N_7  and  C_8 
REMARK       I    between atoms: C_8  and  N_10 
REMARK    3  A    between atoms: N_10  and  C_11 
ROOT
HETATM    1  N   UNL     1     -38.777 -48.240  12.279  1.00  0.00    -0.308 N 
HETATM    2  C   UNL     1     -40.089 -47.859  12.169  1.00  0.00     0.321 C 
HETATM    3  O   UNL     1     -40.916 -47.873  13.073  1.00  0.00    -0.247 OA
HETATM    4  N   UNL     1     -40.446 -47.452  10.907  1.00  0.00    -0.330 N 
HETATM    5  H   UNL     1     -38.189 -48.101  11.470  1.00  0.00     0.170 HD
HETATM    6  H   UNL     1     -39.750 -47.132  10.248  1.00  0.00     0.165 HD
ENDROOT
BRANCH   1   7
HETATM    7  C   UNL     1     -38.170 -48.731  13.460  1.00  0.00     0.051 A 
HETATM    8  C   UNL     1     -37.459 -47.932  14.356  1.00  0.00     0.035 A 
HETATM    9  C   UNL     1     -36.878 -48.492  15.490  1.00  0.00     0.058 A 
HETATM   10  C   UNL     1     -37.034 -49.846  15.707  1.00  0.00     0.141 A 
HETATM   11  N   UNL     1     -37.721 -50.663  14.879  1.00  0.00    -0.345 N 
HETATM   12  C   UNL     1     -38.272 -50.083  13.781  1.00  0.00     0.119 A 
ATOM     13  HN  UNL     1     -37.822 -51.659  15.069  1.00  0.00     0.167 HD
BRANCH  10  14
HETATM   14  O   UNL     1     -36.436 -50.343  16.847  1.00  0.00    -0.341 OA
HETATM   15  C   UNL     1     -37.040 -49.872  18.043  1.00  0.00     0.211 C 
ENDBRANCH  10  14
ENDBRANCH   1   7
BRANCH   4  16
HETATM   16  C   UNL     1     -41.805 -46.952  10.726  1.00  0.00     0.172 C 
HETATM   17  C   UNL     1     -42.598 -47.837   9.751  1.00  0.00     0.034 C 
HETATM   18  C   UNL     1     -44.105 -47.701   9.964  1.00  0.00     0.004 C 
HETATM   19  C   UNL     1     -44.766 -46.468   9.341  1.00  0.00     0.015 C 
HETATM   20  C   UNL     1     -43.909 -45.216   9.138  1.00  0.00     0.095 C 
HETATM   21  N   UNL     1     -43.054 -44.904  10.265  1.00  0.00    -0.261 NA
HETATM   22  C   UNL     1     -41.800 -45.496  10.258  1.00  0.00     0.220 C 
HETATM   23  H   UNL     1     -43.548 -45.029  11.141  1.00  0.00     0.130 HD
HETATM   24  O   UNL     1     -40.783 -44.912   9.896  1.00  0.00    -0.278 OA
ENDBRANCH   4  16
TORSDOF 3
ENDMDL
MODEL 8
REMARK VINA RESULT:      -5.7      1.765      2.193
REMARK  3 active torsions:
REMARK  status: ('A' for Active; 'I' for Inactive)
REMARK    1  A    between atoms: O_2  and  C_3 
REMARK    2  A    between atoms: C_6  and  N_7 
REMARK       I    between atoms: N_7  and  C_8 
REMARK       I    between atoms: C_8  and  N_10 
REMARK    3  A    between atoms: N_10  and  C_11 
ROOT
HETATM    1  N   UNL     1     -41.313 -48.261  12.719  1.00  0.00    -0.308 N 
HETATM    2  C   UNL     1     -42.451 -48.997  12.513  1.00  0.00     0.321 C 
HETATM    3  O   UNL     1     -43.410 -48.656  11.829  1.00  0.00    -0.247 OA
HETATM    4  N   UNL     1     -42.461 -50.202  13.170  1.00  0.00    -0.330 N 
HETATM    5  H   UNL     1     -40.570 -48.702  13.241  1.00  0.00     0.170 HD
HETATM    6  H   UNL     1     -41.598 -50.641  13.462  1.00  0.00     0.165 HD
ENDROOT
BRANCH   1   7
HETATM    7  C   UNL     1     -41.072 -46.972  12.184  1.00  0.00     0.051 A 
HETATM    8  C   UNL     1     -40.359 -46.742  11.006  1.00  0.00     0.035 A 
HETATM    9  C   UNL     1     -40.150 -45.444  10.552  1.00  0.00     0.058 A 
HETATM   10  C   UNL     1     -40.674 -44.400  11.287  1.00  0.00     0.141 A 
HETATM   11  N   UNL     1     -41.381 -44.566  12.426  1.00  0.00    -0.345 N 
HETATM   12  C   UNL     1     -41.562 -45.846  12.842  1.00  0.00     0.119 A 
ATOM     13  HN  UNL     1     -41.758 -43.774  12.945  1.00  0.00     0.167 HD
BRANCH  10  14
HETATM   14  O   UNL     1     -40.434 -43.136  10.787  1.00  0.00    -0.341 OA
HETATM   15  C   UNL     1     -40.543 -42.117  11.771  1.00  0.00     0.211 C 
ENDBRANCH  10  14
ENDBRANCH   1   7
BRANCH   4  16
HETATM   16  C   UNL     1     -43.602 -51.081  12.936  1.00  0.00     0.172 C 
HETATM   17  C   UNL     1     -44.534 -51.118  14.157  1.00  0.00     0.034 C 
HETATM   18  C   UNL     1     -45.952 -51.539  13.772  1.00  0.00     0.004 C 
HETATM   19  C   UNL     1     -46.182 -53.042  13.584  1.00  0.00     0.015 C 
HETATM   20  C   UNL     1     -44.991 -53.907  13.166  1.00  0.00     0.095 C 
HETATM   21  N   UNL     1     -44.174 -53.314  12.127  1.00  0.00    -0.261 NA
HETATM   22  C   UNL     1     -43.144 -52.491  12.558  1.00  0.00     0.220 C 
HETATM   23  H   UNL     1     -44.751 -52.888  11.411  1.00  0.00     0.130 HD
HETATM   24  O   UNL     1     -41.978 -52.863  12.644  1.00  0.00    -0.278 OA
ENDBRANCH   4  16
TORSDOF 3
ENDMDL
MODEL 9
REMARK VINA RESULT:      -5.6      1.868      2.256
REMARK  3 active torsions:
REMARK  status: ('A' for Active; 'I' for Inactive)
REMARK    1  A    between atoms: O_2  and  C_3 
REMARK    2  A    between atoms: C_6  and  N_7 
REMARK       I    between atoms: N_7  and  C_8 
REMARK       I    between atoms: C_8  and  N_10 
REMARK    3  A    between atoms: N_10  and  C_11 
ROOT
HETATM    1  N   UNL     1     -43.354 -48.685  11.987  1.00  0.00    -0.308 N 
HETATM    2  C   UNL     1     -43.285 -49.829  12.739  1.00  0.00     0.321 C 
HETATM    3  O   UNL     1     -42.346 -50.161  13.452  1.00  0.00    -0.247 OA
HETATM    4  N   UNL     1     -44.390 -50.637  12.624  1.00  0.00    -0.330 N 
HETATM    5  H   UNL     1     -44.224 -48.502  11.509  1.00  0.00     0.170 HD
HETATM    6  H   UNL     1     -45.278 -50.263  12.319  1.00  0.00     0.165 HD
ENDROOT
BRANCH   1   7
HETATM    7  C   UNL     1     -42.335 -47.706  11.903  1.00  0.00     0.051 A 
HETATM    8  C   UNL     1     -41.236 -47.803  11.048  1.00  0.00     0.035 A 
HETATM    9  C   UNL     1     -40.265 -46.806  11.032  1.00  0.00     0.058 A 
HETATM   10  C   UNL     1     -40.426 -45.722  11.872  1.00  0.00     0.141 A 
HETATM   11  N   UNL     1     -41.475 -45.572  12.710  1.00  0.00    -0.345 N 
HETATM   12  C   UNL     1     -42.400 -46.566  12.701  1.00  0.00     0.119 A 
ATOM     13  HN  UNL     1     -41.567 -44.757  13.315  1.00  0.00     0.167 HD
BRANCH  10  14
HETATM   14  O   UNL     1     -39.433 -44.766  11.812  1.00  0.00    -0.341 OA
HETATM   15  C   UNL     1     -39.071 -44.258  13.088  1.00  0.00     0.211 C 
ENDBRANCH  10  14
ENDBRANCH   1   7
BRANCH   4  16
HETATM   16  C   UNL     1     -44.430 -51.835  13.456  1.00  0.00     0.172 C 
HETATM   17  C   UNL     1     -44.132 -53.096  12.630  1.00  0.00     0.034 C 
HETATM   18  C   UNL     1     -43.620 -54.238  13.507  1.00  0.00     0.004 C 
HETATM   19  C   UNL     1     -44.684 -55.026  14.277  1.00  0.00     0.015 C 
HETATM   20  C   UNL     1     -45.988 -54.312  14.640  1.00  0.00     0.095 C 
HETATM   21  N   UNL     1     -45.799 -52.964  15.135  1.00  0.00    -0.261 NA
HETATM   22  C   UNL     1     -45.773 -51.962  14.177  1.00  0.00     0.220 C 
HETATM   23  H   UNL     1     -45.016 -52.921  15.778  1.00  0.00     0.130 HD
HETATM   24  O   UNL     1     -46.742 -51.254  13.919  1.00  0.00    -0.278 OA
ENDBRANCH   4  16
TORSDOF 3
ENDMDL
