MODEL 1
REMARK VINA RESULT:      -5.8      0.000      0.000
REMARK  4 active torsions:
REMARK  status: ('A' for Active; 'I' for Inactive)
REMARK    1  A    between atoms: N_2  and  C_4 
REMARK    2  A    between atoms: C_7  and  N_8 
REMARK       I    between atoms: N_8  and  C_9 
REMARK       I    between atoms: C_9  and  N_11 
REMARK    3  A    between atoms: N_11  and  C_12 
REMARK       I    between atoms: N_15  and  C_18 
REMARK    4  A    between atoms: C_18  and  C_20 
ROOT
HETATM    1  N   UNL     1     -41.389 -49.969  13.270  1.00  0.00    -0.308 N 
HETATM    2  C   UNL     1     -41.559 -51.331  13.377  1.00  0.00     0.321 C 
HETATM    3  O   UNL     1     -41.933 -52.058  12.470  1.00  0.00    -0.247 OA
HETATM    4  N   UNL     1     -41.273 -51.831  14.616  1.00  0.00    -0.338 N 
HETATM    5  H   UNL     1     -40.679 -49.546  13.850  1.00  0.00     0.170 HD
HETATM    6  H   UNL     1     -41.205 -51.178  15.384  1.00  0.00     0.164 HD
ENDROOT
BRANCH   1   7
HETATM    7  C   UNL     1     -41.864 -49.235  12.151  1.00  0.00     0.051 A 
HETATM    8  C   UNL     1     -43.082 -48.569  12.175  1.00  0.00     0.035 A 
HETATM    9  C   UNL     1     -43.526 -47.869  11.055  1.00  0.00     0.050 A 
HETATM   10  C   UNL     1     -42.737 -47.794   9.910  1.00  0.00     0.102 A 
HETATM   11  N   UNL     1     -41.543 -48.434   9.876  1.00  0.00    -0.350 N 
HETATM   12  C   UNL     1     -41.132 -49.124  10.979  1.00  0.00     0.119 A 
ATOM     13  HN  UNL     1     -40.961 -48.400   9.038  1.00  0.00     0.166 HD
BRANCH  10  14
HETATM   14  N   UNL     1     -43.178 -47.073   8.795  1.00  0.00    -0.376 N 
HETATM   15  C   UNL     1     -43.972 -45.889   9.086  1.00  0.00     0.150 C 
HETATM   16  C   UNL     1     -43.492 -47.815   7.581  1.00  0.00     0.150 C 
ENDBRANCH  10  14
ENDBRANCH   1   7
BRANCH   4  17
HETATM   17  C   UNL     1     -41.428 -53.257  14.941  1.00  0.00     0.089 C 
HETATM   18  C   UNL     1     -41.861 -53.472  16.403  1.00  0.00     0.045 C 
HETATM   19  C   UNL     1     -40.726 -53.856  17.344  1.00  0.00     0.127 C 
HETATM   20  N   UNL     1     -39.996 -54.981  16.784  1.00  0.00    -0.352 N 
HETATM   21  C   UNL     1     -39.298 -54.657  15.547  1.00  0.00     0.127 C 
HETATM   22  C   UNL     1     -39.893 -56.255  17.333  1.00  0.00     0.224 C 
HETATM   23  C   UNL     1     -40.260 -54.153  14.464  1.00  0.00     0.045 C 
HETATM   24  O   UNL     1     -39.240 -57.156  16.812  1.00  0.00    -0.273 OA
BRANCH  22  25
HETATM   25  C   UNL     1     -40.605 -56.527  18.623  1.00  0.00     0.078 A 
HETATM   26  C   UNL     1     -39.867 -56.335  19.930  1.00  0.00     0.015 A 
HETATM   27  C   UNL     1     -40.244 -57.716  19.485  1.00  0.00     0.015 A 
ENDBRANCH  22  25
ENDBRANCH   4  17
TORSDOF 4
ENDMDL
MODEL 2
REMARK VINA RESULT:      -5.7      2.556      3.149
REMARK  4 active torsions:
REMARK  status: ('A' for Active; 'I' for Inactive)
REMARK    1  A    between atoms: N_2  and  C_4 
REMARK    2  A    between atoms: C_7  and  N_8 
REMARK       I    between atoms: N_8  and  C_9 
REMARK       I    between atoms: C_9  and  N_11 
REMARK    3  A    between atoms: N_11  and  C_12 
REMARK       I    between atoms: N_15  and  C_18 
REMARK    4  A    between atoms: C_18  and  C_20 
ROOT
HETATM    1  N   UNL     1     -42.547 -49.478  11.435  1.00  0.00    -0.308 N 
HETATM    2  C   UNL     1     -42.654 -49.936  12.729  1.00  0.00     0.321 C 
HETATM    3  O   UNL     1     -42.478 -49.251  13.725  1.00  0.00    -0.247 OA
HETATM    4  N   UNL     1     -42.981 -51.259  12.825  1.00  0.00    -0.338 N 
HETATM    5  H   UNL     1     -43.128 -49.921  10.739  1.00  0.00     0.170 HD
HETATM    6  H   UNL     1     -42.878 -51.831  11.998  1.00  0.00     0.164 HD
ENDROOT
BRANCH   1   7
HETATM    7  C   UNL     1     -41.983 -48.211  11.128  1.00  0.00     0.051 A 
HETATM    8  C   UNL     1     -42.772 -47.085  10.939  1.00  0.00     0.035 A 
HETATM    9  C   UNL     1     -42.189 -45.859  10.625  1.00  0.00     0.050 A 
HETATM   10  C   UNL     1     -40.806 -45.736  10.537  1.00  0.00     0.102 A 
HETATM   11  N   UNL     1     -40.022 -46.827  10.726  1.00  0.00    -0.350 N 
HETATM   12  C   UNL     1     -40.614 -48.020  11.021  1.00  0.00     0.119 A 
ATOM     13  HN  UNL     1     -39.007 -46.756  10.650  1.00  0.00     0.166 HD
BRANCH  10  14
HETATM   14  N   UNL     1     -40.223 -44.499  10.242  1.00  0.00    -0.376 N 
HETATM   15  C   UNL     1     -39.006 -44.551   9.447  1.00  0.00     0.150 C 
HETATM   16  C   UNL     1     -40.339 -43.435  11.230  1.00  0.00     0.150 C 
ENDBRANCH  10  14
ENDBRANCH   1   7
BRANCH   4  17
HETATM   17  C   UNL     1     -43.106 -51.944  14.120  1.00  0.00     0.089 C 
HETATM   18  C   UNL     1     -41.738 -52.161  14.793  1.00  0.00     0.045 C 
HETATM   19  C   UNL     1     -41.171 -53.565  14.628  1.00  0.00     0.127 C 
HETATM   20  N   UNL     1     -42.175 -54.539  15.027  1.00  0.00    -0.352 N 
HETATM   21  C   UNL     1     -43.342 -54.553  14.156  1.00  0.00     0.127 C 
HETATM   22  C   UNL     1     -42.086 -55.428  16.092  1.00  0.00     0.224 C 
HETATM   23  C   UNL     1     -44.032 -53.184  14.102  1.00  0.00     0.045 C 
HETATM   24  O   UNL     1     -42.968 -56.240  16.361  1.00  0.00    -0.273 OA
BRANCH  22  25
HETATM   25  C   UNL     1     -40.850 -55.393  16.939  1.00  0.00     0.078 A 
HETATM   26  C   UNL     1     -39.763 -56.419  16.704  1.00  0.00     0.015 A 
HETATM   27  C   UNL     1     -40.569 -56.467  17.966  1.00  0.00     0.015 A 
ENDBRANCH  22  25
ENDBRANCH   4  17
TORSDOF 4
ENDMDL
MODEL 3
REMARK VINA RESULT:      -5.7      4.848     10.432
REMARK  4 active torsions:
REMARK  status: ('A' for Active; 'I' for Inactive)
REMARK    1  A    between atoms: N_2  and  C_4 
REMARK    2  A    between atoms: C_7  and  N_8 
REMARK       I    between atoms: N_8  and  C_9 
REMARK       I    between atoms: C_9  and  N_11 
REMARK    3  A    between atoms: N_11  and  C_12 
REMARK       I    between atoms: N_15  and  C_18 
REMARK    4  A    between atoms: C_18  and  C_20 
ROOT
HETATM    1  N   UNL     1     -37.910 -48.202  13.701  1.00  0.00    -0.308 N 
HETATM    2  C   UNL     1     -39.149 -47.603  13.719  1.00  0.00     0.321 C 
HETATM    3  O   UNL     1     -39.727 -47.232  14.729  1.00  0.00    -0.247 OA
HETATM    4  N   UNL     1     -39.711 -47.449  12.483  1.00  0.00    -0.338 N 
HETATM    5  H   UNL     1     -37.335 -48.048  12.885  1.00  0.00     0.170 HD
HETATM    6  H   UNL     1     -39.317 -47.979  11.717  1.00  0.00     0.164 HD
ENDROOT
BRANCH   1   7
HETATM    7  C   UNL     1     -37.279 -48.666  14.885  1.00  0.00     0.051 A 
HETATM    8  C   UNL     1     -36.437 -47.854  15.633  1.00  0.00     0.035 A 
HETATM    9  C   UNL     1     -35.823 -48.344  16.784  1.00  0.00     0.050 A 
HETATM   10  C   UNL     1     -36.076 -49.641  17.223  1.00  0.00     0.102 A 
HETATM   11  N   UNL     1     -36.901 -50.442  16.506  1.00  0.00    -0.350 N 
HETATM   12  C   UNL     1     -37.483 -49.946  15.375  1.00  0.00     0.119 A 
ATOM     13  HN  UNL     1     -37.084 -51.400  16.807  1.00  0.00     0.166 HD
BRANCH  10  14
HETATM   14  N   UNL     1     -35.473 -50.122  18.390  1.00  0.00    -0.376 N 
HETATM   15  C   UNL     1     -36.070 -51.321  18.958  1.00  0.00     0.150 C 
HETATM   16  C   UNL     1     -34.898 -49.153  19.313  1.00  0.00     0.150 C 
ENDBRANCH  10  14
ENDBRANCH   1   7
BRANCH   4  17
HETATM   17  C   UNL     1     -41.047 -46.865  12.296  1.00  0.00     0.089 C 
HETATM   18  C   UNL     1     -42.124 -47.944  12.079  1.00  0.00     0.045 C 
HETATM   19  C   UNL     1     -42.519 -48.155  10.623  1.00  0.00     0.127 C 
HETATM   20  N   UNL     1     -42.853 -46.872  10.025  1.00  0.00    -0.352 N 
HETATM   21  C   UNL     1     -41.716 -45.967   9.927  1.00  0.00     0.127 C 
HETATM   22  C   UNL     1     -44.098 -46.489   9.535  1.00  0.00     0.224 C 
HETATM   23  C   UNL     1     -41.094 -45.681  11.299  1.00  0.00     0.045 C 
HETATM   24  O   UNL     1     -44.305 -45.392   9.023  1.00  0.00    -0.273 OA
BRANCH  22  25
HETATM   25  C   UNL     1     -45.226 -47.469   9.633  1.00  0.00     0.078 A 
HETATM   26  C   UNL     1     -45.757 -48.114   8.371  1.00  0.00     0.015 A 
HETATM   27  C   UNL     1     -46.608 -47.132   9.117  1.00  0.00     0.015 A 
ENDBRANCH  22  25
ENDBRANCH   4  17
TORSDOF 4
ENDMDL
MODEL 4
REMARK VINA RESULT:      -5.7      2.610      3.345
REMARK  4 active torsions:
REMARK  status: ('A' for Active; 'I' for Inactive)
REMARK    1  A    between atoms: N_2  and  C_4 
REMARK    2  A    between atoms: C_7  and  N_8 
REMARK       I    between atoms: N_8  and  C_9 
REMARK       I    between atoms: C_9  and  N_11 
REMARK    3  A    between atoms: N_11  and  C_12 
REMARK       I    between atoms: N_15  and  C_18 
REMARK    4  A    between atoms: C_18  and  C_20 
ROOT
HETATM    1  N   UNL     1     -42.355 -49.133  11.431  1.00  0.00    -0.308 N 
HETATM    2  C   UNL     1     -42.791 -49.722  12.597  1.00  0.00     0.321 C 
HETATM    3  O   UNL     1     -43.258 -49.116  13.549  1.00  0.00    -0.247 OA
HETATM    4  N   UNL     1     -42.658 -51.081  12.616  1.00  0.00    -0.338 N 
HETATM    5  H   UNL     1     -42.435 -49.675  10.583  1.00  0.00     0.170 HD
HETATM    6  H   UNL     1     -42.056 -51.506  11.923  1.00  0.00     0.164 HD
ENDROOT
BRANCH   1   7
HETATM    7  C   UNL     1     -42.185 -47.728  11.314  1.00  0.00     0.051 A 
HETATM    8  C   UNL     1     -40.954 -47.120  11.525  1.00  0.00     0.035 A 
HETATM    9  C   UNL     1     -40.822 -45.737  11.416  1.00  0.00     0.050 A 
HETATM   10  C   UNL     1     -41.912 -44.950  11.056  1.00  0.00     0.102 A 
HETATM   11  N   UNL     1     -43.118 -45.531  10.841  1.00  0.00    -0.350 N 
HETATM   12  C   UNL     1     -43.228 -46.886  10.964  1.00  0.00     0.119 A 
ATOM     13  HN  UNL     1     -43.929 -44.965  10.591  1.00  0.00     0.166 HD
BRANCH  10  14
HETATM   14  N   UNL     1     -41.770 -43.563  10.928  1.00  0.00    -0.376 N 
HETATM   15  C   UNL     1     -40.510 -43.014  11.403  1.00  0.00     0.150 C 
HETATM   16  C   UNL     1     -42.962 -42.738  11.069  1.00  0.00     0.150 C 
ENDBRANCH  10  14
ENDBRANCH   1   7
BRANCH   4  17
HETATM   17  C   UNL     1     -43.032 -51.889  13.786  1.00  0.00     0.089 C 
HETATM   18  C   UNL     1     -41.854 -52.074  14.761  1.00  0.00     0.045 C 
HETATM   19  C   UNL     1     -41.143 -53.416  14.641  1.00  0.00     0.127 C 
HETATM   20  N   UNL     1     -42.124 -54.488  14.705  1.00  0.00    -0.352 N 
HETATM   21  C   UNL     1     -43.039 -54.501  13.573  1.00  0.00     0.127 C 
HETATM   22  C   UNL     1     -42.217 -55.463  15.693  1.00  0.00     0.224 C 
HETATM   23  C   UNL     1     -43.813 -53.183  13.448  1.00  0.00     0.045 C 
HETATM   24  O   UNL     1     -43.063 -56.354  15.673  1.00  0.00    -0.273 OA
BRANCH  22  25
HETATM   25  C   UNL     1     -41.231 -55.422  16.820  1.00  0.00     0.078 A 
HETATM   26  C   UNL     1     -40.029 -56.341  16.785  1.00  0.00     0.015 A 
HETATM   27  C   UNL     1     -41.109 -56.568  17.800  1.00  0.00     0.015 A 
ENDBRANCH  22  25
ENDBRANCH   4  17
TORSDOF 4
ENDMDL
MODEL 5
REMARK VINA RESULT:      -5.6      5.403      6.116
REMARK  4 active torsions:
REMARK  status: ('A' for Active; 'I' for Inactive)
REMARK    1  A    between atoms: N_2  and  C_4 
REMARK    2  A    between atoms: C_7  and  N_8 
REMARK       I    between atoms: N_8  and  C_9 
REMARK       I    between atoms: C_9  and  N_11 
REMARK    3  A    between atoms: N_11  and  C_12 
REMARK       I    between atoms: N_15  and  C_18 
REMARK    4  A    between atoms: C_18  and  C_20 
ROOT
HETATM    1  N   UNL     1     -39.065 -48.277  12.145  1.00  0.00    -0.308 N 
HETATM    2  C   UNL     1     -39.122 -48.615  13.478  1.00  0.00     0.321 C 
HETATM    3  O   UNL     1     -40.153 -48.825  14.098  1.00  0.00    -0.247 OA
HETATM    4  N   UNL     1     -37.900 -48.700  14.083  1.00  0.00    -0.338 N 
HETATM    5  H   UNL     1     -38.249 -48.573  11.628  1.00  0.00     0.170 HD
HETATM    6  H   UNL     1     -37.108 -48.290  13.607  1.00  0.00     0.164 HD
ENDROOT
BRANCH   1   7
HETATM    7  C   UNL     1     -40.222 -47.903  11.412  1.00  0.00     0.051 A 
HETATM    8  C   UNL     1     -40.500 -46.577  11.109  1.00  0.00     0.035 A 
HETATM    9  C   UNL     1     -41.652 -46.241  10.399  1.00  0.00     0.050 A 
HETATM   10  C   UNL     1     -42.518 -47.233   9.949  1.00  0.00     0.102 A 
HETATM   11  N   UNL     1     -42.255 -48.533  10.231  1.00  0.00    -0.350 N 
HETATM   12  C   UNL     1     -41.128 -48.839  10.938  1.00  0.00     0.119 A 
ATOM     13  HN  UNL     1     -42.888 -49.270   9.921  1.00  0.00     0.166 HD
BRANCH  10  14
HETATM   14  N   UNL     1     -43.663 -46.893   9.219  1.00  0.00    -0.376 N 
HETATM   15  C   UNL     1     -43.972 -47.763   8.094  1.00  0.00     0.150 C 
HETATM   16  C   UNL     1     -44.000 -45.482   9.093  1.00  0.00     0.150 C 
ENDBRANCH  10  14
ENDBRANCH   1   7
BRANCH   4  17
HETATM   17  C   UNL     1     -37.753 -49.013  15.512  1.00  0.00     0.089 C 
HETATM   18  C   UNL     1     -37.445 -47.757  16.349  1.00  0.00     0.045 C 
HETATM   19  C   UNL     1     -35.975 -47.586  16.709  1.00  0.00     0.127 C 
HETATM   20  N   UNL     1     -35.478 -48.816  17.304  1.00  0.00    -0.352 N 
HETATM   21  C   UNL     1     -35.458 -49.939  16.376  1.00  0.00     0.127 C 
HETATM   22  C   UNL     1     -35.014 -48.975  18.605  1.00  0.00     0.224 C 
HETATM   23  C   UNL     1     -36.853 -50.237  15.810  1.00  0.00     0.045 C 
HETATM   24  O   UNL     1     -34.589 -50.044  19.037  1.00  0.00    -0.273 OA
BRANCH  22  25
HETATM   25  C   UNL     1     -35.027 -47.780  19.510  1.00  0.00     0.078 A 
HETATM   26  C   UNL     1     -33.809 -46.885  19.571  1.00  0.00     0.015 A 
HETATM   27  C   UNL     1     -34.172 -47.728  20.756  1.00  0.00     0.015 A 
ENDBRANCH  22  25
ENDBRANCH   4  17
TORSDOF 4
ENDMDL
MODEL 6
REMARK VINA RESULT:      -5.6      3.018     10.164
REMARK  4 active torsions:
REMARK  status: ('A' for Active; 'I' for Inactive)
REMARK    1  A    between atoms: N_2  and  C_4 
REMARK    2  A    between atoms: C_7  and  N_8 
REMARK       I    between atoms: N_8  and  C_9 
REMARK       I    between atoms: C_9  and  N_11 
REMARK    3  A    between atoms: N_11  and  C_12 
REMARK       I    between atoms: N_15  and  C_18 
REMARK    4  A    between atoms: C_18  and  C_20 
ROOT
HETATM    1  N   UNL     1     -40.399 -52.459  13.931  1.00  0.00    -0.308 N 
HETATM    2  C   UNL     1     -39.775 -51.487  13.182  1.00  0.00     0.321 C 
HETATM    3  O   UNL     1     -38.573 -51.439  12.968  1.00  0.00    -0.247 OA
HETATM    4  N   UNL     1     -40.624 -50.543  12.679  1.00  0.00    -0.338 N 
HETATM    5  H   UNL     1     -41.348 -52.695  13.682  1.00  0.00     0.170 HD
HETATM    6  H   UNL     1     -41.553 -50.485  13.074  1.00  0.00     0.164 HD
ENDROOT
BRANCH   1   7
HETATM    7  C   UNL     1     -39.670 -53.377  14.732  1.00  0.00     0.051 A 
HETATM    8  C   UNL     1     -39.389 -53.121  16.068  1.00  0.00     0.035 A 
HETATM    9  C   UNL     1     -38.659 -54.036  16.824  1.00  0.00     0.050 A 
HETATM   10  C   UNL     1     -38.236 -55.238  16.263  1.00  0.00     0.102 A 
HETATM   11  N   UNL     1     -38.510 -55.504  14.962  1.00  0.00    -0.350 N 
HETATM   12  C   UNL     1     -39.216 -54.589  14.237  1.00  0.00     0.119 A 
ATOM     13  HN  UNL     1     -38.194 -56.375  14.534  1.00  0.00     0.166 HD
BRANCH  10  14
HETATM   14  N   UNL     1     -37.521 -56.163  17.032  1.00  0.00    -0.376 N 
HETATM   15  C   UNL     1     -38.327 -57.047  17.861  1.00  0.00     0.150 C 
HETATM   16  C   UNL     1     -36.215 -55.767  17.540  1.00  0.00     0.150 C 
ENDBRANCH  10  14
ENDBRANCH   1   7
BRANCH   4  17
HETATM   17  C   UNL     1     -40.146 -49.402  11.884  1.00  0.00     0.089 C 
HETATM   18  C   UNL     1     -39.713 -48.220  12.772  1.00  0.00     0.045 C 
HETATM   19  C   UNL     1     -40.750 -47.110  12.890  1.00  0.00     0.127 C 
HETATM   20  N   UNL     1     -41.179 -46.709  11.560  1.00  0.00    -0.352 N 
HETATM   21  C   UNL     1     -41.901 -47.755  10.848  1.00  0.00     0.127 C 
HETATM   22  C   UNL     1     -40.994 -45.462  10.974  1.00  0.00     0.224 C 
HETATM   23  C   UNL     1     -41.057 -49.026  10.690  1.00  0.00     0.045 C 
HETATM   24  O   UNL     1     -41.402 -45.186   9.848  1.00  0.00    -0.273 OA
BRANCH  22  25
HETATM   25  C   UNL     1     -40.272 -44.412  11.762  1.00  0.00     0.078 A 
HETATM   26  C   UNL     1     -41.059 -43.510  12.686  1.00  0.00     0.015 A 
HETATM   27  C   UNL     1     -40.436 -42.942  11.448  1.00  0.00     0.015 A 
ENDBRANCH  22  25
ENDBRANCH   4  17
TORSDOF 4
ENDMDL
MODEL 7
REMARK VINA RESULT:      -5.6      2.293      2.817
REMARK  4 active torsions:
REMARK  status: ('A' for Active; 'I' for Inactive)
REMARK    1  A    between atoms: N_2  and  C_4 
REMARK    2  A    between atoms: C_7  and  N_8 
REMARK       I    between atoms: N_8  and  C_9 
REMARK       I    between atoms: C_9  and  N_11 
REMARK    3  A    between atoms: N_11  and  C_12 
REMARK       I    between atoms: N_15  and  C_18 
REMARK    4  A    between atoms: C_18  and  C_20 
ROOT
HETATM    1  N   UNL     1     -42.841 -49.885  12.060  1.00  0.00    -0.308 N 
HETATM    2  C   UNL     1     -42.216 -50.995  12.582  1.00  0.00     0.321 C 
HETATM    3  O   UNL     1     -41.124 -50.985  13.130  1.00  0.00    -0.247 OA
HETATM    4  N   UNL     1     -42.927 -52.152  12.437  1.00  0.00    -0.338 N 
HETATM    5  H   UNL     1     -43.850 -49.878  12.065  1.00  0.00     0.170 HD
HETATM    6  H   UNL     1     -43.693 -52.156  11.777  1.00  0.00     0.164 HD
ENDROOT
BRANCH   1   7
HETATM    7  C   UNL     1     -42.164 -48.647  11.895  1.00  0.00     0.051 A 
HETATM    8  C   UNL     1     -42.218 -47.649  12.859  1.00  0.00     0.035 A 
HETATM    9  C   UNL     1     -41.554 -46.440  12.660  1.00  0.00     0.050 A 
HETATM   10  C   UNL     1     -40.795 -46.230  11.512  1.00  0.00     0.102 A 
HETATM   11  N   UNL     1     -40.729 -47.199  10.565  1.00  0.00    -0.350 N 
HETATM   12  C   UNL     1     -41.397 -48.371  10.774  1.00  0.00     0.119 A 
ATOM     13  HN  UNL     1     -40.190 -47.054   9.712  1.00  0.00     0.166 HD
BRANCH  10  14
HETATM   14  N   UNL     1     -40.114 -45.022  11.326  1.00  0.00    -0.376 N 
HETATM   15  C   UNL     1     -39.532 -44.826  10.007  1.00  0.00     0.150 C 
HETATM   16  C   UNL     1     -39.409 -44.452  12.466  1.00  0.00     0.150 C 
ENDBRANCH  10  14
ENDBRANCH   1   7
BRANCH   4  17
HETATM   17  C   UNL     1     -42.412 -53.451  12.896  1.00  0.00     0.089 C 
HETATM   18  C   UNL     1     -42.797 -53.741  14.358  1.00  0.00     0.045 C 
HETATM   19  C   UNL     1     -41.689 -53.467  15.367  1.00  0.00     0.127 C 
HETATM   20  N   UNL     1     -40.474 -54.144  14.942  1.00  0.00    -0.352 N 
HETATM   21  C   UNL     1     -39.924 -53.616  13.701  1.00  0.00     0.127 C 
HETATM   22  C   UNL     1     -39.821 -55.170  15.616  1.00  0.00     0.224 C 
HETATM   23  C   UNL     1     -40.927 -53.712  12.545  1.00  0.00     0.045 C 
HETATM   24  O   UNL     1     -38.783 -55.684  15.206  1.00  0.00    -0.273 OA
BRANCH  22  25
HETATM   25  C   UNL     1     -40.412 -55.655  16.904  1.00  0.00     0.078 A 
HETATM   26  C   UNL     1     -40.263 -57.113  17.284  1.00  0.00     0.015 A 
HETATM   27  C   UNL     1     -41.614 -56.574  16.922  1.00  0.00     0.015 A 
ENDBRANCH  22  25
ENDBRANCH   4  17
TORSDOF 4
ENDMDL
MODEL 8
REMARK VINA RESULT:      -5.5      4.342     10.306
REMARK  4 active torsions:
REMARK  status: ('A' for Active; 'I' for Inactive)
REMARK    1  A    between atoms: N_2  and  C_4 
REMARK    2  A    between atoms: C_7  and  N_8 
REMARK       I    between atoms: N_8  and  C_9 
REMARK       I    between atoms: C_9  and  N_11 
REMARK    3  A    between atoms: N_11  and  C_12 
REMARK       I    between atoms: N_15  and  C_18 
REMARK    4  A    between atoms: C_18  and  C_20 
ROOT
HETATM    1  N   UNL     1     -38.895 -55.230  17.829  1.00  0.00    -0.308 N 
HETATM    2  C   UNL     1     -39.465 -55.119  16.580  1.00  0.00     0.321 C 
HETATM    3  O   UNL     1     -39.153 -55.795  15.612  1.00  0.00    -0.247 OA
HETATM    4  N   UNL     1     -40.436 -54.163  16.496  1.00  0.00    -0.338 N 
HETATM    5  H   UNL     1     -39.478 -55.011  18.623  1.00  0.00     0.170 HD
HETATM    6  H   UNL     1     -40.489 -53.477  17.237  1.00  0.00     0.164 HD
ENDROOT
BRANCH   1   7
HETATM    7  C   UNL     1     -37.713 -55.985  18.054  1.00  0.00     0.051 A 
HETATM    8  C   UNL     1     -36.455 -55.486  17.745  1.00  0.00     0.035 A 
HETATM    9  C   UNL     1     -35.316 -56.258  17.966  1.00  0.00     0.050 A 
HETATM   10  C   UNL     1     -35.419 -57.523  18.535  1.00  0.00     0.102 A 
HETATM   11  N   UNL     1     -36.641 -58.021  18.848  1.00  0.00    -0.350 N 
HETATM   12  C   UNL     1     -37.745 -57.253  18.613  1.00  0.00     0.119 A 
ATOM     13  HN  UNL     1     -36.734 -58.953  19.251  1.00  0.00     0.166 HD
BRANCH  10  14
HETATM   14  N   UNL     1     -34.271 -58.287  18.773  1.00  0.00    -0.376 N 
HETATM   15  C   UNL     1     -33.005 -57.604  18.552  1.00  0.00     0.150 C 
HETATM   16  C   UNL     1     -34.326 -59.714  18.488  1.00  0.00     0.150 C 
ENDBRANCH  10  14
ENDBRANCH   1   7
BRANCH   4  17
HETATM   17  C   UNL     1     -41.138 -53.867  15.238  1.00  0.00     0.089 C 
HETATM   18  C   UNL     1     -41.867 -52.511  15.289  1.00  0.00     0.045 C 
HETATM   19  C   UNL     1     -43.363 -52.611  15.561  1.00  0.00     0.127 C 
HETATM   20  N   UNL     1     -43.959 -53.556  14.630  1.00  0.00    -0.352 N 
HETATM   21  C   UNL     1     -43.500 -54.925  14.825  1.00  0.00     0.127 C 
HETATM   22  C   UNL     1     -44.907 -53.268  13.654  1.00  0.00     0.224 C 
HETATM   23  C   UNL     1     -41.977 -55.042  14.681  1.00  0.00     0.045 C 
HETATM   24  O   UNL     1     -45.383 -54.124  12.913  1.00  0.00    -0.273 OA
BRANCH  22  25
HETATM   25  C   UNL     1     -45.368 -51.849  13.516  1.00  0.00     0.078 A 
HETATM   26  C   UNL     1     -46.649 -51.418  14.197  1.00  0.00     0.015 A 
HETATM   27  C   UNL     1     -46.593 -51.496  12.702  1.00  0.00     0.015 A 
ENDBRANCH  22  25
ENDBRANCH   4  17
TORSDOF 4
ENDMDL
MODEL 9
REMARK VINA RESULT:      -5.5      4.551      9.592
REMARK  4 active torsions:
REMARK  status: ('A' for Active; 'I' for Inactive)
REMARK    1  A    between atoms: N_2  and  C_4 
REMARK    2  A    between atoms: C_7  and  N_8 
REMARK       I    between atoms: N_8  and  C_9 
REMARK       I    between atoms: C_9  and  N_11 
REMARK    3  A    between atoms: N_11  and  C_12 
REMARK       I    between atoms: N_15  and  C_18 
REMARK    4  A    between atoms: C_18  and  C_20 
ROOT
HETATM    1  N   UNL     1     -43.032 -50.996  12.839  1.00  0.00    -0.308 N 
HETATM    2  C   UNL     1     -42.715 -49.719  12.431  1.00  0.00     0.321 C 
HETATM    3  O   UNL     1     -43.097 -48.699  12.982  1.00  0.00    -0.247 OA
HETATM    4  N   UNL     1     -41.918 -49.672  11.322  1.00  0.00    -0.338 N 
HETATM    5  H   UNL     1     -42.353 -51.720  12.656  1.00  0.00     0.170 HD
HETATM    6  H   UNL     1     -41.831 -50.513  10.768  1.00  0.00     0.164 HD
ENDROOT
BRANCH   1   7
HETATM    7  C   UNL     1     -44.036 -51.249  13.810  1.00  0.00     0.051 A 
HETATM    8  C   UNL     1     -45.385 -51.268  13.482  1.00  0.00     0.035 A 
HETATM    9  C   UNL     1     -46.347 -51.506  14.461  1.00  0.00     0.050 A 
HETATM   10  C   UNL     1     -45.968 -51.769  15.775  1.00  0.00     0.102 A 
HETATM   11  N   UNL     1     -44.654 -51.760  16.108  1.00  0.00    -0.350 N 
HETATM   12  C   UNL     1     -43.729 -51.513  15.136  1.00  0.00     0.119 A 
ATOM     13  HN  UNL     1     -44.362 -51.936  17.070  1.00  0.00     0.166 HD
BRANCH  10  14
HETATM   14  N   UNL     1     -46.936 -52.028  16.751  1.00  0.00    -0.376 N 
HETATM   15  C   UNL     1     -47.998 -51.038  16.861  1.00  0.00     0.150 C 
HETATM   16  C   UNL     1     -46.515 -52.703  17.971  1.00  0.00     0.150 C 
ENDBRANCH  10  14
ENDBRANCH   1   7
BRANCH   4  17
HETATM   17  C   UNL     1     -41.501 -48.402  10.710  1.00  0.00     0.089 C 
HETATM   18  C   UNL     1     -40.491 -47.641  11.589  1.00  0.00     0.045 C 
HETATM   19  C   UNL     1     -41.099 -46.512  12.411  1.00  0.00     0.127 C 
HETATM   20  N   UNL     1     -41.877 -45.646  11.540  1.00  0.00    -0.352 N 
HETATM   21  C   UNL     1     -43.047 -46.302  10.972  1.00  0.00     0.127 C 
HETATM   22  C   UNL     1     -41.619 -44.309  11.260  1.00  0.00     0.224 C 
HETATM   23  C   UNL     1     -42.666 -47.545  10.157  1.00  0.00     0.045 C 
HETATM   24  O   UNL     1     -42.333 -43.630  10.526  1.00  0.00    -0.273 OA
BRANCH  22  25
HETATM   25  C   UNL     1     -40.419 -43.674  11.895  1.00  0.00     0.078 A 
HETATM   26  C   UNL     1     -40.567 -42.995  13.239  1.00  0.00     0.015 A 
HETATM   27  C   UNL     1     -40.296 -42.171  12.016  1.00  0.00     0.015 A 
ENDBRANCH  22  25
ENDBRANCH   4  17
TORSDOF 4
ENDMDL
