MODEL 1
REMARK VINA RESULT:      -7.2      0.000      0.000
REMARK  4 active torsions:
REMARK  status: ('A' for Active; 'I' for Inactive)
REMARK    1  A    between atoms: N_1  and  C_8 
REMARK    2  A    between atoms: N_2  and  C_7 
REMARK    3  A    between atoms: C_8  and  C_9 
REMARK       I    between atoms: C_9  and  N_13 
REMARK    4  A    between atoms: N_13  and  C_18 
ROOT
HETATM    1  N   UNL     1     -38.395 -50.665  13.565  1.00  0.00    -0.255 N 
HETATM    2  N   UNL     1     -38.968 -48.480  12.885  1.00  0.00    -0.279 N 
HETATM    3  C   UNL     1     -39.237 -49.571  13.705  1.00  0.00     0.334 C 
HETATM    4  C   UNL     1     -37.567 -50.865  12.470  1.00  0.00     0.292 C 
HETATM    5  C   UNL     1     -37.481 -49.727  11.532  1.00  0.00     0.200 C 
HETATM    6  C   UNL     1     -38.142 -48.595  11.787  1.00  0.00     0.146 C 
HETATM    7  O   UNL     1     -40.156 -49.565  14.529  1.00  0.00    -0.246 OA
HETATM    8  O   UNL     1     -36.969 -51.912  12.237  1.00  0.00    -0.264 OA
HETATM    9  F   UNL     1     -36.719 -49.879  10.434  1.00  0.00    -0.199 F 
ENDROOT
BRANCH   1  10
HETATM   10  C   UNL     1     -38.526 -51.723  14.557  1.00  0.00     0.240 C 
BRANCH  10  11
HETATM   11  C   UNL     1     -39.576 -52.746  14.088  1.00  0.00     0.240 C 
HETATM   12  N   UNL     1     -40.887 -52.305  14.253  1.00  0.00    -0.326 N 
HETATM   13  H   UNL     1     -41.002 -51.461  14.810  1.00  0.00     0.169 HD
HETATM   14  O   UNL     1     -39.235 -53.865  13.715  1.00  0.00    -0.271 OA
BRANCH  12  15
HETATM   15  C   UNL     1     -42.075 -53.045  14.036  1.00  0.00     0.037 A 
HETATM   16  C   UNL     1     -42.829 -53.609  15.067  1.00  0.00     0.069 A 
HETATM   17  C   UNL     1     -44.062 -54.140  14.749  1.00  0.00     0.107 A 
HETATM   18  C   UNL     1     -44.525 -54.199  13.455  1.00  0.00     0.105 A 
HETATM   19  O   UNL     1     -44.985 -54.594  15.643  1.00  0.00    -0.323 OA
HETATM   20  O   UNL     1     -45.794 -54.685  13.385  1.00  0.00    -0.323 OA
HETATM   21  C   UNL     1     -43.765 -53.754  12.398  1.00  0.00     0.042 A 
HETATM   22  C   UNL     1     -46.141 -54.671  14.786  1.00  0.00     0.352 C 
HETATM   23  C   UNL     1     -42.534 -53.155  12.700  1.00  0.00     0.032 A 
ENDBRANCH  12  15
ENDBRANCH  10  11
ENDBRANCH   1  10
BRANCH   2  24
HETATM   24  C   UNL     1     -39.650 -47.237  13.218  1.00  0.00     0.232 C 
HETATM   25  O   UNL     1     -39.952 -46.437  12.061  1.00  0.00    -0.366 OA
HETATM   26  C   UNL     1     -39.957 -45.058  12.474  1.00  0.00     0.170 C 
HETATM   27  C   UNL     1     -39.493 -45.003  13.916  1.00  0.00     0.031 C 
HETATM   28  C   UNL     1     -38.799 -46.325  14.092  1.00  0.00     0.056 C 
ENDBRANCH   2  24
TORSDOF 4
ENDMDL
MODEL 2
REMARK VINA RESULT:      -7.1      3.153      7.045
REMARK  4 active torsions:
REMARK  status: ('A' for Active; 'I' for Inactive)
REMARK    1  A    between atoms: N_1  and  C_8 
REMARK    2  A    between atoms: N_2  and  C_7 
REMARK    3  A    between atoms: C_8  and  C_9 
REMARK       I    between atoms: C_9  and  N_13 
REMARK    4  A    between atoms: N_13  and  C_18 
ROOT
HETATM    1  N   UNL     1     -40.799 -51.326  13.970  1.00  0.00    -0.255 N 
HETATM    2  N   UNL     1     -42.946 -52.211  14.378  1.00  0.00    -0.279 N 
HETATM    3  C   UNL     1     -42.028 -51.191  14.599  1.00  0.00     0.334 C 
HETATM    4  C   UNL     1     -40.326 -52.522  13.450  1.00  0.00     0.292 C 
HETATM    5  C   UNL     1     -41.307 -53.627  13.426  1.00  0.00     0.200 C 
HETATM    6  C   UNL     1     -42.558 -53.424  13.849  1.00  0.00     0.146 C 
HETATM    7  O   UNL     1     -42.291 -50.206  15.295  1.00  0.00    -0.246 OA
HETATM    8  O   UNL     1     -39.172 -52.705  13.071  1.00  0.00    -0.264 OA
HETATM    9  F   UNL     1     -40.893 -54.820  12.964  1.00  0.00    -0.199 F 
ENDROOT
BRANCH   1  10
HETATM   10  C   UNL     1     -39.910 -50.173  14.014  1.00  0.00     0.240 C 
BRANCH  10  11
HETATM   11  C   UNL     1     -40.090 -49.330  12.740  1.00  0.00     0.240 C 
HETATM   12  N   UNL     1     -41.191 -48.478  12.794  1.00  0.00    -0.326 N 
HETATM   13  H   UNL     1     -41.832 -48.634  13.568  1.00  0.00     0.169 HD
HETATM   14  O   UNL     1     -39.368 -49.511  11.763  1.00  0.00    -0.271 OA
BRANCH  12  15
HETATM   15  C   UNL     1     -41.699 -47.667  11.751  1.00  0.00     0.037 A 
HETATM   16  C   UNL     1     -42.686 -48.090  10.858  1.00  0.00     0.069 A 
HETATM   17  C   UNL     1     -43.235 -47.152  10.010  1.00  0.00     0.107 A 
HETATM   18  C   UNL     1     -42.790 -45.851   9.965  1.00  0.00     0.105 A 
HETATM   19  O   UNL     1     -44.300 -47.355   9.184  1.00  0.00    -0.323 OA
HETATM   20  O   UNL     1     -43.528 -45.083   9.117  1.00  0.00    -0.323 OA
HETATM   21  C   UNL     1     -41.746 -45.421  10.751  1.00  0.00     0.042 A 
HETATM   22  C   UNL     1     -44.620 -45.989   8.852  1.00  0.00     0.352 C 
HETATM   23  C   UNL     1     -41.210 -46.340  11.665  1.00  0.00     0.032 A 
ENDBRANCH  12  15
ENDBRANCH  10  11
ENDBRANCH   1  10
BRANCH   2  24
HETATM   24  C   UNL     1     -44.318 -51.946  14.789  1.00  0.00     0.232 C 
HETATM   25  O   UNL     1     -45.050 -53.145  15.103  1.00  0.00    -0.366 OA
HETATM   26  C   UNL     1     -46.439 -52.895  14.818  1.00  0.00     0.170 C 
HETATM   27  C   UNL     1     -46.541 -51.532  14.162  1.00  0.00     0.031 C 
HETATM   28  C   UNL     1     -45.136 -51.287  13.685  1.00  0.00     0.056 C 
ENDBRANCH   2  24
TORSDOF 4
ENDMDL
MODEL 3
REMARK VINA RESULT:      -7.0      2.905      3.829
REMARK  4 active torsions:
REMARK  status: ('A' for Active; 'I' for Inactive)
REMARK    1  A    between atoms: N_1  and  C_8 
REMARK    2  A    between atoms: N_2  and  C_7 
REMARK    3  A    between atoms: C_8  and  C_9 
REMARK       I    between atoms: C_9  and  N_13 
REMARK    4  A    between atoms: N_13  and  C_18 
ROOT
HETATM    1  N   UNL     1     -39.885 -48.497  12.266  1.00  0.00    -0.255 N 
HETATM    2  N   UNL     1     -41.460 -47.370  10.921  1.00  0.00    -0.279 N 
HETATM    3  C   UNL     1     -40.733 -48.529  11.169  1.00  0.00     0.334 C 
HETATM    4  C   UNL     1     -39.473 -47.327  12.888  1.00  0.00     0.292 C 
HETATM    5  C   UNL     1     -40.156 -46.100  12.432  1.00  0.00     0.200 C 
HETATM    6  C   UNL     1     -41.123 -46.172  11.513  1.00  0.00     0.146 C 
HETATM    7  O   UNL     1     -40.847 -49.541  10.472  1.00  0.00    -0.246 OA
HETATM    8  O   UNL     1     -38.577 -47.267  13.726  1.00  0.00    -0.264 OA
HETATM    9  F   UNL     1     -39.772 -44.931  12.976  1.00  0.00    -0.199 F 
ENDROOT
BRANCH   1  10
HETATM   10  C   UNL     1     -39.283 -49.762  12.666  1.00  0.00     0.240 C 
BRANCH  10  11
HETATM   11  C   UNL     1     -40.257 -50.536  13.572  1.00  0.00     0.240 C 
HETATM   12  N   UNL     1     -40.773 -51.683  12.972  1.00  0.00    -0.326 N 
HETATM   13  H   UNL     1     -40.592 -51.779  11.976  1.00  0.00     0.169 HD
HETATM   14  O   UNL     1     -40.592 -50.082  14.663  1.00  0.00    -0.271 OA
BRANCH  12  15
HETATM   15  C   UNL     1     -41.775 -52.542  13.486  1.00  0.00     0.037 A 
HETATM   16  C   UNL     1     -43.097 -52.536  13.035  1.00  0.00     0.069 A 
HETATM   17  C   UNL     1     -43.932 -53.543  13.472  1.00  0.00     0.107 A 
HETATM   18  C   UNL     1     -43.527 -54.490  14.384  1.00  0.00     0.105 A 
HETATM   19  O   UNL     1     -45.198 -53.774  13.023  1.00  0.00    -0.323 OA
HETATM   20  O   UNL     1     -44.485 -55.431  14.607  1.00  0.00    -0.323 OA
HETATM   21  C   UNL     1     -42.268 -54.465  14.935  1.00  0.00     0.042 A 
HETATM   22  C   UNL     1     -45.407 -55.101  13.546  1.00  0.00     0.352 C 
HETATM   23  C   UNL     1     -41.379 -53.488  14.463  1.00  0.00     0.032 A 
ENDBRANCH  12  15
ENDBRANCH  10  11
ENDBRANCH   1  10
BRANCH   2  24
HETATM   24  C   UNL     1     -42.551 -47.484   9.962  1.00  0.00     0.232 C 
HETATM   25  O   UNL     1     -42.722 -46.298   9.166  1.00  0.00    -0.366 OA
HETATM   26  C   UNL     1     -44.113 -46.213   8.803  1.00  0.00     0.170 C 
HETATM   27  C   UNL     1     -44.851 -47.318   9.533  1.00  0.00     0.031 C 
HETATM   28  C   UNL     1     -43.900 -47.677  10.641  1.00  0.00     0.056 C 
ENDBRANCH   2  24
TORSDOF 4
ENDMDL
MODEL 4
REMARK VINA RESULT:      -7.0      3.221      7.952
REMARK  4 active torsions:
REMARK  status: ('A' for Active; 'I' for Inactive)
REMARK    1  A    between atoms: N_1  and  C_8 
REMARK    2  A    between atoms: N_2  and  C_7 
REMARK    3  A    between atoms: C_8  and  C_9 
REMARK       I    between atoms: C_9  and  N_13 
REMARK    4  A    between atoms: N_13  and  C_18 
ROOT
HETATM    1  N   UNL     1     -41.492 -53.176  12.930  1.00  0.00    -0.255 N 
HETATM    2  N   UNL     1     -40.643 -54.244  14.854  1.00  0.00    -0.279 N 
HETATM    3  C   UNL     1     -40.384 -53.603  13.647  1.00  0.00     0.334 C 
HETATM    4  C   UNL     1     -42.782 -53.637  13.157  1.00  0.00     0.292 C 
HETATM    5  C   UNL     1     -42.944 -54.479  14.360  1.00  0.00     0.200 C 
HETATM    6  C   UNL     1     -41.901 -54.716  15.160  1.00  0.00     0.146 C 
HETATM    7  O   UNL     1     -39.236 -53.403  13.240  1.00  0.00    -0.246 OA
HETATM    8  O   UNL     1     -43.735 -53.422  12.412  1.00  0.00    -0.264 OA
HETATM    9  F   UNL     1     -44.167 -54.981  14.609  1.00  0.00    -0.199 F 
ENDROOT
BRANCH   1  10
HETATM   10  C   UNL     1     -41.238 -52.320  11.780  1.00  0.00     0.240 C 
BRANCH  10  11
HETATM   11  C   UNL     1     -41.509 -50.853  12.156  1.00  0.00     0.240 C 
HETATM   12  N   UNL     1     -41.442 -49.984  11.069  1.00  0.00    -0.326 N 
HETATM   13  H   UNL     1     -41.059 -50.377  10.213  1.00  0.00     0.169 HD
HETATM   14  O   UNL     1     -41.657 -50.525  13.331  1.00  0.00    -0.271 OA
BRANCH  12  15
HETATM   15  C   UNL     1     -41.522 -48.570  11.096  1.00  0.00     0.037 A 
HETATM   16  C   UNL     1     -40.446 -47.745  11.433  1.00  0.00     0.069 A 
HETATM   17  C   UNL     1     -40.589 -46.387  11.238  1.00  0.00     0.107 A 
HETATM   18  C   UNL     1     -41.767 -45.827  10.804  1.00  0.00     0.105 A 
HETATM   19  O   UNL     1     -39.600 -45.459  11.373  1.00  0.00    -0.323 OA
HETATM   20  O   UNL     1     -41.655 -44.485  10.604  1.00  0.00    -0.323 OA
HETATM   21  C   UNL     1     -42.884 -46.593  10.566  1.00  0.00     0.042 A 
HETATM   22  C   UNL     1     -40.223 -44.338  10.715  1.00  0.00     0.352 C 
HETATM   23  C   UNL     1     -42.749 -47.983  10.698  1.00  0.00     0.032 A 
ENDBRANCH  12  15
ENDBRANCH  10  11
ENDBRANCH   1  10
BRANCH   2  24
HETATM   24  C   UNL     1     -39.504 -54.438  15.741  1.00  0.00     0.232 C 
HETATM   25  O   UNL     1     -38.847 -55.702  15.542  1.00  0.00    -0.366 OA
HETATM   26  C   UNL     1     -38.264 -56.093  16.799  1.00  0.00     0.170 C 
HETATM   27  C   UNL     1     -38.708 -55.094  17.848  1.00  0.00     0.031 C 
HETATM   28  C   UNL     1     -39.909 -54.453  17.209  1.00  0.00     0.056 C 
ENDBRANCH   2  24
TORSDOF 4
ENDMDL
MODEL 5
REMARK VINA RESULT:      -6.9      3.727      7.863
REMARK  4 active torsions:
REMARK  status: ('A' for Active; 'I' for Inactive)
REMARK    1  A    between atoms: N_1  and  C_8 
REMARK    2  A    between atoms: N_2  and  C_7 
REMARK    3  A    between atoms: C_8  and  C_9 
REMARK       I    between atoms: C_9  and  N_13 
REMARK    4  A    between atoms: N_13  and  C_18 
ROOT
HETATM    1  N   UNL     1     -45.286 -53.783  14.417  1.00  0.00    -0.255 N 
HETATM    2  N   UNL     1     -46.554 -52.296  15.737  1.00  0.00    -0.279 N 
HETATM    3  C   UNL     1     -45.916 -53.527  15.626  1.00  0.00     0.334 C 
HETATM    4  C   UNL     1     -45.538 -53.076  13.250  1.00  0.00     0.292 C 
HETATM    5  C   UNL     1     -46.390 -51.880  13.414  1.00  0.00     0.200 C 
HETATM    6  C   UNL     1     -46.826 -51.527  14.626  1.00  0.00     0.146 C 
HETATM    7  O   UNL     1     -45.889 -54.341  16.553  1.00  0.00    -0.246 OA
HETATM    8  O   UNL     1     -45.142 -53.411  12.137  1.00  0.00    -0.264 OA
HETATM    9  F   UNL     1     -46.696 -51.176  12.310  1.00  0.00    -0.199 F 
ENDROOT
BRANCH   1  10
HETATM   10  C   UNL     1     -44.437 -54.965  14.359  1.00  0.00     0.240 C 
BRANCH  10  11
HETATM   11  C   UNL     1     -43.023 -54.613  14.851  1.00  0.00     0.240 C 
HETATM   12  N   UNL     1     -42.541 -53.414  14.331  1.00  0.00    -0.326 N 
HETATM   13  H   UNL     1     -43.086 -53.011  13.573  1.00  0.00     0.169 HD
HETATM   14  O   UNL     1     -42.388 -55.402  15.547  1.00  0.00    -0.271 OA
BRANCH  12  15
HETATM   15  C   UNL     1     -41.242 -52.871  14.489  1.00  0.00     0.037 A 
HETATM   16  C   UNL     1     -40.319 -52.772  13.446  1.00  0.00     0.069 A 
HETATM   17  C   UNL     1     -39.163 -52.054  13.674  1.00  0.00     0.107 A 
HETATM   18  C   UNL     1     -38.865 -51.511  14.903  1.00  0.00     0.105 A 
HETATM   19  O   UNL     1     -38.229 -51.734  12.735  1.00  0.00    -0.323 OA
HETATM   20  O   UNL     1     -37.718 -50.778  14.876  1.00  0.00    -0.323 OA
HETATM   21  C   UNL     1     -39.697 -51.680  15.984  1.00  0.00     0.042 A 
HETATM   22  C   UNL     1     -37.494 -50.723  13.451  1.00  0.00     0.352 C 
HETATM   23  C   UNL     1     -40.907 -52.354  15.765  1.00  0.00     0.032 A 
ENDBRANCH  12  15
ENDBRANCH  10  11
ENDBRANCH   1  10
BRANCH   2  24
HETATM   24  C   UNL     1     -46.966 -51.900  17.077  1.00  0.00     0.232 C 
HETATM   25  O   UNL     1     -48.333 -51.456  17.134  1.00  0.00    -0.366 OA
HETATM   26  C   UNL     1     -48.436 -50.497  18.203  1.00  0.00     0.170 C 
HETATM   27  C   UNL     1     -47.038 -50.235  18.728  1.00  0.00     0.031 C 
HETATM   28  C   UNL     1     -46.165 -50.715  17.602  1.00  0.00     0.056 C 
ENDBRANCH   2  24
TORSDOF 4
ENDMDL
MODEL 6
REMARK VINA RESULT:      -6.8      2.130      2.626
REMARK  4 active torsions:
REMARK  status: ('A' for Active; 'I' for Inactive)
REMARK    1  A    between atoms: N_1  and  C_8 
REMARK    2  A    between atoms: N_2  and  C_7 
REMARK    3  A    between atoms: C_8  and  C_9 
REMARK       I    between atoms: C_9  and  N_13 
REMARK    4  A    between atoms: N_13  and  C_18 
ROOT
HETATM    1  N   UNL     1     -39.661 -49.541  12.351  1.00  0.00    -0.255 N 
HETATM    2  N   UNL     1     -40.362 -47.292  12.457  1.00  0.00    -0.279 N 
HETATM    3  C   UNL     1     -40.459 -48.531  11.834  1.00  0.00     0.334 C 
HETATM    4  C   UNL     1     -38.570 -49.314  13.179  1.00  0.00     0.292 C 
HETATM    5  C   UNL     1     -38.418 -47.922  13.648  1.00  0.00     0.200 C 
HETATM    6  C   UNL     1     -39.317 -46.995  13.305  1.00  0.00     0.146 C 
HETATM    7  O   UNL     1     -41.225 -48.735  10.888  1.00  0.00    -0.246 OA
HETATM    8  O   UNL     1     -37.743 -50.169  13.484  1.00  0.00    -0.264 OA
HETATM    9  F   UNL     1     -37.358 -47.637  14.426  1.00  0.00    -0.199 F 
ENDROOT
BRANCH   1  10
HETATM   10  C   UNL     1     -39.906 -50.888  11.856  1.00  0.00     0.240 C 
BRANCH  10  11
HETATM   11  C   UNL     1     -41.011 -51.556  12.692  1.00  0.00     0.240 C 
HETATM   12  N   UNL     1     -42.243 -51.599  12.044  1.00  0.00    -0.326 N 
HETATM   13  H   UNL     1     -42.314 -51.045  11.194  1.00  0.00     0.169 HD
HETATM   14  O   UNL     1     -40.796 -51.900  13.852  1.00  0.00    -0.271 OA
BRANCH  12  15
HETATM   15  C   UNL     1     -43.480 -52.033  12.580  1.00  0.00     0.037 A 
HETATM   16  C   UNL     1     -43.924 -53.356  12.513  1.00  0.00     0.069 A 
HETATM   17  C   UNL     1     -45.049 -53.695  13.235  1.00  0.00     0.107 A 
HETATM   18  C   UNL     1     -45.777 -52.766  13.942  1.00  0.00     0.105 A 
HETATM   19  O   UNL     1     -45.534 -54.958  13.401  1.00  0.00    -0.323 OA
HETATM   20  O   UNL     1     -46.795 -53.337  14.643  1.00  0.00    -0.323 OA
HETATM   21  C   UNL     1     -45.435 -51.435  13.944  1.00  0.00     0.042 A 
HETATM   22  C   UNL     1     -46.450 -54.730  14.491  1.00  0.00     0.352 C 
HETATM   23  C   UNL     1     -44.262 -51.072  13.267  1.00  0.00     0.032 A 
ENDBRANCH  12  15
ENDBRANCH  10  11
ENDBRANCH   1  10
BRANCH   2  24
HETATM   24  C   UNL     1     -41.388 -46.315  12.117  1.00  0.00     0.232 C 
HETATM   25  O   UNL     1     -40.945 -45.354  11.141  1.00  0.00    -0.366 OA
HETATM   26  C   UNL     1     -41.666 -44.131  11.377  1.00  0.00     0.170 C 
HETATM   27  C   UNL     1     -42.479 -44.306  12.644  1.00  0.00     0.031 C 
HETATM   28  C   UNL     1     -41.801 -45.469  13.314  1.00  0.00     0.056 C 
ENDBRANCH   2  24
TORSDOF 4
ENDMDL
MODEL 7
REMARK VINA RESULT:      -6.8      2.653      3.884
REMARK  4 active torsions:
REMARK  status: ('A' for Active; 'I' for Inactive)
REMARK    1  A    between atoms: N_1  and  C_8 
REMARK    2  A    between atoms: N_2  and  C_7 
REMARK    3  A    between atoms: C_8  and  C_9 
REMARK       I    between atoms: C_9  and  N_13 
REMARK    4  A    between atoms: N_13  and  C_18 
ROOT
HETATM    1  N   UNL     1     -40.970 -47.711  11.566  1.00  0.00    -0.255 N 
HETATM    2  N   UNL     1     -41.319 -45.385  11.739  1.00  0.00    -0.279 N 
HETATM    3  C   UNL     1     -41.588 -46.573  11.069  1.00  0.00     0.334 C 
HETATM    4  C   UNL     1     -39.881 -47.683  12.425  1.00  0.00     0.292 C 
HETATM    5  C   UNL     1     -39.529 -46.348  12.950  1.00  0.00     0.200 C 
HETATM    6  C   UNL     1     -40.264 -45.282  12.621  1.00  0.00     0.146 C 
HETATM    7  O   UNL     1     -42.350 -46.624  10.099  1.00  0.00    -0.246 OA
HETATM    8  O   UNL     1     -39.203 -48.666  12.716  1.00  0.00    -0.264 OA
HETATM    9  F   UNL     1     -38.460 -46.257  13.760  1.00  0.00    -0.199 F 
ENDROOT
BRANCH   1  10
HETATM   10  C   UNL     1     -41.405 -48.987  11.015  1.00  0.00     0.240 C 
BRANCH  10  11
HETATM   11  C   UNL     1     -42.170 -49.781  12.088  1.00  0.00     0.240 C 
HETATM   12  N   UNL     1     -41.972 -51.157  12.002  1.00  0.00    -0.326 N 
HETATM   13  H   UNL     1     -41.504 -51.483  11.160  1.00  0.00     0.169 HD
HETATM   14  O   UNL     1     -42.948 -49.212  12.850  1.00  0.00    -0.271 OA
BRANCH  12  15
HETATM   15  C   UNL     1     -42.619 -52.165  12.756  1.00  0.00     0.037 A 
HETATM   16  C   UNL     1     -43.992 -52.411  12.692  1.00  0.00     0.069 A 
HETATM   17  C   UNL     1     -44.476 -53.538  13.323  1.00  0.00     0.107 A 
HETATM   18  C   UNL     1     -43.670 -54.368  14.067  1.00  0.00     0.105 A 
HETATM   19  O   UNL     1     -45.753 -54.007  13.241  1.00  0.00    -0.323 OA
HETATM   20  O   UNL     1     -44.340 -55.458  14.528  1.00  0.00    -0.323 OA
HETATM   21  C   UNL     1     -42.333 -54.100  14.245  1.00  0.00     0.042 A 
HETATM   22  C   UNL     1     -45.565 -55.332  13.774  1.00  0.00     0.352 C 
HETATM   23  C   UNL     1     -41.802 -52.995  13.564  1.00  0.00     0.032 A 
ENDBRANCH  12  15
ENDBRANCH  10  11
ENDBRANCH   1  10
BRANCH   2  24
HETATM   24  C   UNL     1     -42.172 -44.250  11.413  1.00  0.00     0.232 C 
HETATM   25  O   UNL     1     -41.477 -43.213  10.699  1.00  0.00    -0.366 OA
HETATM   26  C   UNL     1     -42.109 -41.961  11.023  1.00  0.00     0.170 C 
HETATM   27  C   UNL     1     -43.146 -42.228  12.097  1.00  0.00     0.031 C 
HETATM   28  C   UNL     1     -42.709 -43.554  12.657  1.00  0.00     0.056 C 
ENDBRANCH   2  24
TORSDOF 4
ENDMDL
MODEL 8
REMARK VINA RESULT:      -6.5      2.867      7.895
REMARK  4 active torsions:
REMARK  status: ('A' for Active; 'I' for Inactive)
REMARK    1  A    between atoms: N_1  and  C_8 
REMARK    2  A    between atoms: N_2  and  C_7 
REMARK    3  A    between atoms: C_8  and  C_9 
REMARK       I    between atoms: C_9  and  N_13 
REMARK    4  A    between atoms: N_13  and  C_18 
ROOT
HETATM    1  N   UNL     1     -41.554 -53.242  12.997  1.00  0.00    -0.255 N 
HETATM    2  N   UNL     1     -40.498 -54.267  14.840  1.00  0.00    -0.279 N 
HETATM    3  C   UNL     1     -40.371 -53.576  13.640  1.00  0.00     0.334 C 
HETATM    4  C   UNL     1     -42.778 -53.831  13.280  1.00  0.00     0.292 C 
HETATM    5  C   UNL     1     -42.791 -54.714  14.465  1.00  0.00     0.200 C 
HETATM    6  C   UNL     1     -41.686 -54.867  15.200  1.00  0.00     0.146 C 
HETATM    7  O   UNL     1     -39.273 -53.254  13.178  1.00  0.00    -0.246 OA
HETATM    8  O   UNL     1     -43.788 -53.693  12.595  1.00  0.00    -0.264 OA
HETATM    9  F   UNL     1     -43.943 -55.339  14.765  1.00  0.00    -0.199 F 
ENDROOT
BRANCH   1  10
HETATM   10  C   UNL     1     -41.449 -52.338  11.860  1.00  0.00     0.240 C 
BRANCH  10  11
HETATM   11  C   UNL     1     -41.361 -50.885  12.360  1.00  0.00     0.240 C 
HETATM   12  N   UNL     1     -40.104 -50.314  12.177  1.00  0.00    -0.326 N 
HETATM   13  H   UNL     1     -39.363 -50.956  11.908  1.00  0.00     0.169 HD
HETATM   14  O   UNL     1     -42.307 -50.369  12.950  1.00  0.00    -0.271 OA
BRANCH  12  15
HETATM   15  C   UNL     1     -39.663 -49.048  12.632  1.00  0.00     0.037 A 
HETATM   16  C   UNL     1     -39.949 -47.851  11.970  1.00  0.00     0.069 A 
HETATM   17  C   UNL     1     -39.632 -46.670  12.608  1.00  0.00     0.107 A 
HETATM   18  C   UNL     1     -38.982 -46.640  13.820  1.00  0.00     0.105 A 
HETATM   19  O   UNL     1     -39.969 -45.421  12.178  1.00  0.00    -0.323 OA
HETATM   20  O   UNL     1     -38.845 -45.373  14.298  1.00  0.00    -0.323 OA
HETATM   21  C   UNL     1     -38.586 -47.795  14.452  1.00  0.00     0.042 A 
HETATM   22  C   UNL     1     -39.705 -44.667  13.378  1.00  0.00     0.352 C 
HETATM   23  C   UNL     1     -38.949 -49.011  13.855  1.00  0.00     0.032 A 
ENDBRANCH  12  15
ENDBRANCH  10  11
ENDBRANCH   1  10
BRANCH   2  24
HETATM   24  C   UNL     1     -39.297 -54.370  15.658  1.00  0.00     0.232 C 
HETATM   25  O   UNL     1     -38.606 -55.620  15.485  1.00  0.00    -0.366 OA
HETATM   26  C   UNL     1     -37.928 -55.917  16.720  1.00  0.00     0.170 C 
HETATM   27  C   UNL     1     -38.342 -54.876  17.741  1.00  0.00     0.031 C 
HETATM   28  C   UNL     1     -39.606 -54.315  17.149  1.00  0.00     0.056 C 
ENDBRANCH   2  24
TORSDOF 4
ENDMDL
MODEL 9
REMARK VINA RESULT:      -6.5      2.808      7.710
REMARK  4 active torsions:
REMARK  status: ('A' for Active; 'I' for Inactive)
REMARK    1  A    between atoms: N_1  and  C_8 
REMARK    2  A    between atoms: N_2  and  C_7 
REMARK    3  A    between atoms: C_8  and  C_9 
REMARK       I    between atoms: C_9  and  N_13 
REMARK    4  A    between atoms: N_13  and  C_18 
ROOT
HETATM    1  N   UNL     1     -40.971 -51.091  13.587  1.00  0.00    -0.255 N 
HETATM    2  N   UNL     1     -43.223 -51.573  14.093  1.00  0.00    -0.279 N 
HETATM    3  C   UNL     1     -42.148 -50.697  14.204  1.00  0.00     0.334 C 
HETATM    4  C   UNL     1     -40.707 -52.394  13.189  1.00  0.00     0.292 C 
HETATM    5  C   UNL     1     -41.853 -53.323  13.282  1.00  0.00     0.200 C 
HETATM    6  C   UNL     1     -43.045 -52.879  13.689  1.00  0.00     0.146 C 
HETATM    7  O   UNL     1     -42.236 -49.619  14.798  1.00  0.00    -0.246 OA
HETATM    8  O   UNL     1     -39.606 -52.798  12.824  1.00  0.00    -0.264 OA
HETATM    9  F   UNL     1     -41.646 -54.607  12.942  1.00  0.00    -0.199 F 
ENDROOT
BRANCH   1  10
HETATM   10  C   UNL     1     -39.908 -50.099  13.509  1.00  0.00     0.240 C 
BRANCH  10  11
HETATM   11  C   UNL     1     -40.262 -49.042  12.448  1.00  0.00     0.240 C 
HETATM   12  N   UNL     1     -40.303 -47.745  12.955  1.00  0.00    -0.326 N 
HETATM   13  H   UNL     1     -40.272 -47.666  13.969  1.00  0.00     0.169 HD
HETATM   14  O   UNL     1     -40.573 -49.379  11.309  1.00  0.00    -0.271 OA
BRANCH  12  15
HETATM   15  C   UNL     1     -40.712 -46.571  12.276  1.00  0.00     0.037 A 
HETATM   16  C   UNL     1     -41.792 -45.785  12.682  1.00  0.00     0.069 A 
HETATM   17  C   UNL     1     -41.974 -44.568  12.058  1.00  0.00     0.107 A 
HETATM   18  C   UNL     1     -41.183 -44.152  11.012  1.00  0.00     0.105 A 
HETATM   19  O   UNL     1     -42.879 -43.617  12.423  1.00  0.00    -0.323 OA
HETATM   20  O   UNL     1     -41.490 -42.890  10.606  1.00  0.00    -0.323 OA
HETATM   21  C   UNL     1     -40.178 -44.946  10.511  1.00  0.00     0.042 A 
HETATM   22  C   UNL     1     -42.370 -42.492  11.679  1.00  0.00     0.352 C 
HETATM   23  C   UNL     1     -39.932 -46.161  11.166  1.00  0.00     0.032 A 
ENDBRANCH  12  15
ENDBRANCH  10  11
ENDBRANCH   1  10
BRANCH   2  24
HETATM   24  C   UNL     1     -44.526 -51.050  14.482  1.00  0.00     0.232 C 
HETATM   25  O   UNL     1     -44.876 -51.371  15.840  1.00  0.00    -0.366 OA
HETATM   26  C   UNL     1     -46.311 -51.454  15.912  1.00  0.00     0.170 C 
HETATM   27  C   UNL     1     -46.856 -51.323  14.504  1.00  0.00     0.031 C 
HETATM   28  C   UNL     1     -45.658 -51.644  13.654  1.00  0.00     0.056 C 
ENDBRANCH   2  24
TORSDOF 4
ENDMDL
