MODEL 1
REMARK VINA RESULT:      -5.9      0.000      0.000
REMARK  5 active torsions:
REMARK  status: ('A' for Active; 'I' for Inactive)
REMARK    1  A    between atoms: O_2  and  C_3 
REMARK    2  A    between atoms: C_3  and  C_4 
REMARK    3  A    between atoms: C_4  and  N_5 
REMARK       I    between atoms: N_5  and  C_6 
REMARK       I    between atoms: C_6  and  N_8 
REMARK    4  A    between atoms: N_8  and  C_9 
REMARK    5  A    between atoms: C_12  and  N_16 
ROOT
HETATM    1  C   UNL     1     -42.454 -51.140  12.997  1.00  0.00     0.051 A 
HETATM    2  C   UNL     1     -43.189 -49.974  13.120  1.00  0.00     0.035 A 
HETATM    3  C   UNL     1     -42.922 -48.903  12.262  1.00  0.00     0.051 A 
HETATM    4  C   UNL     1     -41.886 -48.978  11.327  1.00  0.00     0.103 A 
HETATM    5  N   UNL     1     -41.118 -50.087  11.259  1.00  0.00    -0.350 N 
ATOM      6  HN  UNL     1     -40.329 -50.135  10.616  1.00  0.00     0.166 HD
HETATM    7  C   UNL     1     -41.422 -51.139  12.066  1.00  0.00     0.119 A 
ENDROOT
BRANCH   1   8
HETATM    8  N   UNL     1     -42.789 -52.252  13.792  1.00  0.00    -0.308 N 
HETATM    9  C   UNL     1     -43.655 -53.226  13.339  1.00  0.00     0.320 C 
HETATM   10  N   UNL     1     -43.983 -54.099  14.350  1.00  0.00    -0.341 N 
HETATM   11  O   UNL     1     -44.163 -53.272  12.225  1.00  0.00    -0.247 OA
HETATM   12  H   UNL     1     -43.204 -54.424  14.907  1.00  0.00     0.164 HD
HETATM   13  H   UNL     1     -42.865 -52.095  14.787  1.00  0.00     0.170 HD
BRANCH  10  14
HETATM   14  C   UNL     1     -45.056 -55.062  14.163  1.00  0.00     0.150 C 
BRANCH  14  15
HETATM   15  C   UNL     1     -46.411 -54.552  14.643  1.00  0.00     0.186 C 
BRANCH  15  16
HETATM   16  O   UNL     1     -46.199 -53.611  15.702  1.00  0.00    -0.394 OA
HETATM   17  C   UNL     1     -46.952 -52.423  15.491  1.00  0.00     0.201 C 
ENDBRANCH  15  16
ENDBRANCH  14  15
ENDBRANCH  10  14
ENDBRANCH   1   8
BRANCH   4  18
HETATM   18  N   UNL     1     -41.584 -47.897  10.519  1.00  0.00    -0.362 N 
HETATM   19  C   UNL     1     -40.607 -46.878  10.937  1.00  0.00     0.156 C 
HETATM   20  C   UNL     1     -41.305 -45.547  11.301  1.00  0.00     0.136 C 
HETATM   21  C   UNL     1     -40.277 -44.445  11.530  1.00  0.00     0.041 C 
HETATM   22  O   UNL     1     -42.171 -45.102  10.242  1.00  0.00    -0.378 OA
HETATM   23  C   UNL     1     -43.203 -46.078   9.990  1.00  0.00     0.136 C 
HETATM   24  C   UNL     1     -44.090 -45.509   8.888  1.00  0.00     0.041 C 
HETATM   25  C   UNL     1     -42.589 -47.423   9.555  1.00  0.00     0.156 C 
ENDBRANCH   4  18
TORSDOF 5
ENDMDL
MODEL 2
REMARK VINA RESULT:      -5.7      2.641      8.355
REMARK  5 active torsions:
REMARK  status: ('A' for Active; 'I' for Inactive)
REMARK    1  A    between atoms: O_2  and  C_3 
REMARK    2  A    between atoms: C_3  and  C_4 
REMARK    3  A    between atoms: C_4  and  N_5 
REMARK       I    between atoms: N_5  and  C_6 
REMARK       I    between atoms: C_6  and  N_8 
REMARK    4  A    between atoms: N_8  and  C_9 
REMARK    5  A    between atoms: C_12  and  N_16 
ROOT
HETATM    1  C   UNL     1     -41.338 -48.774  10.996  1.00  0.00     0.051 A 
HETATM    2  C   UNL     1     -42.409 -48.897  11.864  1.00  0.00     0.035 A 
HETATM    3  C   UNL     1     -42.564 -50.079  12.596  1.00  0.00     0.051 A 
HETATM    4  C   UNL     1     -41.687 -51.152  12.414  1.00  0.00     0.103 A 
HETATM    5  N   UNL     1     -40.687 -51.060  11.510  1.00  0.00    -0.350 N 
ATOM      6  HN  UNL     1     -40.071 -51.853  11.333  1.00  0.00     0.166 HD
HETATM    7  C   UNL     1     -40.519 -49.887  10.843  1.00  0.00     0.119 A 
ENDROOT
BRANCH   1   8
HETATM    8  N   UNL     1     -41.125 -47.549  10.336  1.00  0.00    -0.308 N 
HETATM    9  C   UNL     1     -40.356 -46.552  10.900  1.00  0.00     0.320 C 
HETATM   10  N   UNL     1     -40.451 -45.388  10.172  1.00  0.00    -0.341 N 
HETATM   11  O   UNL     1     -39.746 -46.630  11.960  1.00  0.00    -0.247 OA
HETATM   12  H   UNL     1     -40.367 -45.500   9.171  1.00  0.00     0.164 HD
HETATM   13  H   UNL     1     -41.892 -47.187   9.788  1.00  0.00     0.170 HD
BRANCH  10  14
HETATM   14  C   UNL     1     -39.914 -44.148  10.707  1.00  0.00     0.150 C 
BRANCH  14  15
HETATM   15  C   UNL     1     -40.943 -43.332  11.484  1.00  0.00     0.186 C 
BRANCH  15  16
HETATM   16  O   UNL     1     -41.811 -42.679  10.550  1.00  0.00    -0.394 OA
HETATM   17  C   UNL     1     -43.141 -42.608  11.049  1.00  0.00     0.201 C 
ENDBRANCH  15  16
ENDBRANCH  14  15
ENDBRANCH  10  14
ENDBRANCH   1   8
BRANCH   4  18
HETATM   18  N   UNL     1     -41.875 -52.342  13.094  1.00  0.00    -0.362 N 
HETATM   19  C   UNL     1     -42.716 -52.408  14.301  1.00  0.00     0.156 C 
HETATM   20  C   UNL     1     -41.857 -52.602  15.572  1.00  0.00     0.136 C 
HETATM   21  C   UNL     1     -42.742 -52.877  16.783  1.00  0.00     0.041 C 
HETATM   22  O   UNL     1     -40.966 -53.724  15.438  1.00  0.00    -0.378 OA
HETATM   23  C   UNL     1     -40.063 -53.522  14.332  1.00  0.00     0.136 C 
HETATM   24  C   UNL     1     -39.138 -54.734  14.289  1.00  0.00     0.041 C 
HETATM   25  C   UNL     1     -40.841 -53.384  13.008  1.00  0.00     0.156 C 
ENDBRANCH   4  18
TORSDOF 5
ENDMDL
MODEL 3
REMARK VINA RESULT:      -5.7      1.957      8.344
REMARK  5 active torsions:
REMARK  status: ('A' for Active; 'I' for Inactive)
REMARK    1  A    between atoms: O_2  and  C_3 
REMARK    2  A    between atoms: C_3  and  C_4 
REMARK    3  A    between atoms: C_4  and  N_5 
REMARK       I    between atoms: N_5  and  C_6 
REMARK       I    between atoms: C_6  and  N_8 
REMARK    4  A    between atoms: N_8  and  C_9 
REMARK    5  A    between atoms: C_12  and  N_16 
ROOT
HETATM    1  C   UNL     1     -41.378 -48.836  11.027  1.00  0.00     0.051 A 
HETATM    2  C   UNL     1     -42.432 -48.968  11.914  1.00  0.00     0.035 A 
HETATM    3  C   UNL     1     -42.560 -50.148  12.654  1.00  0.00     0.051 A 
HETATM    4  C   UNL     1     -41.674 -51.211  12.462  1.00  0.00     0.103 A 
HETATM    5  N   UNL     1     -40.690 -51.111  11.541  1.00  0.00    -0.350 N 
ATOM      6  HN  UNL     1     -40.067 -51.897  11.357  1.00  0.00     0.166 HD
HETATM    7  C   UNL     1     -40.548 -49.939  10.866  1.00  0.00     0.119 A 
ENDROOT
BRANCH   1   8
HETATM    8  N   UNL     1     -41.191 -47.612  10.358  1.00  0.00    -0.308 N 
HETATM    9  C   UNL     1     -40.381 -46.623  10.879  1.00  0.00     0.320 C 
HETATM   10  N   UNL     1     -40.507 -45.457  10.160  1.00  0.00    -0.341 N 
HETATM   11  O   UNL     1     -39.712 -46.709  11.902  1.00  0.00    -0.247 OA
HETATM   12  H   UNL     1     -40.481 -45.567   9.155  1.00  0.00     0.164 HD
HETATM   13  H   UNL     1     -41.985 -47.240   9.856  1.00  0.00     0.170 HD
BRANCH  10  14
HETATM   14  C   UNL     1     -39.927 -44.223  10.665  1.00  0.00     0.150 C 
BRANCH  14  15
HETATM   15  C   UNL     1     -40.916 -43.375  11.458  1.00  0.00     0.186 C 
BRANCH  15  16
HETATM   16  O   UNL     1     -41.766 -42.680  10.538  1.00  0.00    -0.394 OA
HETATM   17  C   UNL     1     -43.124 -42.728  10.958  1.00  0.00     0.201 C 
ENDBRANCH  15  16
ENDBRANCH  14  15
ENDBRANCH  10  14
ENDBRANCH   1   8
BRANCH   4  18
HETATM   18  N   UNL     1     -41.836 -52.400  13.151  1.00  0.00    -0.362 N 
HETATM   19  C   UNL     1     -42.890 -53.359  12.783  1.00  0.00     0.156 C 
HETATM   20  C   UNL     1     -44.022 -53.380  13.836  1.00  0.00     0.136 C 
HETATM   21  C   UNL     1     -44.998 -54.518  13.555  1.00  0.00     0.041 C 
HETATM   22  O   UNL     1     -43.503 -53.588  15.161  1.00  0.00    -0.378 OA
HETATM   23  C   UNL     1     -42.596 -52.525  15.520  1.00  0.00     0.136 C 
HETATM   24  C   UNL     1     -42.128 -52.806  16.944  1.00  0.00     0.041 C 
HETATM   25  C   UNL     1     -41.398 -52.478  14.553  1.00  0.00     0.156 C 
ENDBRANCH   4  18
TORSDOF 5
ENDMDL
MODEL 4
REMARK VINA RESULT:      -5.6      2.771      8.371
REMARK  5 active torsions:
REMARK  status: ('A' for Active; 'I' for Inactive)
REMARK    1  A    between atoms: O_2  and  C_3 
REMARK    2  A    between atoms: C_3  and  C_4 
REMARK    3  A    between atoms: C_4  and  N_5 
REMARK       I    between atoms: N_5  and  C_6 
REMARK       I    between atoms: C_6  and  N_8 
REMARK    4  A    between atoms: N_8  and  C_9 
REMARK    5  A    between atoms: C_12  and  N_16 
ROOT
HETATM    1  C   UNL     1     -39.934 -49.752  11.588  1.00  0.00     0.051 A 
HETATM    2  C   UNL     1     -39.080 -50.165  12.596  1.00  0.00     0.035 A 
HETATM    3  C   UNL     1     -39.191 -51.466  13.098  1.00  0.00     0.051 A 
HETATM    4  C   UNL     1     -40.191 -52.326  12.636  1.00  0.00     0.103 A 
HETATM    5  N   UNL     1     -41.073 -51.898  11.706  1.00  0.00    -0.350 N 
ATOM      6  HN  UNL     1     -41.836 -52.499  11.396  1.00  0.00     0.166 HD
HETATM    7  C   UNL     1     -40.920 -50.648  11.192  1.00  0.00     0.119 A 
ENDROOT
BRANCH   1   8
HETATM    8  N   UNL     1     -39.756 -48.480  11.014  1.00  0.00    -0.308 N 
HETATM    9  C   UNL     1     -40.494 -47.392  11.433  1.00  0.00     0.320 C 
HETATM   10  N   UNL     1     -40.291 -46.313  10.603  1.00  0.00    -0.341 N 
HETATM   11  O   UNL     1     -41.306 -47.387  12.350  1.00  0.00    -0.247 OA
HETATM   12  H   UNL     1     -39.326 -46.129  10.367  1.00  0.00     0.164 HD
HETATM   13  H   UNL     1     -39.545 -48.450  10.027  1.00  0.00     0.170 HD
BRANCH  10  14
HETATM   14  C   UNL     1     -41.138 -45.137  10.716  1.00  0.00     0.150 C 
BRANCH  14  15
HETATM   15  C   UNL     1     -42.593 -45.407  10.344  1.00  0.00     0.186 C 
BRANCH  15  16
HETATM   16  O   UNL     1     -42.674 -45.617   8.930  1.00  0.00    -0.394 OA
HETATM   17  C   UNL     1     -43.533 -46.708   8.621  1.00  0.00     0.201 C 
ENDBRANCH  15  16
ENDBRANCH  14  15
ENDBRANCH  10  14
ENDBRANCH   1   8
BRANCH   4  18
HETATM   18  N   UNL     1     -40.339 -53.592  13.174  1.00  0.00    -0.362 N 
HETATM   19  C   UNL     1     -41.667 -54.207  13.329  1.00  0.00     0.156 C 
HETATM   20  C   UNL     1     -42.089 -54.263  14.816  1.00  0.00     0.136 C 
HETATM   21  C   UNL     1     -43.363 -55.083  14.984  1.00  0.00     0.041 C 
HETATM   22  O   UNL     1     -41.077 -54.886  15.626  1.00  0.00    -0.378 OA
HETATM   23  C   UNL     1     -39.843 -54.142  15.553  1.00  0.00     0.136 C 
HETATM   24  C   UNL     1     -38.846 -54.849  16.465  1.00  0.00     0.041 C 
HETATM   25  C   UNL     1     -39.317 -54.095  14.105  1.00  0.00     0.156 C 
ENDBRANCH   4  18
TORSDOF 5
ENDMDL
MODEL 5
REMARK VINA RESULT:      -5.6      2.001      8.230
REMARK  5 active torsions:
REMARK  status: ('A' for Active; 'I' for Inactive)
REMARK    1  A    between atoms: O_2  and  C_3 
REMARK    2  A    between atoms: C_3  and  C_4 
REMARK    3  A    between atoms: C_4  and  N_5 
REMARK       I    between atoms: N_5  and  C_6 
REMARK       I    between atoms: C_6  and  N_8 
REMARK    4  A    between atoms: N_8  and  C_9 
REMARK    5  A    between atoms: C_12  and  N_16 
ROOT
HETATM    1  C   UNL     1     -41.587 -48.676  11.356  1.00  0.00     0.051 A 
HETATM    2  C   UNL     1     -42.771 -48.565  12.062  1.00  0.00     0.035 A 
HETATM    3  C   UNL     1     -43.108 -49.553  12.993  1.00  0.00     0.051 A 
HETATM    4  C   UNL     1     -42.293 -50.674  13.171  1.00  0.00     0.103 A 
HETATM    5  N   UNL     1     -41.175 -50.820  12.427  1.00  0.00    -0.350 N 
ATOM      6  HN  UNL     1     -40.599 -51.657  12.512  1.00  0.00     0.166 HD
HETATM    7  C   UNL     1     -40.836 -49.827  11.562  1.00  0.00     0.119 A 
ENDROOT
BRANCH   1   8
HETATM    8  N   UNL     1     -41.199 -47.633  10.494  1.00  0.00    -0.308 N 
HETATM    9  C   UNL     1     -40.383 -46.608  10.926  1.00  0.00     0.320 C 
HETATM   10  N   UNL     1     -40.302 -45.613   9.979  1.00  0.00    -0.341 N 
HETATM   11  O   UNL     1     -39.872 -46.518  12.036  1.00  0.00    -0.247 OA
HETATM   12  H   UNL     1     -40.148 -45.933   9.033  1.00  0.00     0.164 HD
HETATM   13  H   UNL     1     -41.879 -47.328   9.812  1.00  0.00     0.170 HD
BRANCH  10  14
HETATM   14  C   UNL     1     -39.688 -44.338  10.312  1.00  0.00     0.150 C 
BRANCH  14  15
HETATM   15  C   UNL     1     -40.629 -43.393  11.053  1.00  0.00     0.186 C 
BRANCH  15  16
HETATM   16  O   UNL     1     -41.972 -43.656  10.629  1.00  0.00    -0.394 OA
HETATM   17  C   UNL     1     -42.851 -42.614  11.035  1.00  0.00     0.201 C 
ENDBRANCH  15  16
ENDBRANCH  14  15
ENDBRANCH  10  14
ENDBRANCH   1   8
BRANCH   4  18
HETATM   18  N   UNL     1     -42.656 -51.680  14.049  1.00  0.00    -0.362 N 
HETATM   19  C   UNL     1     -41.646 -52.434  14.808  1.00  0.00     0.156 C 
HETATM   20  C   UNL     1     -41.506 -53.879  14.275  1.00  0.00     0.136 C 
HETATM   21  C   UNL     1     -40.616 -54.709  15.193  1.00  0.00     0.041 C 
HETATM   22  O   UNL     1     -42.781 -54.541  14.213  1.00  0.00    -0.378 OA
HETATM   23  C   UNL     1     -43.674 -53.836  13.326  1.00  0.00     0.136 C 
HETATM   24  C   UNL     1     -44.980 -54.625  13.294  1.00  0.00     0.041 C 
HETATM   25  C   UNL     1     -43.920 -52.399  13.826  1.00  0.00     0.156 C 
ENDBRANCH   4  18
TORSDOF 5
ENDMDL
MODEL 6
REMARK VINA RESULT:      -5.5      3.413      3.831
REMARK  5 active torsions:
REMARK  status: ('A' for Active; 'I' for Inactive)
REMARK    1  A    between atoms: O_2  and  C_3 
REMARK    2  A    between atoms: C_3  and  C_4 
REMARK    3  A    between atoms: C_4  and  N_5 
REMARK       I    between atoms: N_5  and  C_6 
REMARK       I    between atoms: C_6  and  N_8 
REMARK    4  A    between atoms: N_8  and  C_9 
REMARK    5  A    between atoms: C_12  and  N_16 
ROOT
HETATM    1  C   UNL     1     -40.764 -50.708  13.329  1.00  0.00     0.051 A 
HETATM    2  C   UNL     1     -40.078 -49.522  13.523  1.00  0.00     0.035 A 
HETATM    3  C   UNL     1     -40.254 -48.472  12.616  1.00  0.00     0.051 A 
HETATM    4  C   UNL     1     -41.066 -48.630  11.489  1.00  0.00     0.103 A 
HETATM    5  N   UNL     1     -41.676 -49.813  11.259  1.00  0.00    -0.350 N 
ATOM      6  HN  UNL     1     -42.231 -49.957  10.416  1.00  0.00     0.166 HD
HETATM    7  C   UNL     1     -41.534 -50.808  12.176  1.00  0.00     0.119 A 
ENDROOT
BRANCH   1   8
HETATM    8  N   UNL     1     -40.665 -51.726  14.294  1.00  0.00    -0.308 N 
HETATM    9  C   UNL     1     -39.756 -52.757  14.163  1.00  0.00     0.320 C 
HETATM   10  N   UNL     1     -39.975 -53.727  15.113  1.00  0.00    -0.341 N 
HETATM   11  O   UNL     1     -38.926 -52.871  13.269  1.00  0.00    -0.247 OA
HETATM   12  H   UNL     1     -40.122 -53.384  16.052  1.00  0.00     0.164 HD
HETATM   13  H   UNL     1     -41.524 -52.019  14.739  1.00  0.00     0.170 HD
BRANCH  10  14
HETATM   14  C   UNL     1     -39.290 -55.007  15.020  1.00  0.00     0.150 C 
BRANCH  14  15
HETATM   15  C   UNL     1     -38.534 -55.378  16.292  1.00  0.00     0.186 C 
BRANCH  15  16
HETATM   16  O   UNL     1     -38.853 -56.730  16.638  1.00  0.00    -0.394 OA
HETATM   17  C   UNL     1     -40.227 -56.861  16.983  1.00  0.00     0.201 C 
ENDBRANCH  15  16
ENDBRANCH  14  15
ENDBRANCH  10  14
ENDBRANCH   1   8
BRANCH   4  18
HETATM   18  N   UNL     1     -41.193 -47.612  10.562  1.00  0.00    -0.362 N 
HETATM   19  C   UNL     1     -40.562 -46.300  10.775  1.00  0.00     0.156 C 
HETATM   20  C   UNL     1     -41.616 -45.216  11.102  1.00  0.00     0.136 C 
HETATM   21  C   UNL     1     -40.979 -43.831  11.115  1.00  0.00     0.041 C 
HETATM   22  O   UNL     1     -42.664 -45.189  10.117  1.00  0.00    -0.378 OA
HETATM   23  C   UNL     1     -43.347 -46.459  10.071  1.00  0.00     0.136 C 
HETATM   24  C   UNL     1     -44.458 -46.326   9.034  1.00  0.00     0.041 C 
HETATM   25  C   UNL     1     -42.374 -47.590   9.685  1.00  0.00     0.156 C 
ENDBRANCH   4  18
TORSDOF 5
ENDMDL
MODEL 7
REMARK VINA RESULT:      -5.5      2.737      8.237
REMARK  5 active torsions:
REMARK  status: ('A' for Active; 'I' for Inactive)
REMARK    1  A    between atoms: O_2  and  C_3 
REMARK    2  A    between atoms: C_3  and  C_4 
REMARK    3  A    between atoms: C_4  and  N_5 
REMARK       I    between atoms: N_5  and  C_6 
REMARK       I    between atoms: C_6  and  N_8 
REMARK    4  A    between atoms: N_8  and  C_9 
REMARK    5  A    between atoms: C_12  and  N_16 
ROOT
HETATM    1  C   UNL     1     -42.640 -47.313  11.017  1.00  0.00     0.051 A 
HETATM    2  C   UNL     1     -43.031 -47.941  12.187  1.00  0.00     0.035 A 
HETATM    3  C   UNL     1     -42.446 -49.162  12.537  1.00  0.00     0.051 A 
HETATM    4  C   UNL     1     -41.521 -49.779  11.691  1.00  0.00     0.103 A 
HETATM    5  N   UNL     1     -41.196 -49.204  10.513  1.00  0.00    -0.350 N 
ATOM      6  HN  UNL     1     -40.559 -49.667   9.865  1.00  0.00     0.166 HD
HETATM    7  C   UNL     1     -41.735 -47.993  10.210  1.00  0.00     0.119 A 
ENDROOT
BRANCH   1   8
HETATM    8  N   UNL     1     -43.153 -46.038  10.716  1.00  0.00    -0.308 N 
HETATM    9  C   UNL     1     -42.463 -44.889  11.043  1.00  0.00     0.320 C 
HETATM   10  N   UNL     1     -43.241 -43.773  10.832  1.00  0.00    -0.341 N 
HETATM   11  O   UNL     1     -41.350 -44.841  11.553  1.00  0.00    -0.247 OA
HETATM   12  H   UNL     1     -43.737 -43.756   9.952  1.00  0.00     0.164 HD
HETATM   13  H   UNL     1     -44.155 -45.923  10.780  1.00  0.00     0.170 HD
BRANCH  10  14
HETATM   14  C   UNL     1     -42.805 -42.477  11.325  1.00  0.00     0.150 C 
BRANCH  14  15
HETATM   15  C   UNL     1     -43.947 -41.477  11.478  1.00  0.00     0.186 C 
BRANCH  15  16
HETATM   16  O   UNL     1     -44.291 -41.383  12.865  1.00  0.00    -0.394 OA
HETATM   17  C   UNL     1     -43.168 -41.663  13.692  1.00  0.00     0.201 C 
ENDBRANCH  15  16
ENDBRANCH  14  15
ENDBRANCH  10  14
ENDBRANCH   1   8
BRANCH   4  18
HETATM   18  N   UNL     1     -40.987 -51.015  12.010  1.00  0.00    -0.362 N 
HETATM   19  C   UNL     1     -41.829 -52.222  12.060  1.00  0.00     0.156 C 
HETATM   20  C   UNL     1     -42.044 -52.696  13.516  1.00  0.00     0.136 C 
HETATM   21  C   UNL     1     -42.737 -54.053  13.544  1.00  0.00     0.041 C 
HETATM   22  O   UNL     1     -40.793 -52.847  14.209  1.00  0.00    -0.378 OA
HETATM   23  C   UNL     1     -40.090 -51.588  14.262  1.00  0.00     0.136 C 
HETATM   24  C   UNL     1     -38.802 -51.834  15.042  1.00  0.00     0.041 C 
HETATM   25  C   UNL     1     -39.776 -51.076  12.843  1.00  0.00     0.156 C 
ENDBRANCH   4  18
TORSDOF 5
ENDMDL
MODEL 8
REMARK VINA RESULT:      -5.4      3.750      8.658
REMARK  5 active torsions:
REMARK  status: ('A' for Active; 'I' for Inactive)
REMARK    1  A    between atoms: O_2  and  C_3 
REMARK    2  A    between atoms: C_3  and  C_4 
REMARK    3  A    between atoms: C_4  and  N_5 
REMARK       I    between atoms: N_5  and  C_6 
REMARK       I    between atoms: C_6  and  N_8 
REMARK    4  A    between atoms: N_8  and  C_9 
REMARK    5  A    between atoms: C_12  and  N_16 
ROOT
HETATM    1  C   UNL     1     -40.429 -51.517  12.068  1.00  0.00     0.051 A 
HETATM    2  C   UNL     1     -41.286 -52.598  11.962  1.00  0.00     0.035 A 
HETATM    3  C   UNL     1     -41.241 -53.604  12.932  1.00  0.00     0.051 A 
HETATM    4  C   UNL     1     -40.303 -53.557  13.967  1.00  0.00     0.103 A 
HETATM    5  N   UNL     1     -39.416 -52.540  14.027  1.00  0.00    -0.350 N 
ATOM      6  HN  UNL     1     -38.696 -52.520  14.748  1.00  0.00     0.166 HD
HETATM    7  C   UNL     1     -39.505 -51.544  13.105  1.00  0.00     0.119 A 
ENDROOT
BRANCH   1   8
HETATM    8  N   UNL     1     -40.543 -50.456  11.149  1.00  0.00    -0.308 N 
HETATM    9  C   UNL     1     -41.408 -49.404  11.369  1.00  0.00     0.320 C 
HETATM   10  N   UNL     1     -41.492 -48.598  10.257  1.00  0.00    -0.341 N 
HETATM   11  O   UNL     1     -42.100 -49.241  12.366  1.00  0.00    -0.247 OA
HETATM   12  H   UNL     1     -40.607 -48.362   9.829  1.00  0.00     0.164 HD
HETATM   13  H   UNL     1     -40.453 -50.689  10.171  1.00  0.00     0.170 HD
BRANCH  10  14
HETATM   14  C   UNL     1     -42.514 -47.567  10.179  1.00  0.00     0.150 C 
BRANCH  14  15
HETATM   15  C   UNL     1     -41.940 -46.155  10.129  1.00  0.00     0.186 C 
BRANCH  15  16
HETATM   16  O   UNL     1     -42.967 -45.257   9.693  1.00  0.00    -0.394 OA
HETATM   17  C   UNL     1     -43.900 -45.916   8.846  1.00  0.00     0.201 C 
ENDBRANCH  15  16
ENDBRANCH  14  15
ENDBRANCH  10  14
ENDBRANCH   1   8
BRANCH   4  18
HETATM   18  N   UNL     1     -40.220 -54.582  14.892  1.00  0.00    -0.362 N 
HETATM   19  C   UNL     1     -41.362 -54.930  15.753  1.00  0.00     0.156 C 
HETATM   20  C   UNL     1     -41.114 -54.499  17.217  1.00  0.00     0.136 C 
HETATM   21  C   UNL     1     -42.203 -55.047  18.132  1.00  0.00     0.041 C 
HETATM   22  O   UNL     1     -39.859 -55.003  17.707  1.00  0.00    -0.378 OA
HETATM   23  C   UNL     1     -38.766 -54.495  16.915  1.00  0.00     0.136 C 
HETATM   24  C   UNL     1     -37.482 -55.048  17.525  1.00  0.00     0.041 C 
HETATM   25  C   UNL     1     -38.904 -54.939  15.445  1.00  0.00     0.156 C 
ENDBRANCH   4  18
TORSDOF 5
ENDMDL
MODEL 9
REMARK VINA RESULT:      -5.4      3.387      4.631
REMARK  5 active torsions:
REMARK  status: ('A' for Active; 'I' for Inactive)
REMARK    1  A    between atoms: O_2  and  C_3 
REMARK    2  A    between atoms: C_3  and  C_4 
REMARK    3  A    between atoms: C_4  and  N_5 
REMARK       I    between atoms: N_5  and  C_6 
REMARK       I    between atoms: C_6  and  N_8 
REMARK    4  A    between atoms: N_8  and  C_9 
REMARK    5  A    between atoms: C_12  and  N_16 
ROOT
HETATM    1  C   UNL     1     -42.345 -47.977  11.489  1.00  0.00     0.051 A 
HETATM    2  C   UNL     1     -42.539 -47.129  12.565  1.00  0.00     0.035 A 
HETATM    3  C   UNL     1     -42.410 -45.748  12.381  1.00  0.00     0.051 A 
HETATM    4  C   UNL     1     -42.029 -45.226  11.142  1.00  0.00     0.103 A 
HETATM    5  N   UNL     1     -41.766 -46.059  10.111  1.00  0.00    -0.350 N 
ATOM      6  HN  UNL     1     -41.440 -45.694   9.217  1.00  0.00     0.166 HD
HETATM    7  C   UNL     1     -41.944 -47.395  10.293  1.00  0.00     0.119 A 
ENDROOT
BRANCH   1   8
HETATM    8  N   UNL     1     -42.574 -49.356  11.651  1.00  0.00    -0.308 N 
HETATM    9  C   UNL     1     -41.541 -50.231  11.916  1.00  0.00     0.320 C 
HETATM   10  N   UNL     1     -41.970 -51.536  11.837  1.00  0.00    -0.341 N 
HETATM   11  O   UNL     1     -40.369 -49.923  12.095  1.00  0.00    -0.247 OA
HETATM   12  H   UNL     1     -42.845 -51.729  12.305  1.00  0.00     0.164 HD
HETATM   13  H   UNL     1     -43.296 -49.769  11.078  1.00  0.00     0.170 HD
BRANCH  10  14
HETATM   14  C   UNL     1     -41.006 -52.624  11.849  1.00  0.00     0.150 C 
BRANCH  14  15
HETATM   15  C   UNL     1     -40.937 -53.350  13.189  1.00  0.00     0.186 C 
BRANCH  15  16
HETATM   16  O   UNL     1     -39.564 -53.616  13.497  1.00  0.00    -0.394 OA
HETATM   17  C   UNL     1     -38.941 -52.482  14.087  1.00  0.00     0.201 C 
ENDBRANCH  15  16
ENDBRANCH  14  15
ENDBRANCH  10  14
ENDBRANCH   1   8
BRANCH   4  18
HETATM   18  N   UNL     1     -41.843 -43.866  10.975  1.00  0.00    -0.362 N 
HETATM   19  C   UNL     1     -40.614 -43.199  11.435  1.00  0.00     0.156 C 
HETATM   20  C   UNL     1     -40.883 -42.324  12.681  1.00  0.00     0.136 C 
HETATM   21  C   UNL     1     -39.659 -41.481  13.022  1.00  0.00     0.041 C 
HETATM   22  O   UNL     1     -41.973 -41.412  12.457  1.00  0.00    -0.378 OA
HETATM   23  C   UNL     1     -43.186 -42.137  12.166  1.00  0.00     0.136 C 
HETATM   24  C   UNL     1     -44.288 -41.099  11.980  1.00  0.00     0.041 C 
HETATM   25  C   UNL     1     -43.022 -42.989  10.892  1.00  0.00     0.156 C 
ENDBRANCH   4  18
TORSDOF 5
ENDMDL
