MODEL 1
REMARK VINA RESULT:      -6.7      0.000      0.000
REMARK  5 active torsions:
REMARK  status: ('A' for Active; 'I' for Inactive)
REMARK    1  A    between atoms: S_2  and  N_5 
REMARK    2  A    between atoms: C_8  and  N_11 
REMARK       I    between atoms: N_11  and  C_12 
REMARK       I    between atoms: C_12  and  N_14 
REMARK    3  A    between atoms: N_14  and  C_15 
REMARK    4  A    between atoms: C_15  and  C_16 
REMARK    5  A    between atoms: C_16  and  C_17 
ROOT
HETATM    1  N   UNL     1     -42.643 -50.605  12.050  1.00  0.00    -0.338 N 
HETATM    2  C   UNL     1     -42.274 -49.287  11.991  1.00  0.00     0.316 C 
HETATM    3  O   UNL     1     -41.962 -48.601  12.949  1.00  0.00    -0.247 OA
HETATM    4  N   UNL     1     -42.308 -48.846  10.686  1.00  0.00    -0.343 N 
HETATM    5  H   UNL     1     -43.377 -50.782  11.378  1.00  0.00     0.164 HD
HETATM    6  H   UNL     1     -42.058 -49.559  10.016  1.00  0.00     0.164 HD
ENDROOT
BRANCH   1   7
HETATM    7  C   UNL     1     -42.801 -51.295  13.332  1.00  0.00     0.089 C 
HETATM    8  C   UNL     1     -42.596 -52.820  13.254  1.00  0.00     0.045 C 
HETATM    9  C   UNL     1     -43.776 -53.584  12.655  1.00  0.00     0.137 C 
HETATM   10  N   UNL     1     -45.094 -53.153  13.203  1.00  0.00    -0.311 N 
HETATM   11  C   UNL     1     -45.261 -51.681  13.089  1.00  0.00     0.137 C 
HETATM   12  C   UNL     1     -44.183 -50.968  13.897  1.00  0.00     0.045 C 
BRANCH  10  13
HETATM   13  S   UNL     1     -45.635 -53.820  14.669  1.00  0.00     0.224 S 
HETATM   14  C   UNL     1     -47.028 -52.801  15.102  1.00  0.00     0.186 C 
HETATM   15  O   UNL     1     -44.610 -53.582  15.664  1.00  0.00    -0.206 OA
HETATM   16  O   UNL     1     -46.112 -55.161  14.403  1.00  0.00    -0.206 OA
ENDBRANCH  10  13
ENDBRANCH   1   7
BRANCH   4  17
HETATM   17  C   UNL     1     -41.853 -47.501  10.424  1.00  0.00     0.129 C 
BRANCH  17  18
HETATM   18  C   UNL     1     -42.991 -46.501  10.230  1.00  0.00     0.060 C 
BRANCH  18  19
HETATM   19  C   UNL     1     -44.005 -47.105   9.301  1.00  0.00    -0.041 A 
HETATM   20  C   UNL     1     -45.322 -47.325   9.709  1.00  0.00     0.010 A 
HETATM   21  C   UNL     1     -46.181 -48.049   8.890  1.00  0.00     0.018 A 
HETATM   22  C   UNL     1     -45.694 -48.521   7.682  1.00  0.00     0.087 A 
HETATM   23  N   UNL     1     -44.437 -48.305   7.241  1.00  0.00    -0.375 N 
HETATM   24  C   UNL     1     -43.620 -47.605   8.059  1.00  0.00     0.094 A 
ATOM     25  HN  UNL     1     -44.119 -48.653   6.336  1.00  0.00     0.164 HD
ENDBRANCH  18  19
ENDBRANCH  17  18
ENDBRANCH   4  17
TORSDOF 5
ENDMDL
MODEL 2
REMARK VINA RESULT:      -6.3      3.476      7.276
REMARK  5 active torsions:
REMARK  status: ('A' for Active; 'I' for Inactive)
REMARK    1  A    between atoms: S_2  and  N_5 
REMARK    2  A    between atoms: C_8  and  N_11 
REMARK       I    between atoms: N_11  and  C_12 
REMARK       I    between atoms: C_12  and  N_14 
REMARK    3  A    between atoms: N_14  and  C_15 
REMARK    4  A    between atoms: C_15  and  C_16 
REMARK    5  A    between atoms: C_16  and  C_17 
ROOT
HETATM    1  N   UNL     1     -42.305 -50.597  11.922  1.00  0.00    -0.338 N 
HETATM    2  C   UNL     1     -42.311 -51.756  12.653  1.00  0.00     0.316 C 
HETATM    3  O   UNL     1     -41.634 -51.964  13.645  1.00  0.00    -0.247 OA
HETATM    4  N   UNL     1     -43.198 -52.655  12.102  1.00  0.00    -0.343 N 
HETATM    5  H   UNL     1     -42.402 -50.815  10.940  1.00  0.00     0.164 HD
HETATM    6  H   UNL     1     -44.006 -52.216  11.685  1.00  0.00     0.164 HD
ENDROOT
BRANCH   1   7
HETATM    7  C   UNL     1     -41.367 -49.512  12.222  1.00  0.00     0.089 C 
HETATM    8  C   UNL     1     -41.909 -48.471  13.220  1.00  0.00     0.045 C 
HETATM    9  C   UNL     1     -42.914 -47.488  12.622  1.00  0.00     0.137 C 
HETATM   10  N   UNL     1     -42.480 -46.933  11.307  1.00  0.00    -0.311 N 
HETATM   11  C   UNL     1     -42.127 -48.023  10.361  1.00  0.00     0.137 C 
HETATM   12  C   UNL     1     -40.963 -48.838  10.911  1.00  0.00     0.045 C 
BRANCH  10  13
HETATM   13  S   UNL     1     -41.429 -45.600  11.282  1.00  0.00     0.224 S 
HETATM   14  C   UNL     1     -42.379 -44.304  12.044  1.00  0.00     0.186 C 
HETATM   15  O   UNL     1     -41.231 -45.222   9.897  1.00  0.00    -0.206 OA
HETATM   16  O   UNL     1     -40.298 -45.903  12.135  1.00  0.00    -0.206 OA
ENDBRANCH  10  13
ENDBRANCH   1   7
BRANCH   4  17
HETATM   17  C   UNL     1     -43.407 -53.900  12.804  1.00  0.00     0.129 C 
BRANCH  17  18
HETATM   18  C   UNL     1     -44.881 -54.223  13.042  1.00  0.00     0.060 C 
BRANCH  18  19
HETATM   19  C   UNL     1     -45.427 -53.249  14.047  1.00  0.00    -0.041 A 
HETATM   20  C   UNL     1     -46.447 -52.357  13.711  1.00  0.00     0.010 A 
HETATM   21  C   UNL     1     -46.800 -51.352  14.606  1.00  0.00     0.018 A 
HETATM   22  C   UNL     1     -46.125 -51.282  15.814  1.00  0.00     0.087 A 
HETATM   23  N   UNL     1     -45.155 -52.143  16.184  1.00  0.00    -0.375 N 
HETATM   24  C   UNL     1     -44.825 -53.105  15.294  1.00  0.00     0.094 A 
ATOM     25  HN  UNL     1     -44.693 -52.071  17.091  1.00  0.00     0.164 HD
ENDBRANCH  18  19
ENDBRANCH  17  18
ENDBRANCH   4  17
TORSDOF 5
ENDMDL
MODEL 3
REMARK VINA RESULT:      -6.0      3.856      7.811
REMARK  5 active torsions:
REMARK  status: ('A' for Active; 'I' for Inactive)
REMARK    1  A    between atoms: S_2  and  N_5 
REMARK    2  A    between atoms: C_8  and  N_11 
REMARK       I    between atoms: N_11  and  C_12 
REMARK       I    between atoms: C_12  and  N_14 
REMARK    3  A    between atoms: N_14  and  C_15 
REMARK    4  A    between atoms: C_15  and  C_16 
REMARK    5  A    between atoms: C_16  and  C_17 
ROOT
HETATM    1  N   UNL     1     -42.125 -49.678  11.469  1.00  0.00    -0.338 N 
HETATM    2  C   UNL     1     -41.528 -50.838  11.889  1.00  0.00     0.316 C 
HETATM    3  O   UNL     1     -40.325 -51.020  11.969  1.00  0.00    -0.247 OA
HETATM    4  N   UNL     1     -42.488 -51.772  12.210  1.00  0.00    -0.343 N 
HETATM    5  H   UNL     1     -42.948 -49.898  10.927  1.00  0.00     0.164 HD
HETATM    6  H   UNL     1     -43.328 -51.366  12.598  1.00  0.00     0.164 HD
ENDROOT
BRANCH   1   7
HETATM    7  C   UNL     1     -41.333 -48.556  10.959  1.00  0.00     0.089 C 
HETATM    8  C   UNL     1     -40.751 -47.646  12.058  1.00  0.00     0.045 C 
HETATM    9  C   UNL     1     -41.766 -46.694  12.689  1.00  0.00     0.137 C 
HETATM   10  N   UNL     1     -42.622 -45.999  11.685  1.00  0.00    -0.311 N 
HETATM   11  C   UNL     1     -43.263 -46.976  10.767  1.00  0.00     0.137 C 
HETATM   12  C   UNL     1     -42.199 -47.745   9.995  1.00  0.00     0.045 C 
BRANCH  10  13
HETATM   13  S   UNL     1     -42.035 -44.594  10.932  1.00  0.00     0.224 S 
HETATM   14  C   UNL     1     -41.777 -43.471  12.288  1.00  0.00     0.186 C 
HETATM   15  O   UNL     1     -43.109 -44.046  10.127  1.00  0.00    -0.206 OA
HETATM   16  O   UNL     1     -40.750 -44.904  10.341  1.00  0.00    -0.206 OA
ENDBRANCH  10  13
ENDBRANCH   1   7
BRANCH   4  17
HETATM   17  C   UNL     1     -42.039 -53.026  12.768  1.00  0.00     0.129 C 
BRANCH  17  18
HETATM   18  C   UNL     1     -42.255 -53.132  14.276  1.00  0.00     0.060 C 
BRANCH  18  19
HETATM   19  C   UNL     1     -43.616 -53.718  14.524  1.00  0.00    -0.041 A 
HETATM   20  C   UNL     1     -44.186 -54.629  13.633  1.00  0.00     0.010 A 
HETATM   21  C   UNL     1     -45.514 -55.008  13.799  1.00  0.00     0.018 A 
HETATM   22  C   UNL     1     -46.224 -54.469  14.859  1.00  0.00     0.087 A 
HETATM   23  N   UNL     1     -45.699 -53.609  15.756  1.00  0.00    -0.375 N 
HETATM   24  C   UNL     1     -44.410 -53.250  15.569  1.00  0.00     0.094 A 
ATOM     25  HN  UNL     1     -46.249 -53.247  16.536  1.00  0.00     0.164 HD
ENDBRANCH  18  19
ENDBRANCH  17  18
ENDBRANCH   4  17
TORSDOF 5
ENDMDL
MODEL 4
REMARK VINA RESULT:      -5.9      3.550      7.609
REMARK  5 active torsions:
REMARK  status: ('A' for Active; 'I' for Inactive)
REMARK    1  A    between atoms: S_2  and  N_5 
REMARK    2  A    between atoms: C_8  and  N_11 
REMARK       I    between atoms: N_11  and  C_12 
REMARK       I    between atoms: C_12  and  N_14 
REMARK    3  A    between atoms: N_14  and  C_15 
REMARK    4  A    between atoms: C_15  and  C_16 
REMARK    5  A    between atoms: C_16  and  C_17 
ROOT
HETATM    1  N   UNL     1     -42.576 -49.270  11.828  1.00  0.00    -0.338 N 
HETATM    2  C   UNL     1     -42.768 -50.312  12.697  1.00  0.00     0.316 C 
HETATM    3  O   UNL     1     -43.143 -50.203  13.851  1.00  0.00    -0.247 OA
HETATM    4  N   UNL     1     -42.476 -51.505  12.073  1.00  0.00    -0.343 N 
HETATM    5  H   UNL     1     -41.772 -49.459  11.245  1.00  0.00     0.164 HD
HETATM    6  H   UNL     1     -42.702 -51.509  11.089  1.00  0.00     0.164 HD
ENDROOT
BRANCH   1   7
HETATM    7  C   UNL     1     -42.706 -47.879  12.266  1.00  0.00     0.089 C 
HETATM    8  C   UNL     1     -43.219 -46.921  11.173  1.00  0.00     0.045 C 
HETATM    9  C   UNL     1     -42.170 -46.534  10.132  1.00  0.00     0.137 C 
HETATM   10  N   UNL     1     -40.857 -46.159  10.732  1.00  0.00    -0.311 N 
HETATM   11  C   UNL     1     -40.372 -47.219  11.653  1.00  0.00     0.137 C 
HETATM   12  C   UNL     1     -41.355 -47.405  12.802  1.00  0.00     0.045 C 
BRANCH  10  13
HETATM   13  S   UNL     1     -40.630 -44.571  11.292  1.00  0.00     0.224 S 
HETATM   14  C   UNL     1     -39.281 -44.722  12.441  1.00  0.00     0.186 C 
HETATM   15  O   UNL     1     -41.803 -44.205  12.061  1.00  0.00    -0.206 OA
HETATM   16  O   UNL     1     -40.195 -43.759  10.175  1.00  0.00    -0.206 OA
ENDBRANCH  10  13
ENDBRANCH   1   7
BRANCH   4  17
HETATM   17  C   UNL     1     -42.718 -52.721  12.814  1.00  0.00     0.129 C 
BRANCH  17  18
HETATM   18  C   UNL     1     -44.030 -53.409  12.440  1.00  0.00     0.060 C 
BRANCH  18  19
HETATM   19  C   UNL     1     -45.093 -52.965  13.405  1.00  0.00    -0.041 A 
HETATM   20  C   UNL     1     -46.020 -51.980  13.059  1.00  0.00     0.010 A 
HETATM   21  C   UNL     1     -46.869 -51.468  14.033  1.00  0.00     0.018 A 
HETATM   22  C   UNL     1     -46.769 -51.968  15.322  1.00  0.00     0.087 A 
HETATM   23  N   UNL     1     -45.905 -52.939  15.686  1.00  0.00    -0.375 N 
HETATM   24  C   UNL     1     -45.086 -53.415  14.723  1.00  0.00     0.094 A 
ATOM     25  HN  UNL     1     -45.873 -53.295  16.642  1.00  0.00     0.164 HD
ENDBRANCH  18  19
ENDBRANCH  17  18
ENDBRANCH   4  17
TORSDOF 5
ENDMDL
MODEL 5
REMARK VINA RESULT:      -5.8      3.630      8.007
REMARK  5 active torsions:
REMARK  status: ('A' for Active; 'I' for Inactive)
REMARK    1  A    between atoms: S_2  and  N_5 
REMARK    2  A    between atoms: C_8  and  N_11 
REMARK       I    between atoms: N_11  and  C_12 
REMARK       I    between atoms: C_12  and  N_14 
REMARK    3  A    between atoms: N_14  and  C_15 
REMARK    4  A    between atoms: C_15  and  C_16 
REMARK    5  A    between atoms: C_16  and  C_17 
ROOT
HETATM    1  N   UNL     1     -42.604 -49.650  12.172  1.00  0.00    -0.338 N 
HETATM    2  C   UNL     1     -42.783 -50.702  13.032  1.00  0.00     0.316 C 
HETATM    3  O   UNL     1     -42.154 -50.883  14.060  1.00  0.00    -0.247 OA
HETATM    4  N   UNL     1     -43.781 -51.528  12.563  1.00  0.00    -0.343 N 
HETATM    5  H   UNL     1     -42.719 -49.966  11.220  1.00  0.00     0.164 HD
HETATM    6  H   UNL     1     -44.514 -51.033  12.075  1.00  0.00     0.164 HD
ENDROOT
BRANCH   1   7
HETATM    7  C   UNL     1     -41.526 -48.678  12.372  1.00  0.00     0.089 C 
HETATM    8  C   UNL     1     -41.895 -47.514  13.313  1.00  0.00     0.045 C 
HETATM    9  C   UNL     1     -42.788 -46.450  12.678  1.00  0.00     0.137 C 
HETATM   10  N   UNL     1     -42.336 -46.040  11.317  1.00  0.00    -0.311 N 
HETATM   11  C   UNL     1     -42.159 -47.224  10.437  1.00  0.00     0.137 C 
HETATM   12  C   UNL     1     -41.088 -48.145  11.008  1.00  0.00     0.045 C 
BRANCH  10  13
HETATM   13  S   UNL     1     -41.125 -44.858  11.172  1.00  0.00     0.224 S 
HETATM   14  C   UNL     1     -42.006 -43.328  11.397  1.00  0.00     0.186 C 
HETATM   15  O   UNL     1     -40.653 -44.878   9.802  1.00  0.00    -0.206 OA
HETATM   16  O   UNL     1     -40.202 -45.023  12.276  1.00  0.00    -0.206 OA
ENDBRANCH  10  13
ENDBRANCH   1   7
BRANCH   4  17
HETATM   17  C   UNL     1     -44.173 -52.639  13.397  1.00  0.00     0.129 C 
BRANCH  17  18
HETATM   18  C   UNL     1     -43.672 -53.988  12.886  1.00  0.00     0.060 C 
BRANCH  18  19
HETATM   19  C   UNL     1     -42.356 -54.290  13.545  1.00  0.00    -0.041 A 
HETATM   20  C   UNL     1     -42.269 -54.519  14.920  1.00  0.00     0.010 A 
HETATM   21  C   UNL     1     -41.019 -54.613  15.520  1.00  0.00     0.018 A 
HETATM   22  C   UNL     1     -39.894 -54.484  14.721  1.00  0.00     0.087 A 
HETATM   23  N   UNL     1     -39.939 -54.290  13.386  1.00  0.00    -0.375 N 
HETATM   24  C   UNL     1     -41.166 -54.195  12.828  1.00  0.00     0.094 A 
ATOM     25  HN  UNL     1     -39.088 -54.218  12.827  1.00  0.00     0.164 HD
ENDBRANCH  18  19
ENDBRANCH  17  18
ENDBRANCH   4  17
TORSDOF 5
ENDMDL
MODEL 6
REMARK VINA RESULT:      -5.7      3.405      4.800
REMARK  5 active torsions:
REMARK  status: ('A' for Active; 'I' for Inactive)
REMARK    1  A    between atoms: S_2  and  N_5 
REMARK    2  A    between atoms: C_8  and  N_11 
REMARK       I    between atoms: N_11  and  C_12 
REMARK       I    between atoms: C_12  and  N_14 
REMARK    3  A    between atoms: N_14  and  C_15 
REMARK    4  A    between atoms: C_15  and  C_16 
REMARK    5  A    between atoms: C_16  and  C_17 
ROOT
HETATM    1  N   UNL     1     -43.148 -49.869  13.827  1.00  0.00    -0.338 N 
HETATM    2  C   UNL     1     -42.440 -48.971  13.071  1.00  0.00     0.316 C 
HETATM    3  O   UNL     1     -42.552 -48.826  11.867  1.00  0.00    -0.247 OA
HETATM    4  N   UNL     1     -41.580 -48.254  13.875  1.00  0.00    -0.343 N 
HETATM    5  H   UNL     1     -42.553 -50.246  14.551  1.00  0.00     0.164 HD
HETATM    6  H   UNL     1     -41.944 -48.087  14.802  1.00  0.00     0.164 HD
ENDROOT
BRANCH   1   7
HETATM    7  C   UNL     1     -44.054 -50.838  13.207  1.00  0.00     0.089 C 
HETATM    8  C   UNL     1     -45.269 -51.210  14.080  1.00  0.00     0.045 C 
HETATM    9  C   UNL     1     -44.953 -52.177  15.220  1.00  0.00     0.137 C 
HETATM   10  N   UNL     1     -44.107 -53.330  14.795  1.00  0.00    -0.311 N 
HETATM   11  C   UNL     1     -42.881 -52.860  14.099  1.00  0.00     0.137 C 
HETATM   12  C   UNL     1     -43.256 -52.089  12.840  1.00  0.00     0.045 C 
BRANCH  10  13
HETATM   13  S   UNL     1     -44.852 -54.683  14.089  1.00  0.00     0.224 S 
HETATM   14  C   UNL     1     -46.504 -54.641  14.748  1.00  0.00     0.186 C 
HETATM   15  O   UNL     1     -44.211 -55.867  14.627  1.00  0.00    -0.206 OA
HETATM   16  O   UNL     1     -44.921 -54.463  12.660  1.00  0.00    -0.206 OA
ENDBRANCH  10  13
ENDBRANCH   1   7
BRANCH   4  17
HETATM   17  C   UNL     1     -40.823 -47.190  13.258  1.00  0.00     0.129 C 
BRANCH  17  18
HETATM   18  C   UNL     1     -39.328 -47.251  13.567  1.00  0.00     0.060 C 
BRANCH  18  19
HETATM   19  C   UNL     1     -38.779 -48.537  13.018  1.00  0.00    -0.041 A 
HETATM   20  C   UNL     1     -38.025 -49.401  13.815  1.00  0.00     0.010 A 
HETATM   21  C   UNL     1     -37.382 -50.486  13.228  1.00  0.00     0.018 A 
HETATM   22  C   UNL     1     -37.525 -50.675  11.864  1.00  0.00     0.087 A 
HETATM   23  N   UNL     1     -38.268 -49.878  11.067  1.00  0.00    -0.375 N 
HETATM   24  C   UNL     1     -38.876 -48.827  11.660  1.00  0.00     0.094 A 
ATOM     25  HN  UNL     1     -38.364 -50.060  10.068  1.00  0.00     0.164 HD
ENDBRANCH  18  19
ENDBRANCH  17  18
ENDBRANCH   4  17
TORSDOF 5
ENDMDL
MODEL 7
REMARK VINA RESULT:      -5.6      3.745      7.427
REMARK  5 active torsions:
REMARK  status: ('A' for Active; 'I' for Inactive)
REMARK    1  A    between atoms: S_2  and  N_5 
REMARK    2  A    between atoms: C_8  and  N_11 
REMARK       I    between atoms: N_11  and  C_12 
REMARK       I    between atoms: C_12  and  N_14 
REMARK    3  A    between atoms: N_14  and  C_15 
REMARK    4  A    between atoms: C_15  and  C_16 
REMARK    5  A    between atoms: C_16  and  C_17 
ROOT
HETATM    1  N   UNL     1     -40.528 -49.697  13.025  1.00  0.00    -0.338 N 
HETATM    2  C   UNL     1     -40.828 -50.803  13.776  1.00  0.00     0.316 C 
HETATM    3  O   UNL     1     -41.626 -50.831  14.697  1.00  0.00    -0.247 OA
HETATM    4  N   UNL     1     -40.094 -51.883  13.338  1.00  0.00    -0.343 N 
HETATM    5  H   UNL     1     -39.544 -49.697  12.798  1.00  0.00     0.164 HD
HETATM    6  H   UNL     1     -39.924 -51.874  12.342  1.00  0.00     0.164 HD
ENDROOT
BRANCH   1   7
HETATM    7  C   UNL     1     -41.085 -48.381  13.350  1.00  0.00     0.089 C 
HETATM    8  C   UNL     1     -42.477 -48.120  12.742  1.00  0.00     0.045 C 
HETATM    9  C   UNL     1     -42.459 -47.786  11.251  1.00  0.00     0.137 C 
HETATM   10  N   UNL     1     -41.415 -46.786  10.885  1.00  0.00    -0.311 N 
HETATM   11  C   UNL     1     -40.079 -47.207  11.382  1.00  0.00     0.137 C 
HETATM   12  C   UNL     1     -40.094 -47.306  12.903  1.00  0.00     0.045 C 
BRANCH  10  13
HETATM   13  S   UNL     1     -41.755 -45.133  11.071  1.00  0.00     0.224 S 
HETATM   14  C   UNL     1     -40.182 -44.349  10.790  1.00  0.00     0.186 C 
HETATM   15  O   UNL     1     -42.098 -44.909  12.461  1.00  0.00    -0.206 OA
HETATM   16  O   UNL     1     -42.660 -44.738  10.012  1.00  0.00    -0.206 OA
ENDBRANCH  10  13
ENDBRANCH   1   7
BRANCH   4  17
HETATM   17  C   UNL     1     -40.356 -53.162  13.954  1.00  0.00     0.129 C 
BRANCH  17  18
HETATM   18  C   UNL     1     -41.107 -54.132  13.045  1.00  0.00     0.060 C 
BRANCH  18  19
HETATM   19  C   UNL     1     -42.582 -53.919  13.235  1.00  0.00    -0.041 A 
HETATM   20  C   UNL     1     -43.300 -54.634  14.195  1.00  0.00     0.010 A 
HETATM   21  C   UNL     1     -44.688 -54.545  14.218  1.00  0.00     0.018 A 
HETATM   22  C   UNL     1     -45.310 -53.733  13.284  1.00  0.00     0.087 A 
HETATM   23  N   UNL     1     -44.648 -53.005  12.361  1.00  0.00    -0.375 N 
HETATM   24  C   UNL     1     -43.301 -53.115  12.354  1.00  0.00     0.094 A 
ATOM     25  HN  UNL     1     -45.141 -52.403  11.700  1.00  0.00     0.164 HD
ENDBRANCH  18  19
ENDBRANCH  17  18
ENDBRANCH   4  17
TORSDOF 5
ENDMDL
MODEL 8
REMARK VINA RESULT:      -5.6      3.415      4.274
REMARK  5 active torsions:
REMARK  status: ('A' for Active; 'I' for Inactive)
REMARK    1  A    between atoms: S_2  and  N_5 
REMARK    2  A    between atoms: C_8  and  N_11 
REMARK       I    between atoms: N_11  and  C_12 
REMARK       I    between atoms: C_12  and  N_14 
REMARK    3  A    between atoms: N_14  and  C_15 
REMARK    4  A    between atoms: C_15  and  C_16 
REMARK    5  A    between atoms: C_16  and  C_17 
ROOT
HETATM    1  N   UNL     1     -40.618 -52.636  13.512  1.00  0.00    -0.338 N 
HETATM    2  C   UNL     1     -40.168 -51.533  12.835  1.00  0.00     0.316 C 
HETATM    3  O   UNL     1     -40.675 -51.072  11.828  1.00  0.00    -0.247 OA
HETATM    4  N   UNL     1     -39.054 -51.018  13.462  1.00  0.00    -0.343 N 
HETATM    5  H   UNL     1     -39.831 -53.165  13.860  1.00  0.00     0.164 HD
HETATM    6  H   UNL     1     -39.073 -51.128  14.466  1.00  0.00     0.164 HD
ENDROOT
BRANCH   1   7
HETATM    7  C   UNL     1     -41.725 -53.446  12.998  1.00  0.00     0.089 C 
HETATM    8  C   UNL     1     -42.903 -52.621  12.443  1.00  0.00     0.045 C 
HETATM    9  C   UNL     1     -43.801 -52.006  13.515  1.00  0.00     0.137 C 
HETATM   10  N   UNL     1     -44.159 -52.964  14.601  1.00  0.00    -0.311 N 
HETATM   11  C   UNL     1     -42.943 -53.592  15.179  1.00  0.00     0.137 C 
HETATM   12  C   UNL     1     -42.203 -54.383  14.107  1.00  0.00     0.045 C 
BRANCH  10  13
HETATM   13  S   UNL     1     -45.465 -54.025  14.366  1.00  0.00     0.224 S 
HETATM   14  C   UNL     1     -46.888 -52.960  14.453  1.00  0.00     0.186 C 
HETATM   15  O   UNL     1     -45.525 -54.907  15.514  1.00  0.00    -0.206 OA
HETATM   16  O   UNL     1     -45.373 -54.561  13.024  1.00  0.00    -0.206 OA
ENDBRANCH  10  13
ENDBRANCH   1   7
BRANCH   4  17
HETATM   17  C   UNL     1     -38.502 -49.790  12.939  1.00  0.00     0.129 C 
BRANCH  17  18
HETATM   18  C   UNL     1     -38.908 -48.553  13.738  1.00  0.00     0.060 C 
BRANCH  18  19
HETATM   19  C   UNL     1     -39.319 -47.476  12.775  1.00  0.00    -0.041 A 
HETATM   20  C   UNL     1     -39.442 -46.147  13.184  1.00  0.00     0.010 A 
HETATM   21  C   UNL     1     -39.998 -45.213  12.316  1.00  0.00     0.018 A 
HETATM   22  C   UNL     1     -40.403 -45.641  11.062  1.00  0.00     0.087 A 
HETATM   23  N   UNL     1     -40.274 -46.910  10.622  1.00  0.00    -0.375 N 
HETATM   24  C   UNL     1     -39.737 -47.800  11.486  1.00  0.00     0.094 A 
ATOM     25  HN  UNL     1     -40.567 -47.183   9.684  1.00  0.00     0.164 HD
ENDBRANCH  18  19
ENDBRANCH  17  18
ENDBRANCH   4  17
TORSDOF 5
ENDMDL
MODEL 9
REMARK VINA RESULT:      -5.5      4.929      7.269
REMARK  5 active torsions:
REMARK  status: ('A' for Active; 'I' for Inactive)
REMARK    1  A    between atoms: S_2  and  N_5 
REMARK    2  A    between atoms: C_8  and  N_11 
REMARK       I    between atoms: N_11  and  C_12 
REMARK       I    between atoms: C_12  and  N_14 
REMARK    3  A    between atoms: N_14  and  C_15 
REMARK    4  A    between atoms: C_15  and  C_16 
REMARK    5  A    between atoms: C_16  and  C_17 
ROOT
HETATM    1  N   UNL     1     -40.675 -51.523  13.821  1.00  0.00    -0.338 N 
HETATM    2  C   UNL     1     -39.450 -51.088  13.386  1.00  0.00     0.316 C 
HETATM    3  O   UNL     1     -38.875 -51.491  12.390  1.00  0.00    -0.247 OA
HETATM    4  N   UNL     1     -38.962 -50.124  14.241  1.00  0.00    -0.343 N 
HETATM    5  H   UNL     1     -40.682 -51.561  14.831  1.00  0.00     0.164 HD
HETATM    6  H   UNL     1     -39.684 -49.546  14.647  1.00  0.00     0.164 HD
ENDROOT
BRANCH   1   7
HETATM    7  C   UNL     1     -41.370 -52.628  13.158  1.00  0.00     0.089 C 
HETATM    8  C   UNL     1     -42.700 -52.225  12.492  1.00  0.00     0.045 C 
HETATM    9  C   UNL     1     -43.860 -52.032  13.468  1.00  0.00     0.137 C 
HETATM   10  N   UNL     1     -43.966 -53.126  14.477  1.00  0.00    -0.311 N 
HETATM   11  C   UNL     1     -42.671 -53.332  15.176  1.00  0.00     0.137 C 
HETATM   12  C   UNL     1     -41.598 -53.745  14.176  1.00  0.00     0.045 C 
BRANCH  10  13
HETATM   13  S   UNL     1     -44.787 -54.553  14.061  1.00  0.00     0.224 S 
HETATM   14  C   UNL     1     -46.395 -54.339  14.791  1.00  0.00     0.186 C 
HETATM   15  O   UNL     1     -44.145 -55.648  14.762  1.00  0.00    -0.206 OA
HETATM   16  O   UNL     1     -44.936 -54.582  12.621  1.00  0.00    -0.206 OA
ENDBRANCH  10  13
ENDBRANCH   1   7
BRANCH   4  17
HETATM   17  C   UNL     1     -37.720 -49.480  13.882  1.00  0.00     0.129 C 
BRANCH  17  18
HETATM   18  C   UNL     1     -37.306 -48.376  14.851  1.00  0.00     0.060 C 
BRANCH  18  19
HETATM   19  C   UNL     1     -36.785 -49.013  16.108  1.00  0.00    -0.041 A 
HETATM   20  C   UNL     1     -37.161 -48.545  17.368  1.00  0.00     0.010 A 
HETATM   21  C   UNL     1     -36.521 -49.038  18.500  1.00  0.00     0.018 A 
HETATM   22  C   UNL     1     -35.532 -49.993  18.332  1.00  0.00     0.087 A 
HETATM   23  N   UNL     1     -35.162 -50.490  17.134  1.00  0.00    -0.375 N 
HETATM   24  C   UNL     1     -35.793 -49.990  16.048  1.00  0.00     0.094 A 
ATOM     25  HN  UNL     1     -34.441 -51.207  17.051  1.00  0.00     0.164 HD
ENDBRANCH  18  19
ENDBRANCH  17  18
ENDBRANCH   4  17
TORSDOF 5
ENDMDL
