MODEL 1
REMARK VINA RESULT:      -5.9      0.000      0.000
REMARK  7 active torsions:
REMARK  status: ('A' for Active; 'I' for Inactive)
REMARK    1  A    between atoms: N_6  and  C_7 
REMARK    2  A    between atoms: C_7  and  C_8 
REMARK    3  A    between atoms: C_8  and  O_9 
REMARK    4  A    between atoms: C_8  and  C_10 
REMARK    5  A    between atoms: C_10  and  O_11 
REMARK    6  A    between atoms: O_11  and  C_12 
REMARK    7  A    between atoms: C_16  and  C_18 
ROOT
HETATM    1  C   UNL     1     -41.208 -51.189  11.974  1.00  0.00     0.161 C 
ENDROOT
BRANCH   1   2
HETATM    2  C   UNL     1     -41.646 -50.191  13.063  1.00  0.00     0.166 C 
BRANCH   2   3
HETATM    3  N   UNL     1     -42.900 -50.567  13.712  1.00  0.00    -0.307 N 
HETATM    4  C   UNL     1     -44.068 -50.600  13.000  1.00  0.00     0.186 A 
HETATM    5  N   UNL     1     -45.227 -50.885  13.487  1.00  0.00    -0.355 N 
HETATM    6  C   UNL     1     -45.290 -51.196  14.823  1.00  0.00     0.017 A 
ATOM      7  HN  UNL     1     -46.064 -50.880  12.904  1.00  0.00     0.166 HD
HETATM    8  C   UNL     1     -46.681 -51.473  15.334  1.00  0.00     0.069 C 
HETATM    9  C   UNL     1     -44.215 -51.253  15.633  1.00  0.00     0.028 A 
HETATM   10  C   UNL     1     -42.888 -50.940  15.038  1.00  0.00     0.256 A 
HETATM   11  C   UNL     1     -44.270 -51.603  17.088  1.00  0.00     0.056 C 
HETATM   12  O   UNL     1     -41.858 -50.999  15.707  1.00  0.00    -0.267 OA
ENDBRANCH   2   3
ENDBRANCH   1   2
BRANCH   1  13
HETATM   13  O   UNL     1     -40.489 -50.472  10.957  1.00  0.00    -0.392 OA
HETATM   14  H   UNL     1     -39.540 -50.496  11.163  1.00  0.00     0.210 HD
ENDBRANCH   1  13
BRANCH   1  15
HETATM   15  C   UNL     1     -40.328 -52.292  12.598  1.00  0.00     0.209 C 
BRANCH  15  16
HETATM   16  O   UNL     1     -40.963 -53.566  12.446  1.00  0.00    -0.349 OA
BRANCH  16  17
HETATM   17  C   UNL     1     -41.663 -54.047  13.521  1.00  0.00     0.069 A 
HETATM   18  C   UNL     1     -41.127 -54.391  14.763  1.00  0.00     0.037 A 
HETATM   19  C   UNL     1     -41.956 -54.873  15.780  1.00  0.00     0.004 A 
HETATM   20  C   UNL     1     -43.324 -55.020  15.563  1.00  0.00     0.016 A 
HETATM   21  C   UNL     1     -43.883 -54.683  14.324  1.00  0.00     0.050 A 
HETATM   22  C   UNL     1     -43.039 -54.191  13.311  1.00  0.00     0.052 A 
BRANCH  21  23
HETATM   23  C   UNL     1     -45.360 -54.848  14.064  1.00  0.00     0.417 C 
HETATM   24  F   UNL     1     -45.701 -56.098  13.640  1.00  0.00    -0.166 F 
HETATM   25  F   UNL     1     -46.118 -54.614  15.170  1.00  0.00    -0.166 F 
HETATM   26  F   UNL     1     -45.820 -53.996  13.105  1.00  0.00    -0.166 F 
ENDBRANCH  21  23
ENDBRANCH  16  17
ENDBRANCH  15  16
ENDBRANCH   1  15
TORSDOF 7
ENDMDL
MODEL 2
REMARK VINA RESULT:      -5.9      1.843      3.894
REMARK  7 active torsions:
REMARK  status: ('A' for Active; 'I' for Inactive)
REMARK    1  A    between atoms: N_6  and  C_7 
REMARK    2  A    between atoms: C_7  and  C_8 
REMARK    3  A    between atoms: C_8  and  O_9 
REMARK    4  A    between atoms: C_8  and  C_10 
REMARK    5  A    between atoms: C_10  and  O_11 
REMARK    6  A    between atoms: O_11  and  C_12 
REMARK    7  A    between atoms: C_16  and  C_18 
ROOT
HETATM    1  C   UNL     1     -41.065 -50.914  12.045  1.00  0.00     0.161 C 
ENDROOT
BRANCH   1   2
HETATM    2  C   UNL     1     -41.464 -52.356  11.680  1.00  0.00     0.166 C 
BRANCH   2   3
HETATM    3  N   UNL     1     -41.787 -53.173  12.847  1.00  0.00    -0.307 N 
HETATM    4  C   UNL     1     -40.843 -53.415  13.808  1.00  0.00     0.186 A 
HETATM    5  N   UNL     1     -41.018 -54.149  14.853  1.00  0.00    -0.355 N 
HETATM    6  C   UNL     1     -42.256 -54.718  15.023  1.00  0.00     0.017 A 
ATOM      7  HN  UNL     1     -40.268 -54.301  15.528  1.00  0.00     0.166 HD
HETATM    8  C   UNL     1     -42.376 -55.598  16.241  1.00  0.00     0.069 C 
HETATM    9  C   UNL     1     -43.294 -54.525  14.186  1.00  0.00     0.028 A 
HETATM   10  C   UNL     1     -43.067 -53.657  12.999  1.00  0.00     0.256 A 
HETATM   11  C   UNL     1     -44.652 -55.129  14.368  1.00  0.00     0.056 C 
HETATM   12  O   UNL     1     -43.974 -53.410  12.207  1.00  0.00    -0.267 OA
ENDBRANCH   2   3
ENDBRANCH   1   2
BRANCH   1  13
HETATM   13  O   UNL     1     -40.404 -50.320  10.917  1.00  0.00    -0.392 OA
HETATM   14  H   UNL     1     -39.565 -49.927  11.212  1.00  0.00     0.210 HD
ENDBRANCH   1  13
BRANCH   1  15
HETATM   15  C   UNL     1     -42.321 -50.106  12.436  1.00  0.00     0.209 C 
BRANCH  15  16
HETATM   16  O   UNL     1     -42.252 -49.737  13.818  1.00  0.00    -0.349 OA
BRANCH  16  17
HETATM   17  C   UNL     1     -43.029 -50.449  14.693  1.00  0.00     0.069 A 
HETATM   18  C   UNL     1     -42.620 -50.965  15.924  1.00  0.00     0.037 A 
HETATM   19  C   UNL     1     -43.517 -51.678  16.724  1.00  0.00     0.004 A 
HETATM   20  C   UNL     1     -44.828 -51.885  16.300  1.00  0.00     0.016 A 
HETATM   21  C   UNL     1     -45.260 -51.377  15.068  1.00  0.00     0.050 A 
HETATM   22  C   UNL     1     -44.349 -50.655  14.275  1.00  0.00     0.052 A 
BRANCH  21  23
HETATM   23  C   UNL     1     -46.671 -51.602  14.584  1.00  0.00     0.417 C 
HETATM   24  F   UNL     1     -46.900 -51.116  13.331  1.00  0.00    -0.166 F 
HETATM   25  F   UNL     1     -47.005 -52.921  14.535  1.00  0.00    -0.166 F 
HETATM   26  F   UNL     1     -47.599 -51.008  15.385  1.00  0.00    -0.166 F 
ENDBRANCH  21  23
ENDBRANCH  16  17
ENDBRANCH  15  16
ENDBRANCH   1  15
TORSDOF 7
ENDMDL
MODEL 3
REMARK VINA RESULT:      -5.9      4.099      6.571
REMARK  7 active torsions:
REMARK  status: ('A' for Active; 'I' for Inactive)
REMARK    1  A    between atoms: N_6  and  C_7 
REMARK    2  A    between atoms: C_7  and  C_8 
REMARK    3  A    between atoms: C_8  and  O_9 
REMARK    4  A    between atoms: C_8  and  C_10 
REMARK    5  A    between atoms: C_10  and  O_11 
REMARK    6  A    between atoms: O_11  and  C_12 
REMARK    7  A    between atoms: C_16  and  C_18 
ROOT
HETATM    1  C   UNL     1     -40.138 -48.945  11.340  1.00  0.00     0.161 C 
ENDROOT
BRANCH   1   2
HETATM    2  C   UNL     1     -40.549 -49.405  12.752  1.00  0.00     0.166 C 
BRANCH   2   3
HETATM    3  N   UNL     1     -41.351 -50.626  12.745  1.00  0.00    -0.307 N 
HETATM    4  C   UNL     1     -42.716 -50.559  12.673  1.00  0.00     0.186 A 
HETATM    5  N   UNL     1     -43.511 -51.573  12.695  1.00  0.00    -0.355 N 
HETATM    6  C   UNL     1     -42.941 -52.819  12.781  1.00  0.00     0.017 A 
ATOM      7  HN  UNL     1     -44.524 -51.455  12.651  1.00  0.00     0.166 HD
HETATM    8  C   UNL     1     -43.931 -53.955  12.848  1.00  0.00     0.069 C 
HETATM    9  C   UNL     1     -41.612 -53.038  12.807  1.00  0.00     0.028 A 
HETATM   10  C   UNL     1     -40.719 -51.849  12.759  1.00  0.00     0.256 A 
HETATM   11  C   UNL     1     -40.978 -54.392  12.887  1.00  0.00     0.056 C 
HETATM   12  O   UNL     1     -39.495 -51.970  12.750  1.00  0.00    -0.267 OA
ENDBRANCH   2   3
ENDBRANCH   1   2
BRANCH   1  13
HETATM   13  O   UNL     1     -40.491 -49.973  10.400  1.00  0.00    -0.392 OA
HETATM   14  H   UNL     1     -41.169 -49.630   9.795  1.00  0.00     0.210 HD
ENDBRANCH   1  13
BRANCH   1  15
HETATM   15  C   UNL     1     -40.844 -47.617  10.995  1.00  0.00     0.209 C 
BRANCH  15  16
HETATM   16  O   UNL     1     -42.230 -47.697  11.344  1.00  0.00    -0.349 OA
BRANCH  16  17
HETATM   17  C   UNL     1     -43.121 -47.078  10.508  1.00  0.00     0.069 A 
HETATM   18  C   UNL     1     -42.998 -45.791   9.984  1.00  0.00     0.037 A 
HETATM   19  C   UNL     1     -43.986 -45.276   9.139  1.00  0.00     0.004 A 
HETATM   20  C   UNL     1     -45.104 -46.040   8.815  1.00  0.00     0.016 A 
HETATM   21  C   UNL     1     -45.249 -47.334   9.331  1.00  0.00     0.050 A 
HETATM   22  C   UNL     1     -44.244 -47.844  10.174  1.00  0.00     0.052 A 
BRANCH  21  23
HETATM   23  C   UNL     1     -46.459 -48.173   9.004  1.00  0.00     0.417 C 
HETATM   24  F   UNL     1     -46.637 -49.226   9.852  1.00  0.00    -0.166 F 
HETATM   25  F   UNL     1     -47.619 -47.462   9.050  1.00  0.00    -0.166 F 
HETATM   26  F   UNL     1     -46.398 -48.714   7.755  1.00  0.00    -0.166 F 
ENDBRANCH  21  23
ENDBRANCH  16  17
ENDBRANCH  15  16
ENDBRANCH   1  15
TORSDOF 7
ENDMDL
MODEL 4
REMARK VINA RESULT:      -5.6      2.361      3.837
REMARK  7 active torsions:
REMARK  status: ('A' for Active; 'I' for Inactive)
REMARK    1  A    between atoms: N_6  and  C_7 
REMARK    2  A    between atoms: C_7  and  C_8 
REMARK    3  A    between atoms: C_8  and  O_9 
REMARK    4  A    between atoms: C_8  and  C_10 
REMARK    5  A    between atoms: C_10  and  O_11 
REMARK    6  A    between atoms: O_11  and  C_12 
REMARK    7  A    between atoms: C_16  and  C_18 
ROOT
HETATM    1  C   UNL     1     -40.993 -52.900  12.489  1.00  0.00     0.161 C 
ENDROOT
BRANCH   1   2
HETATM    2  C   UNL     1     -40.173 -51.642  12.828  1.00  0.00     0.166 C 
BRANCH   2   3
HETATM    3  N   UNL     1     -40.767 -50.414  12.306  1.00  0.00    -0.307 N 
HETATM    4  C   UNL     1     -40.578 -50.052  11.000  1.00  0.00     0.186 A 
HETATM    5  N   UNL     1     -41.031 -48.974  10.455  1.00  0.00    -0.355 N 
HETATM    6  C   UNL     1     -41.775 -48.133  11.245  1.00  0.00     0.017 A 
ATOM      7  HN  UNL     1     -40.844 -48.755   9.476  1.00  0.00     0.166 HD
HETATM    8  C   UNL     1     -42.232 -46.873  10.556  1.00  0.00     0.069 C 
HETATM    9  C   UNL     1     -42.083 -48.387  12.532  1.00  0.00     0.028 A 
HETATM   10  C   UNL     1     -41.564 -49.648  13.127  1.00  0.00     0.256 A 
HETATM   11  C   UNL     1     -42.904 -47.483  13.399  1.00  0.00     0.056 C 
HETATM   12  O   UNL     1     -41.828 -49.962  14.286  1.00  0.00    -0.267 OA
ENDBRANCH   2   3
ENDBRANCH   1   2
BRANCH   1  13
HETATM   13  O   UNL     1     -40.439 -53.508  11.311  1.00  0.00    -0.392 OA
HETATM   14  H   UNL     1     -41.163 -53.785  10.726  1.00  0.00     0.210 HD
ENDBRANCH   1  13
BRANCH   1  15
HETATM   15  C   UNL     1     -40.964 -53.882  13.680  1.00  0.00     0.209 C 
BRANCH  15  16
HETATM   16  O   UNL     1     -41.941 -53.495  14.653  1.00  0.00    -0.349 OA
BRANCH  16  17
HETATM   17  C   UNL     1     -43.254 -53.747  14.353  1.00  0.00     0.069 A 
HETATM   18  C   UNL     1     -43.881 -54.993  14.391  1.00  0.00     0.037 A 
HETATM   19  C   UNL     1     -45.234 -55.112  14.058  1.00  0.00     0.004 A 
HETATM   20  C   UNL     1     -45.968 -53.990  13.682  1.00  0.00     0.016 A 
HETATM   21  C   UNL     1     -45.358 -52.729  13.635  1.00  0.00     0.050 A 
HETATM   22  C   UNL     1     -43.998 -52.622  13.980  1.00  0.00     0.052 A 
BRANCH  21  23
HETATM   23  C   UNL     1     -46.132 -51.504  13.216  1.00  0.00     0.417 C 
HETATM   24  F   UNL     1     -46.940 -51.714  12.138  1.00  0.00    -0.166 F 
HETATM   25  F   UNL     1     -46.944 -51.033  14.202  1.00  0.00    -0.166 F 
HETATM   26  F   UNL     1     -45.320 -50.466  12.870  1.00  0.00    -0.166 F 
ENDBRANCH  21  23
ENDBRANCH  16  17
ENDBRANCH  15  16
ENDBRANCH   1  15
TORSDOF 7
ENDMDL
MODEL 5
REMARK VINA RESULT:      -5.6      2.800      4.540
REMARK  7 active torsions:
REMARK  status: ('A' for Active; 'I' for Inactive)
REMARK    1  A    between atoms: N_6  and  C_7 
REMARK    2  A    between atoms: C_7  and  C_8 
REMARK    3  A    between atoms: C_8  and  O_9 
REMARK    4  A    between atoms: C_8  and  C_10 
REMARK    5  A    between atoms: C_10  and  O_11 
REMARK    6  A    between atoms: O_11  and  C_12 
REMARK    7  A    between atoms: C_16  and  C_18 
ROOT
HETATM    1  C   UNL     1     -40.909 -52.392  12.362  1.00  0.00     0.161 C 
ENDROOT
BRANCH   1   2
HETATM    2  C   UNL     1     -39.672 -51.553  12.732  1.00  0.00     0.166 C 
BRANCH   2   3
HETATM    3  N   UNL     1     -39.805 -50.146  12.364  1.00  0.00    -0.307 N 
HETATM    4  C   UNL     1     -40.421 -49.789  11.196  1.00  0.00     0.186 A 
HETATM    5  N   UNL     1     -40.557 -48.580  10.767  1.00  0.00    -0.355 N 
HETATM    6  C   UNL     1     -40.058 -47.572  11.554  1.00  0.00     0.017 A 
ATOM      7  HN  UNL     1     -41.017 -48.381   9.878  1.00  0.00     0.166 HD
HETATM    8  C   UNL     1     -40.212 -46.191  10.970  1.00  0.00     0.069 C 
HETATM    9  C   UNL     1     -39.474 -47.773  12.751  1.00  0.00     0.028 A 
HETATM   10  C   UNL     1     -39.350 -49.176  13.229  1.00  0.00     0.256 A 
HETATM   11  C   UNL     1     -38.938 -46.681  13.625  1.00  0.00     0.056 C 
HETATM   12  O   UNL     1     -38.854 -49.436  14.324  1.00  0.00    -0.267 OA
ENDBRANCH   2   3
ENDBRANCH   1   2
BRANCH   1  13
HETATM   13  O   UNL     1     -40.509 -53.420  11.441  1.00  0.00    -0.392 OA
HETATM   14  H   UNL     1     -41.057 -53.360  10.641  1.00  0.00     0.210 HD
ENDBRANCH   1  13
BRANCH   1  15
HETATM   15  C   UNL     1     -41.528 -53.004  13.636  1.00  0.00     0.209 C 
BRANCH  15  16
HETATM   16  O   UNL     1     -42.277 -54.176  13.299  1.00  0.00    -0.349 OA
BRANCH  16  17
HETATM   17  C   UNL     1     -43.623 -54.152  13.556  1.00  0.00     0.069 A 
HETATM   18  C   UNL     1     -44.378 -55.201  14.085  1.00  0.00     0.037 A 
HETATM   19  C   UNL     1     -45.750 -55.045  14.298  1.00  0.00     0.004 A 
HETATM   20  C   UNL     1     -46.380 -53.843  13.982  1.00  0.00     0.016 A 
HETATM   21  C   UNL     1     -45.642 -52.778  13.449  1.00  0.00     0.050 A 
HETATM   22  C   UNL     1     -44.260 -52.946  13.246  1.00  0.00     0.052 A 
BRANCH  21  23
HETATM   23  C   UNL     1     -46.308 -51.473  13.086  1.00  0.00     0.417 C 
HETATM   24  F   UNL     1     -47.126 -50.991  14.064  1.00  0.00    -0.166 F 
HETATM   25  F   UNL     1     -45.412 -50.480  12.830  1.00  0.00    -0.166 F 
HETATM   26  F   UNL     1     -47.085 -51.575  11.973  1.00  0.00    -0.166 F 
ENDBRANCH  21  23
ENDBRANCH  16  17
ENDBRANCH  15  16
ENDBRANCH   1  15
TORSDOF 7
ENDMDL
MODEL 6
REMARK VINA RESULT:      -5.5      2.574      4.888
REMARK  7 active torsions:
REMARK  status: ('A' for Active; 'I' for Inactive)
REMARK    1  A    between atoms: N_6  and  C_7 
REMARK    2  A    between atoms: C_7  and  C_8 
REMARK    3  A    between atoms: C_8  and  O_9 
REMARK    4  A    between atoms: C_8  and  C_10 
REMARK    5  A    between atoms: C_10  and  O_11 
REMARK    6  A    between atoms: O_11  and  C_12 
REMARK    7  A    between atoms: C_16  and  C_18 
ROOT
HETATM    1  C   UNL     1     -39.924 -53.856  13.884  1.00  0.00     0.161 C 
ENDROOT
BRANCH   1   2
HETATM    2  C   UNL     1     -39.104 -52.731  14.544  1.00  0.00     0.166 C 
BRANCH   2   3
HETATM    3  N   UNL     1     -39.140 -51.480  13.792  1.00  0.00    -0.307 N 
HETATM    4  C   UNL     1     -40.105 -50.544  14.049  1.00  0.00     0.186 A 
HETATM    5  N   UNL     1     -40.243 -49.427  13.420  1.00  0.00    -0.355 N 
HETATM    6  C   UNL     1     -39.338 -49.149  12.425  1.00  0.00     0.017 A 
ATOM      7  HN  UNL     1     -40.993 -48.775  13.652  1.00  0.00     0.166 HD
HETATM    8  C   UNL     1     -39.586 -47.849  11.703  1.00  0.00     0.069 C 
HETATM    9  C   UNL     1     -38.308 -49.953  12.100  1.00  0.00     0.028 A 
HETATM   10  C   UNL     1     -38.163 -51.225  12.857  1.00  0.00     0.256 A 
HETATM   11  C   UNL     1     -37.308 -49.654  11.026  1.00  0.00     0.056 C 
HETATM   12  O   UNL     1     -37.231 -51.997  12.636  1.00  0.00    -0.267 OA
ENDBRANCH   2   3
ENDBRANCH   1   2
BRANCH   1  13
HETATM   13  O   UNL     1     -39.025 -54.896  13.466  1.00  0.00    -0.392 OA
HETATM   14  H   UNL     1     -39.177 -55.089  12.526  1.00  0.00     0.210 HD
ENDBRANCH   1  13
BRANCH   1  15
HETATM   15  C   UNL     1     -40.969 -54.398  14.882  1.00  0.00     0.209 C 
BRANCH  15  16
HETATM   16  O   UNL     1     -41.954 -53.395  15.148  1.00  0.00    -0.349 OA
BRANCH  16  17
HETATM   17  C   UNL     1     -43.250 -53.687  14.812  1.00  0.00     0.069 A 
HETATM   18  C   UNL     1     -43.709 -54.893  14.281  1.00  0.00     0.037 A 
HETATM   19  C   UNL     1     -45.063 -55.061  13.979  1.00  0.00     0.004 A 
HETATM   20  C   UNL     1     -45.968 -54.026  14.201  1.00  0.00     0.016 A 
HETATM   21  C   UNL     1     -45.529 -52.806  14.732  1.00  0.00     0.050 A 
HETATM   22  C   UNL     1     -44.164 -52.653  15.039  1.00  0.00     0.052 A 
BRANCH  21  23
HETATM   23  C   UNL     1     -46.490 -51.667  14.967  1.00  0.00     0.417 C 
HETATM   24  F   UNL     1     -45.962 -50.654  15.711  1.00  0.00    -0.166 F 
HETATM   25  F   UNL     1     -46.916 -51.091  13.809  1.00  0.00    -0.166 F 
HETATM   26  F   UNL     1     -47.615 -52.060  15.627  1.00  0.00    -0.166 F 
ENDBRANCH  21  23
ENDBRANCH  16  17
ENDBRANCH  15  16
ENDBRANCH   1  15
TORSDOF 7
ENDMDL
MODEL 7
REMARK VINA RESULT:      -5.4      2.042      3.543
REMARK  7 active torsions:
REMARK  status: ('A' for Active; 'I' for Inactive)
REMARK    1  A    between atoms: N_6  and  C_7 
REMARK    2  A    between atoms: C_7  and  C_8 
REMARK    3  A    between atoms: C_8  and  O_9 
REMARK    4  A    between atoms: C_8  and  C_10 
REMARK    5  A    between atoms: C_10  and  O_11 
REMARK    6  A    between atoms: O_11  and  C_12 
REMARK    7  A    between atoms: C_16  and  C_18 
ROOT
HETATM    1  C   UNL     1     -39.982 -54.080  13.843  1.00  0.00     0.161 C 
ENDROOT
BRANCH   1   2
HETATM    2  C   UNL     1     -40.606 -54.631  15.139  1.00  0.00     0.166 C 
BRANCH   2   3
HETATM    3  N   UNL     1     -41.698 -53.803  15.646  1.00  0.00    -0.307 N 
HETATM    4  C   UNL     1     -41.475 -52.498  15.994  1.00  0.00     0.186 A 
HETATM    5  N   UNL     1     -42.361 -51.698  16.481  1.00  0.00    -0.355 N 
HETATM    6  C   UNL     1     -43.631 -52.191  16.648  1.00  0.00     0.017 A 
ATOM      7  HN  UNL     1     -42.127 -50.737  16.732  1.00  0.00     0.166 HD
HETATM    8  C   UNL     1     -44.602 -51.216  17.264  1.00  0.00     0.069 C 
HETATM    9  C   UNL     1     -44.005 -53.438  16.302  1.00  0.00     0.028 A 
HETATM   10  C   UNL     1     -42.967 -54.332  15.723  1.00  0.00     0.256 A 
HETATM   11  C   UNL     1     -45.391 -53.982  16.468  1.00  0.00     0.056 C 
HETATM   12  O   UNL     1     -43.239 -55.473  15.356  1.00  0.00    -0.267 OA
ENDBRANCH   2   3
ENDBRANCH   1   2
BRANCH   1  13
HETATM   13  O   UNL     1     -38.810 -54.850  13.533  1.00  0.00    -0.392 OA
HETATM   14  H   UNL     1     -38.027 -54.279  13.603  1.00  0.00     0.210 HD
ENDBRANCH   1  13
BRANCH   1  15
HETATM   15  C   UNL     1     -41.010 -54.153  12.694  1.00  0.00     0.209 C 
BRANCH  15  16
HETATM   16  O   UNL     1     -41.137 -52.870  12.072  1.00  0.00    -0.349 OA
BRANCH  16  17
HETATM   17  C   UNL     1     -42.153 -52.063  12.508  1.00  0.00     0.069 A 
HETATM   18  C   UNL     1     -42.030 -50.734  12.917  1.00  0.00     0.037 A 
HETATM   19  C   UNL     1     -43.153 -50.019  13.344  1.00  0.00     0.004 A 
HETATM   20  C   UNL     1     -44.407 -50.627  13.370  1.00  0.00     0.016 A 
HETATM   21  C   UNL     1     -44.553 -51.961  12.965  1.00  0.00     0.050 A 
HETATM   22  C   UNL     1     -43.416 -52.666  12.531  1.00  0.00     0.052 A 
BRANCH  21  23
HETATM   23  C   UNL     1     -45.899 -52.641  12.999  1.00  0.00     0.417 C 
HETATM   24  F   UNL     1     -45.823 -53.987  13.207  1.00  0.00    -0.166 F 
HETATM   25  F   UNL     1     -46.707 -52.161  13.984  1.00  0.00    -0.166 F 
HETATM   26  F   UNL     1     -46.592 -52.488  11.836  1.00  0.00    -0.166 F 
ENDBRANCH  21  23
ENDBRANCH  16  17
ENDBRANCH  15  16
ENDBRANCH   1  15
TORSDOF 7
ENDMDL
MODEL 8
REMARK VINA RESULT:      -5.4      2.921      4.345
REMARK  7 active torsions:
REMARK  status: ('A' for Active; 'I' for Inactive)
REMARK    1  A    between atoms: N_6  and  C_7 
REMARK    2  A    between atoms: C_7  and  C_8 
REMARK    3  A    between atoms: C_8  and  O_9 
REMARK    4  A    between atoms: C_8  and  C_10 
REMARK    5  A    between atoms: C_10  and  O_11 
REMARK    6  A    between atoms: O_11  and  C_12 
REMARK    7  A    between atoms: C_16  and  C_18 
ROOT
HETATM    1  C   UNL     1     -40.241 -50.888  11.811  1.00  0.00     0.161 C 
ENDROOT
BRANCH   1   2
HETATM    2  C   UNL     1     -40.641 -49.802  12.827  1.00  0.00     0.166 C 
BRANCH   2   3
HETATM    3  N   UNL     1     -40.441 -48.445  12.323  1.00  0.00    -0.307 N 
HETATM    4  C   UNL     1     -40.830 -48.112  11.054  1.00  0.00     0.186 A 
HETATM    5  N   UNL     1     -40.667 -46.956  10.506  1.00  0.00    -0.355 N 
HETATM    6  C   UNL     1     -40.071 -45.979  11.264  1.00  0.00     0.017 A 
ATOM      7  HN  UNL     1     -40.969 -46.775   9.549  1.00  0.00     0.166 HD
HETATM    8  C   UNL     1     -39.872 -44.668  10.546  1.00  0.00     0.069 C 
HETATM    9  C   UNL     1     -39.685 -46.150  12.543  1.00  0.00     0.028 A 
HETATM   10  C   UNL     1     -39.905 -47.488  13.155  1.00  0.00     0.256 A 
HETATM   11  C   UNL     1     -39.046 -45.088  13.384  1.00  0.00     0.056 C 
HETATM   12  O   UNL     1     -39.605 -47.712  14.326  1.00  0.00    -0.267 OA
ENDBRANCH   2   3
ENDBRANCH   1   2
BRANCH   1  13
HETATM   13  O   UNL     1     -38.894 -51.304  12.088  1.00  0.00    -0.392 OA
HETATM   14  H   UNL     1     -38.608 -50.913  12.931  1.00  0.00     0.210 HD
ENDBRANCH   1  13
BRANCH   1  15
HETATM   15  C   UNL     1     -41.216 -52.080  11.907  1.00  0.00     0.209 C 
BRANCH  15  16
HETATM   16  O   UNL     1     -40.577 -53.180  12.563  1.00  0.00    -0.349 OA
BRANCH  16  17
HETATM   17  C   UNL     1     -41.292 -53.827  13.536  1.00  0.00     0.069 A 
HETATM   18  C   UNL     1     -40.770 -54.389  14.703  1.00  0.00     0.037 A 
HETATM   19  C   UNL     1     -41.614 -55.025  15.618  1.00  0.00     0.004 A 
HETATM   20  C   UNL     1     -42.983 -55.109  15.374  1.00  0.00     0.016 A 
HETATM   21  C   UNL     1     -43.528 -54.553  14.209  1.00  0.00     0.050 A 
HETATM   22  C   UNL     1     -42.669 -53.909  13.300  1.00  0.00     0.052 A 
BRANCH  21  23
HETATM   23  C   UNL     1     -45.005 -54.645  13.919  1.00  0.00     0.417 C 
HETATM   24  F   UNL     1     -45.451 -55.925  13.771  1.00  0.00    -0.166 F 
HETATM   25  F   UNL     1     -45.769 -54.099  14.905  1.00  0.00    -0.166 F 
HETATM   26  F   UNL     1     -45.354 -54.000  12.771  1.00  0.00    -0.166 F 
ENDBRANCH  21  23
ENDBRANCH  16  17
ENDBRANCH  15  16
ENDBRANCH   1  15
TORSDOF 7
ENDMDL
MODEL 9
REMARK VINA RESULT:      -5.4      3.159      4.718
REMARK  7 active torsions:
REMARK  status: ('A' for Active; 'I' for Inactive)
REMARK    1  A    between atoms: N_6  and  C_7 
REMARK    2  A    between atoms: C_7  and  C_8 
REMARK    3  A    between atoms: C_8  and  O_9 
REMARK    4  A    between atoms: C_8  and  C_10 
REMARK    5  A    between atoms: C_10  and  O_11 
REMARK    6  A    between atoms: O_11  and  C_12 
REMARK    7  A    between atoms: C_16  and  C_18 
ROOT
HETATM    1  C   UNL     1     -46.431 -54.352  14.721  1.00  0.00     0.161 C 
ENDROOT
BRANCH   1   2
HETATM    2  C   UNL     1     -46.491 -53.084  13.849  1.00  0.00     0.166 C 
BRANCH   2   3
HETATM    3  N   UNL     1     -45.173 -52.616  13.428  1.00  0.00    -0.307 N 
HETATM    4  C   UNL     1     -44.494 -53.261  12.430  1.00  0.00     0.186 A 
HETATM    5  N   UNL     1     -43.315 -52.949  12.011  1.00  0.00    -0.355 N 
HETATM    6  C   UNL     1     -42.701 -51.872  12.603  1.00  0.00     0.017 A 
ATOM      7  HN  UNL     1     -42.857 -53.479  11.270  1.00  0.00     0.166 HD
HETATM    8  C   UNL     1     -41.310 -51.592  12.096  1.00  0.00     0.069 C 
HETATM    9  C   UNL     1     -43.271 -51.114  13.559  1.00  0.00     0.028 A 
HETATM   10  C   UNL     1     -44.640 -51.487  14.007  1.00  0.00     0.256 A 
HETATM   11  C   UNL     1     -42.617 -49.930  14.202  1.00  0.00     0.056 C 
HETATM   12  O   UNL     1     -45.236 -50.825  14.855  1.00  0.00    -0.267 OA
ENDBRANCH   2   3
ENDBRANCH   1   2
BRANCH   1  13
HETATM   13  O   UNL     1     -45.894 -55.427  13.933  1.00  0.00    -0.392 OA
HETATM   14  H   UNL     1     -44.976 -55.591  14.205  1.00  0.00     0.210 HD
ENDBRANCH   1  13
BRANCH   1  15
HETATM   15  C   UNL     1     -45.557 -54.091  15.966  1.00  0.00     0.209 C 
BRANCH  15  16
HETATM   16  O   UNL     1     -44.335 -54.829  15.866  1.00  0.00    -0.349 OA
BRANCH  16  17
HETATM   17  C   UNL     1     -43.167 -54.121  15.975  1.00  0.00     0.069 A 
HETATM   18  C   UNL     1     -42.919 -53.075  16.865  1.00  0.00     0.037 A 
HETATM   19  C   UNL     1     -41.678 -52.433  16.871  1.00  0.00     0.004 A 
HETATM   20  C   UNL     1     -40.676 -52.826  15.986  1.00  0.00     0.016 A 
HETATM   21  C   UNL     1     -40.904 -53.873  15.083  1.00  0.00     0.050 A 
HETATM   22  C   UNL     1     -42.155 -54.516  15.092  1.00  0.00     0.052 A 
BRANCH  21  23
HETATM   23  C   UNL     1     -39.838 -54.305  14.106  1.00  0.00     0.417 C 
HETATM   24  F   UNL     1     -39.100 -55.365  14.542  1.00  0.00    -0.166 F 
HETATM   25  F   UNL     1     -40.350 -54.681  12.902  1.00  0.00    -0.166 F 
HETATM   26  F   UNL     1     -38.940 -53.316  13.842  1.00  0.00    -0.166 F 
ENDBRANCH  21  23
ENDBRANCH  16  17
ENDBRANCH  15  16
ENDBRANCH   1  15
TORSDOF 7
ENDMDL
