MODEL 1
REMARK VINA RESULT:      -6.4      0.000      0.000
REMARK  6 active torsions:
REMARK  status: ('A' for Active; 'I' for Inactive)
REMARK    1  A    between atoms: C_2  and  N_3 
REMARK    2  A    between atoms: C_9  and  C_10 
REMARK    3  A    between atoms: C_10  and  C_11 
REMARK    4  A    between atoms: C_11  and  N_12 
REMARK       I    between atoms: N_12  and  C_13 
REMARK    5  A    between atoms: C_13  and  C_15 
REMARK    6  A    between atoms: C_15  and  N_17 
ROOT
HETATM    1  N   UNL     1     -41.833 -50.865  11.813  1.00  0.00    -0.359 N 
HETATM    2  C   UNL     1     -41.609 -52.175  12.174  1.00  0.00     0.251 C 
HETATM    3  O   UNL     1     -40.494 -52.689  12.060  1.00  0.00    -0.271 OA
HETATM    4  H   UNL     1     -42.782 -50.528  11.717  1.00  0.00     0.162 HD
ENDROOT
BRANCH   1   5
HETATM    5  C   UNL     1     -40.767 -50.009  11.317  1.00  0.00     0.130 C 
BRANCH   5   6
HETATM    6  C   UNL     1     -40.588 -48.698  12.094  1.00  0.00     0.098 C 
BRANCH   6   7
HETATM    7  C   UNL     1     -40.851 -47.497  11.253  1.00  0.00     0.100 A 
HETATM    8  N   UNL     1     -42.088 -47.030  10.886  1.00  0.00    -0.331 N 
HETATM    9  C   UNL     1     -41.858 -45.939  10.100  1.00  0.00     0.201 A 
HETATM   10  N   UNL     1     -40.569 -45.736   9.991  1.00  0.00    -0.295 N 
HETATM   11  N   UNL     1     -39.934 -46.719  10.708  1.00  0.00    -0.288 N 
ATOM     12  HN  UNL     1     -40.118 -44.985   9.469  1.00  0.00     0.187 HD
ATOM     13  HN  UNL     1     -38.925 -46.830  10.804  1.00  0.00     0.188 HD
BRANCH   8  14
HETATM   14  C   UNL     1     -43.401 -47.519  11.248  1.00  0.00     0.126 C 
HETATM   15  C   UNL     1     -44.392 -47.457  10.098  1.00  0.00     0.027 C 
ENDBRANCH   8  14
ENDBRANCH   6   7
ENDBRANCH   5   6
ENDBRANCH   1   5
BRANCH   2  16
HETATM   16  C   UNL     1     -42.825 -52.989  12.679  1.00  0.00     0.310 C 
HETATM   17  C   UNL     1     -42.431 -54.157  13.588  1.00  0.00     0.053 C 
BRANCH  16  18
HETATM   18  N   UNL     1     -43.926 -52.133  13.220  1.00  0.00     0.101 N 
HETATM   19  C   UNL     1     -43.811 -52.013  14.683  1.00  0.00     0.273 C 
HETATM   20  C   UNL     1     -44.521 -50.781  15.247  1.00  0.00     0.030 C 
HETATM   21  C   UNL     1     -45.980 -51.010  15.624  1.00  0.00     0.002 C 
HETATM   22  C   UNL     1     -46.784 -51.869  14.660  1.00  0.00     0.002 C 
HETATM   23  C   UNL     1     -46.438 -51.636  13.195  1.00  0.00     0.030 C 
HETATM   24  C   UNL     1     -45.255 -52.491  12.716  1.00  0.00     0.273 C 
ENDBRANCH  16  18
ENDBRANCH   2  16
TORSDOF 6
ENDMDL
MODEL 2
REMARK VINA RESULT:      -6.4      0.952      1.569
REMARK  6 active torsions:
REMARK  status: ('A' for Active; 'I' for Inactive)
REMARK    1  A    between atoms: C_2  and  N_3 
REMARK    2  A    between atoms: C_9  and  C_10 
REMARK    3  A    between atoms: C_10  and  C_11 
REMARK    4  A    between atoms: C_11  and  N_12 
REMARK       I    between atoms: N_12  and  C_13 
REMARK    5  A    between atoms: C_13  and  C_15 
REMARK    6  A    between atoms: C_15  and  N_17 
ROOT
HETATM    1  N   UNL     1     -41.774 -50.909  11.788  1.00  0.00    -0.359 N 
HETATM    2  C   UNL     1     -41.565 -52.207  12.195  1.00  0.00     0.251 C 
HETATM    3  O   UNL     1     -40.449 -52.727  12.132  1.00  0.00    -0.271 OA
HETATM    4  H   UNL     1     -42.719 -50.572  11.653  1.00  0.00     0.162 HD
ENDROOT
BRANCH   1   5
HETATM    5  C   UNL     1     -40.692 -50.071  11.298  1.00  0.00     0.130 C 
BRANCH   5   6
HETATM    6  C   UNL     1     -40.787 -48.596  11.715  1.00  0.00     0.098 C 
BRANCH   6   7
HETATM    7  C   UNL     1     -41.530 -47.771  10.722  1.00  0.00     0.100 A 
HETATM    8  N   UNL     1     -41.854 -46.445  10.864  1.00  0.00    -0.331 N 
HETATM    9  C   UNL     1     -42.552 -46.108   9.742  1.00  0.00     0.201 A 
HETATM   10  N   UNL     1     -42.650 -47.149   8.953  1.00  0.00    -0.295 N 
HETATM   11  N   UNL     1     -42.015 -48.197   9.571  1.00  0.00    -0.288 N 
ATOM     12  HN  UNL     1     -43.113 -47.177   8.045  1.00  0.00     0.187 HD
ATOM     13  HN  UNL     1     -41.933 -49.145   9.204  1.00  0.00     0.188 HD
BRANCH   8  14
HETATM   14  C   UNL     1     -41.526 -45.526  11.933  1.00  0.00     0.126 C 
HETATM   15  C   UNL     1     -40.405 -44.569  11.567  1.00  0.00     0.027 C 
ENDBRANCH   8  14
ENDBRANCH   6   7
ENDBRANCH   5   6
ENDBRANCH   1   5
BRANCH   2  16
HETATM   16  C   UNL     1     -42.799 -53.002  12.689  1.00  0.00     0.310 C 
HETATM   17  C   UNL     1     -42.430 -54.186  13.588  1.00  0.00     0.053 C 
BRANCH  16  18
HETATM   18  N   UNL     1     -43.885 -52.130  13.235  1.00  0.00     0.101 N 
HETATM   19  C   UNL     1     -43.769 -52.021  14.699  1.00  0.00     0.273 C 
HETATM   20  C   UNL     1     -44.457 -50.781  15.270  1.00  0.00     0.030 C 
HETATM   21  C   UNL     1     -45.920 -50.986  15.644  1.00  0.00     0.002 C 
HETATM   22  C   UNL     1     -46.738 -51.825  14.674  1.00  0.00     0.002 C 
HETATM   23  C   UNL     1     -46.387 -51.590  13.211  1.00  0.00     0.030 C 
HETATM   24  C   UNL     1     -45.220 -52.462  12.728  1.00  0.00     0.273 C 
ENDBRANCH  16  18
ENDBRANCH   2  16
TORSDOF 6
ENDMDL
MODEL 3
REMARK VINA RESULT:      -6.2      1.932      2.406
REMARK  6 active torsions:
REMARK  status: ('A' for Active; 'I' for Inactive)
REMARK    1  A    between atoms: C_2  and  N_3 
REMARK    2  A    between atoms: C_9  and  C_10 
REMARK    3  A    between atoms: C_10  and  C_11 
REMARK    4  A    between atoms: C_11  and  N_12 
REMARK       I    between atoms: N_12  and  C_13 
REMARK    5  A    between atoms: C_13  and  C_15 
REMARK    6  A    between atoms: C_15  and  N_17 
ROOT
HETATM    1  N   UNL     1     -40.364 -52.399  14.165  1.00  0.00    -0.359 N 
HETATM    2  C   UNL     1     -41.022 -53.160  13.225  1.00  0.00     0.251 C 
HETATM    3  O   UNL     1     -40.591 -53.274  12.076  1.00  0.00    -0.271 OA
HETATM    4  H   UNL     1     -40.833 -52.151  15.026  1.00  0.00     0.162 HD
ENDROOT
BRANCH   1   5
HETATM    5  C   UNL     1     -39.112 -51.722  13.868  1.00  0.00     0.130 C 
BRANCH   5   6
HETATM    6  C   UNL     1     -39.235 -50.203  13.687  1.00  0.00     0.098 C 
BRANCH   6   7
HETATM    7  C   UNL     1     -39.885 -49.833  12.399  1.00  0.00     0.100 A 
HETATM    8  N   UNL     1     -40.809 -48.833  12.226  1.00  0.00    -0.331 N 
HETATM    9  C   UNL     1     -41.154 -48.867  10.907  1.00  0.00     0.201 A 
HETATM   10  N   UNL     1     -40.486 -49.816  10.299  1.00  0.00    -0.295 N 
HETATM   11  N   UNL     1     -39.694 -50.429  11.237  1.00  0.00    -0.288 N 
ATOM     12  HN  UNL     1     -40.543 -50.056   9.310  1.00  0.00     0.187 HD
ATOM     13  HN  UNL     1     -39.065 -51.214  11.066  1.00  0.00     0.188 HD
BRANCH   8  14
HETATM   14  C   UNL     1     -41.328 -47.883  13.186  1.00  0.00     0.126 C 
HETATM   15  C   UNL     1     -42.710 -48.254  13.697  1.00  0.00     0.027 C 
ENDBRANCH   8  14
ENDBRANCH   6   7
ENDBRANCH   5   6
ENDBRANCH   1   5
BRANCH   2  16
HETATM   16  C   UNL     1     -42.353 -53.824  13.657  1.00  0.00     0.310 C 
HETATM   17  C   UNL     1     -42.242 -54.585  14.982  1.00  0.00     0.053 C 
BRANCH  16  18
HETATM   18  N   UNL     1     -43.528 -52.902  13.573  1.00  0.00     0.101 N 
HETATM   19  C   UNL     1     -43.957 -52.493  14.921  1.00  0.00     0.273 C 
HETATM   20  C   UNL     1     -44.757 -51.190  14.932  1.00  0.00     0.030 C 
HETATM   21  C   UNL     1     -46.262 -51.372  14.773  1.00  0.00     0.002 C 
HETATM   22  C   UNL     1     -46.697 -52.422  13.761  1.00  0.00     0.002 C 
HETATM   23  C   UNL     1     -45.821 -52.477  12.517  1.00  0.00     0.030 C 
HETATM   24  C   UNL     1     -44.593 -53.382  12.688  1.00  0.00     0.273 C 
ENDBRANCH  16  18
ENDBRANCH   2  16
TORSDOF 6
ENDMDL
MODEL 4
REMARK VINA RESULT:      -6.0      2.895      4.148
REMARK  6 active torsions:
REMARK  status: ('A' for Active; 'I' for Inactive)
REMARK    1  A    between atoms: C_2  and  N_3 
REMARK    2  A    between atoms: C_9  and  C_10 
REMARK    3  A    between atoms: C_10  and  C_11 
REMARK    4  A    between atoms: C_11  and  N_12 
REMARK       I    between atoms: N_12  and  C_13 
REMARK    5  A    between atoms: C_13  and  C_15 
REMARK    6  A    between atoms: C_15  and  N_17 
ROOT
HETATM    1  N   UNL     1     -42.672 -54.282  13.506  1.00  0.00    -0.359 N 
HETATM    2  C   UNL     1     -43.765 -53.707  12.898  1.00  0.00     0.251 C 
HETATM    3  O   UNL     1     -43.644 -53.006  11.891  1.00  0.00    -0.271 OA
HETATM    4  H   UNL     1     -42.764 -54.673  14.434  1.00  0.00     0.162 HD
ENDROOT
BRANCH   1   5
HETATM    5  C   UNL     1     -41.327 -54.128  12.976  1.00  0.00     0.130 C 
BRANCH   5   6
HETATM    6  C   UNL     1     -40.550 -52.931  13.543  1.00  0.00     0.098 C 
BRANCH   6   7
HETATM    7  C   UNL     1     -40.402 -51.828  12.553  1.00  0.00     0.100 A 
HETATM    8  N   UNL     1     -39.623 -50.710  12.709  1.00  0.00    -0.331 N 
HETATM    9  C   UNL     1     -39.810 -49.963  11.583  1.00  0.00     0.201 A 
HETATM   10  N   UNL     1     -40.642 -50.577  10.778  1.00  0.00    -0.295 N 
HETATM   11  N   UNL     1     -41.021 -51.745  11.390  1.00  0.00    -0.288 N 
ATOM     12  HN  UNL     1     -40.951 -50.247   9.864  1.00  0.00     0.187 HD
ATOM     13  HN  UNL     1     -41.672 -52.433  11.010  1.00  0.00     0.188 HD
BRANCH   8  14
HETATM   14  C   UNL     1     -38.737 -50.350  13.795  1.00  0.00     0.126 C 
HETATM   15  C   UNL     1     -37.291 -50.735  13.530  1.00  0.00     0.027 C 
ENDBRANCH   8  14
ENDBRANCH   6   7
ENDBRANCH   5   6
ENDBRANCH   1   5
BRANCH   2  16
HETATM   16  C   UNL     1     -45.146 -53.933  13.562  1.00  0.00     0.310 C 
HETATM   17  C   UNL     1     -45.434 -55.408  13.862  1.00  0.00     0.053 C 
BRANCH  16  18
HETATM   18  N   UNL     1     -45.409 -53.010  14.710  1.00  0.00     0.101 N 
HETATM   19  C   UNL     1     -45.278 -53.729  15.988  1.00  0.00     0.273 C 
HETATM   20  C   UNL     1     -45.000 -52.806  17.175  1.00  0.00     0.030 C 
HETATM   21  C   UNL     1     -46.249 -52.284  17.876  1.00  0.00     0.002 C 
HETATM   22  C   UNL     1     -47.397 -51.881  16.963  1.00  0.00     0.002 C 
HETATM   23  C   UNL     1     -46.950 -51.206  15.673  1.00  0.00     0.030 C 
HETATM   24  C   UNL     1     -46.626 -52.208  14.555  1.00  0.00     0.273 C 
ENDBRANCH  16  18
ENDBRANCH   2  16
TORSDOF 6
ENDMDL
MODEL 5
REMARK VINA RESULT:      -5.7      3.937      5.326
REMARK  6 active torsions:
REMARK  status: ('A' for Active; 'I' for Inactive)
REMARK    1  A    between atoms: C_2  and  N_3 
REMARK    2  A    between atoms: C_9  and  C_10 
REMARK    3  A    between atoms: C_10  and  C_11 
REMARK    4  A    between atoms: C_11  and  N_12 
REMARK       I    between atoms: N_12  and  C_13 
REMARK    5  A    between atoms: C_13  and  C_15 
REMARK    6  A    between atoms: C_15  and  N_17 
ROOT
HETATM    1  N   UNL     1     -41.506 -54.184  15.826  1.00  0.00    -0.359 N 
HETATM    2  C   UNL     1     -42.542 -55.048  16.102  1.00  0.00     0.251 C 
HETATM    3  O   UNL     1     -42.343 -56.251  16.280  1.00  0.00    -0.271 OA
HETATM    4  H   UNL     1     -41.708 -53.254  15.482  1.00  0.00     0.162 HD
ENDROOT
BRANCH   1   5
HETATM    5  C   UNL     1     -40.125 -54.632  15.766  1.00  0.00     0.130 C 
BRANCH   5   6
HETATM    6  C   UNL     1     -39.591 -54.868  14.346  1.00  0.00     0.098 C 
BRANCH   6   7
HETATM    7  C   UNL     1     -40.074 -53.843  13.378  1.00  0.00     0.100 A 
HETATM    8  N   UNL     1     -39.737 -52.513  13.384  1.00  0.00    -0.331 N 
HETATM    9  C   UNL     1     -40.425 -51.948  12.351  1.00  0.00     0.201 A 
HETATM   10  N   UNL     1     -41.134 -52.864  11.739  1.00  0.00    -0.295 N 
HETATM   11  N   UNL     1     -40.921 -54.053  12.388  1.00  0.00    -0.288 N 
ATOM     12  HN  UNL     1     -41.735 -52.719  10.928  1.00  0.00     0.187 HD
ATOM     13  HN  UNL     1     -41.346 -54.949  12.147  1.00  0.00     0.188 HD
BRANCH   8  14
HETATM   14  C   UNL     1     -38.825 -51.798  14.251  1.00  0.00     0.126 C 
HETATM   15  C   UNL     1     -37.822 -50.953  13.485  1.00  0.00     0.027 C 
ENDBRANCH   8  14
ENDBRANCH   6   7
ENDBRANCH   5   6
ENDBRANCH   1   5
BRANCH   2  16
HETATM   16  C   UNL     1     -43.972 -54.454  16.129  1.00  0.00     0.310 C 
HETATM   17  C   UNL     1     -44.377 -53.926  17.509  1.00  0.00     0.053 C 
BRANCH  16  18
HETATM   18  N   UNL     1     -44.239 -53.504  15.004  1.00  0.00     0.101 N 
HETATM   19  C   UNL     1     -45.328 -52.579  15.361  1.00  0.00     0.273 C 
HETATM   20  C   UNL     1     -45.313 -51.285  14.546  1.00  0.00     0.030 C 
HETATM   21  C   UNL     1     -46.115 -51.345  13.251  1.00  0.00     0.002 C 
HETATM   22  C   UNL     1     -45.998 -52.640  12.462  1.00  0.00     0.002 C 
HETATM   23  C   UNL     1     -44.603 -53.249  12.483  1.00  0.00     0.030 C 
HETATM   24  C   UNL     1     -44.365 -54.157  13.698  1.00  0.00     0.273 C 
ENDBRANCH  16  18
ENDBRANCH   2  16
TORSDOF 6
ENDMDL
MODEL 6
REMARK VINA RESULT:      -5.6      2.095      2.808
REMARK  6 active torsions:
REMARK  status: ('A' for Active; 'I' for Inactive)
REMARK    1  A    between atoms: C_2  and  N_3 
REMARK    2  A    between atoms: C_9  and  C_10 
REMARK    3  A    between atoms: C_10  and  C_11 
REMARK    4  A    between atoms: C_11  and  N_12 
REMARK       I    between atoms: N_12  and  C_13 
REMARK    5  A    between atoms: C_13  and  C_15 
REMARK    6  A    between atoms: C_15  and  N_17 
ROOT
HETATM    1  N   UNL     1     -40.254 -52.082  13.416  1.00  0.00    -0.359 N 
HETATM    2  C   UNL     1     -41.004 -52.429  14.516  1.00  0.00     0.251 C 
HETATM    3  O   UNL     1     -40.712 -52.029  15.644  1.00  0.00    -0.271 OA
HETATM    4  H   UNL     1     -40.382 -52.580  12.544  1.00  0.00     0.162 HD
ENDROOT
BRANCH   1   5
HETATM    5  C   UNL     1     -39.103 -51.198  13.516  1.00  0.00     0.130 C 
BRANCH   5   6
HETATM    6  C   UNL     1     -38.621 -50.624  12.176  1.00  0.00     0.098 C 
BRANCH   6   7
HETATM    7  C   UNL     1     -39.636 -49.739  11.538  1.00  0.00     0.100 A 
HETATM    8  N   UNL     1     -39.936 -48.456  11.921  1.00  0.00    -0.331 N 
HETATM    9  C   UNL     1     -40.933 -48.041  11.089  1.00  0.00     0.201 A 
HETATM   10  N   UNL     1     -41.228 -48.995  10.241  1.00  0.00    -0.295 N 
HETATM   11  N   UNL     1     -40.419 -50.066  10.527  1.00  0.00    -0.288 N 
ATOM     12  HN  UNL     1     -41.930 -48.950   9.503  1.00  0.00     0.187 HD
ATOM     13  HN  UNL     1     -40.423 -50.962  10.041  1.00  0.00     0.188 HD
BRANCH   8  14
HETATM   14  C   UNL     1     -39.338 -47.641  12.957  1.00  0.00     0.126 C 
HETATM   15  C   UNL     1     -39.720 -46.175  12.848  1.00  0.00     0.027 C 
ENDBRANCH   8  14
ENDBRANCH   6   7
ENDBRANCH   5   6
ENDBRANCH   1   5
BRANCH   2  16
HETATM   16  C   UNL     1     -42.201 -53.386  14.284  1.00  0.00     0.310 C 
HETATM   17  C   UNL     1     -42.031 -54.740  14.980  1.00  0.00     0.053 C 
BRANCH  16  18
HETATM   18  N   UNL     1     -43.529 -52.737  14.516  1.00  0.00     0.101 N 
HETATM   19  C   UNL     1     -44.541 -53.749  14.862  1.00  0.00     0.273 C 
HETATM   20  C   UNL     1     -45.740 -53.172  15.616  1.00  0.00     0.030 C 
HETATM   21  C   UNL     1     -46.877 -52.692  14.721  1.00  0.00     0.002 C 
HETATM   22  C   UNL     1     -46.458 -51.956  13.458  1.00  0.00     0.002 C 
HETATM   23  C   UNL     1     -45.248 -51.050  13.647  1.00  0.00     0.030 C 
HETATM   24  C   UNL     1     -43.914 -51.788  13.467  1.00  0.00     0.273 C 
ENDBRANCH  16  18
ENDBRANCH   2  16
TORSDOF 6
ENDMDL
MODEL 7
REMARK VINA RESULT:      -5.5      2.485      3.487
REMARK  6 active torsions:
REMARK  status: ('A' for Active; 'I' for Inactive)
REMARK    1  A    between atoms: C_2  and  N_3 
REMARK    2  A    between atoms: C_9  and  C_10 
REMARK    3  A    between atoms: C_10  and  C_11 
REMARK    4  A    between atoms: C_11  and  N_12 
REMARK       I    between atoms: N_12  and  C_13 
REMARK    5  A    between atoms: C_13  and  C_15 
REMARK    6  A    between atoms: C_15  and  N_17 
ROOT
HETATM    1  N   UNL     1     -38.441 -50.802  14.516  1.00  0.00    -0.359 N 
HETATM    2  C   UNL     1     -39.037 -51.979  14.122  1.00  0.00     0.251 C 
HETATM    3  O   UNL     1     -38.925 -52.400  12.968  1.00  0.00    -0.271 OA
HETATM    4  H   UNL     1     -38.711 -50.373  15.391  1.00  0.00     0.162 HD
ENDROOT
BRANCH   1   5
HETATM    5  C   UNL     1     -37.622 -50.013  13.611  1.00  0.00     0.130 C 
BRANCH   5   6
HETATM    6  C   UNL     1     -38.314 -48.764  13.047  1.00  0.00     0.098 C 
BRANCH   6   7
HETATM    7  C   UNL     1     -39.381 -49.099  12.064  1.00  0.00     0.100 A 
HETATM    8  N   UNL     1     -40.683 -48.666  12.114  1.00  0.00    -0.331 N 
HETATM    9  C   UNL     1     -41.308 -49.234  11.043  1.00  0.00     0.201 A 
HETATM   10  N   UNL     1     -40.454 -49.963  10.368  1.00  0.00    -0.295 N 
HETATM   11  N   UNL     1     -39.245 -49.886  11.013  1.00  0.00    -0.288 N 
ATOM     12  HN  UNL     1     -40.651 -50.492   9.519  1.00  0.00     0.187 HD
ATOM     13  HN  UNL     1     -38.387 -50.358  10.729  1.00  0.00     0.188 HD
BRANCH   8  14
HETATM   14  C   UNL     1     -41.319 -47.768  13.054  1.00  0.00     0.126 C 
HETATM   15  C   UNL     1     -42.702 -47.327  12.607  1.00  0.00     0.027 C 
ENDBRANCH   8  14
ENDBRANCH   6   7
ENDBRANCH   5   6
ENDBRANCH   1   5
BRANCH   2  16
HETATM   16  C   UNL     1     -39.894 -52.726  15.174  1.00  0.00     0.310 C 
HETATM   17  C   UNL     1     -39.667 -52.221  16.602  1.00  0.00     0.053 C 
BRANCH  16  18
HETATM   18  N   UNL     1     -41.334 -52.846  14.785  1.00  0.00     0.101 N 
HETATM   19  C   UNL     1     -41.618 -54.198  14.276  1.00  0.00     0.273 C 
HETATM   20  C   UNL     1     -43.097 -54.579  14.361  1.00  0.00     0.030 C 
HETATM   21  C   UNL     1     -43.916 -54.208  13.131  1.00  0.00     0.002 C 
HETATM   22  C   UNL     1     -43.602 -52.853  12.513  1.00  0.00     0.002 C 
HETATM   23  C   UNL     1     -43.292 -51.768  13.535  1.00  0.00     0.030 C 
HETATM   24  C   UNL     1     -41.814 -51.741  13.949  1.00  0.00     0.273 C 
ENDBRANCH  16  18
ENDBRANCH   2  16
TORSDOF 6
ENDMDL
MODEL 8
REMARK VINA RESULT:      -5.4      3.043      6.661
REMARK  6 active torsions:
REMARK  status: ('A' for Active; 'I' for Inactive)
REMARK    1  A    between atoms: C_2  and  N_3 
REMARK    2  A    between atoms: C_9  and  C_10 
REMARK    3  A    between atoms: C_10  and  C_11 
REMARK    4  A    between atoms: C_11  and  N_12 
REMARK       I    between atoms: N_12  and  C_13 
REMARK    5  A    between atoms: C_13  and  C_15 
REMARK    6  A    between atoms: C_15  and  N_17 
ROOT
HETATM    1  N   UNL     1     -42.554 -52.920  13.621  1.00  0.00    -0.359 N 
HETATM    2  C   UNL     1     -41.451 -52.960  12.799  1.00  0.00     0.251 C 
HETATM    3  O   UNL     1     -40.840 -54.011  12.596  1.00  0.00    -0.271 OA
HETATM    4  H   UNL     1     -42.911 -52.028  13.937  1.00  0.00     0.162 HD
ENDROOT
BRANCH   1   5
HETATM    5  C   UNL     1     -43.082 -54.114  14.261  1.00  0.00     0.130 C 
BRANCH   5   6
HETATM    6  C   UNL     1     -44.503 -54.498  13.824  1.00  0.00     0.098 C 
BRANCH   6   7
HETATM    7  C   UNL     1     -45.300 -53.321  13.382  1.00  0.00     0.100 A 
HETATM    8  N   UNL     1     -46.041 -52.502  14.197  1.00  0.00    -0.331 N 
HETATM    9  C   UNL     1     -46.624 -51.583  13.375  1.00  0.00     0.201 A 
HETATM   10  N   UNL     1     -46.265 -51.808  12.136  1.00  0.00    -0.295 N 
HETATM   11  N   UNL     1     -45.440 -52.904  12.138  1.00  0.00    -0.288 N 
ATOM     12  HN  UNL     1     -46.547 -51.267  11.319  1.00  0.00     0.187 HD
ATOM     13  HN  UNL     1     -45.008 -53.327  11.316  1.00  0.00     0.188 HD
BRANCH   8  14
HETATM   14  C   UNL     1     -46.191 -52.528  15.637  1.00  0.00     0.126 C 
HETATM   15  C   UNL     1     -47.271 -51.583  16.135  1.00  0.00     0.027 C 
ENDBRANCH   8  14
ENDBRANCH   6   7
ENDBRANCH   5   6
ENDBRANCH   1   5
BRANCH   2  16
HETATM   16  C   UNL     1     -40.978 -51.620  12.183  1.00  0.00     0.310 C 
HETATM   17  C   UNL     1     -42.031 -50.512  12.274  1.00  0.00     0.053 C 
BRANCH  16  18
HETATM   18  N   UNL     1     -39.612 -51.210  12.637  1.00  0.00     0.101 N 
HETATM   19  C   UNL     1     -39.608 -50.958  14.088  1.00  0.00     0.273 C 
HETATM   20  C   UNL     1     -38.217 -51.062  14.715  1.00  0.00     0.030 C 
HETATM   21  C   UNL     1     -37.433 -49.755  14.732  1.00  0.00     0.002 C 
HETATM   22  C   UNL     1     -37.544 -48.902  13.477  1.00  0.00     0.002 C 
HETATM   23  C   UNL     1     -37.587 -49.710  12.186  1.00  0.00     0.030 C 
HETATM   24  C   UNL     1     -39.004 -50.163  11.810  1.00  0.00     0.273 C 
ENDBRANCH  16  18
ENDBRANCH   2  16
TORSDOF 6
ENDMDL
MODEL 9
REMARK VINA RESULT:      -5.3      2.090      3.070
REMARK  6 active torsions:
REMARK  status: ('A' for Active; 'I' for Inactive)
REMARK    1  A    between atoms: C_2  and  N_3 
REMARK    2  A    between atoms: C_9  and  C_10 
REMARK    3  A    between atoms: C_10  and  C_11 
REMARK    4  A    between atoms: C_11  and  N_12 
REMARK       I    between atoms: N_12  and  C_13 
REMARK    5  A    between atoms: C_13  and  C_15 
REMARK    6  A    between atoms: C_15  and  N_17 
ROOT
HETATM    1  N   UNL     1     -40.205 -51.396  11.972  1.00  0.00    -0.359 N 
HETATM    2  C   UNL     1     -40.469 -52.040  13.159  1.00  0.00     0.251 C 
HETATM    3  O   UNL     1     -40.642 -51.411  14.205  1.00  0.00    -0.271 OA
HETATM    4  H   UNL     1     -39.864 -51.926  11.179  1.00  0.00     0.162 HD
ENDROOT
BRANCH   1   5
HETATM    5  C   UNL     1     -40.152 -49.946  11.877  1.00  0.00     0.130 C 
BRANCH   5   6
HETATM    6  C   UNL     1     -40.779 -49.367  10.601  1.00  0.00     0.098 C 
BRANCH   6   7
HETATM    7  C   UNL     1     -41.695 -48.227  10.884  1.00  0.00     0.100 A 
HETATM    8  N   UNL     1     -41.319 -46.918  11.055  1.00  0.00    -0.331 N 
HETATM    9  C   UNL     1     -42.466 -46.230  11.322  1.00  0.00     0.201 A 
HETATM   10  N   UNL     1     -43.487 -47.051  11.310  1.00  0.00    -0.295 N 
HETATM   11  N   UNL     1     -43.003 -48.307  11.043  1.00  0.00    -0.288 N 
ATOM     12  HN  UNL     1     -44.462 -46.802  11.470  1.00  0.00     0.187 HD
ATOM     13  HN  UNL     1     -43.560 -49.159  10.979  1.00  0.00     0.188 HD
BRANCH   8  14
HETATM   14  C   UNL     1     -40.006 -46.318  10.954  1.00  0.00     0.126 C 
HETATM   15  C   UNL     1     -40.053 -44.866  10.508  1.00  0.00     0.027 C 
ENDBRANCH   8  14
ENDBRANCH   6   7
ENDBRANCH   5   6
ENDBRANCH   1   5
BRANCH   2  16
HETATM   16  C   UNL     1     -40.490 -53.589  13.136  1.00  0.00     0.310 C 
HETATM   17  C   UNL     1     -39.374 -54.217  13.977  1.00  0.00     0.053 C 
BRANCH  16  18
HETATM   18  N   UNL     1     -41.848 -54.166  13.385  1.00  0.00     0.101 N 
HETATM   19  C   UNL     1     -42.889 -53.282  12.834  1.00  0.00     0.273 C 
HETATM   20  C   UNL     1     -44.211 -54.003  12.562  1.00  0.00     0.030 C 
HETATM   21  C   UNL     1     -45.180 -54.009  13.738  1.00  0.00     0.002 C 
HETATM   22  C   UNL     1     -44.557 -54.239  15.106  1.00  0.00     0.002 C 
HETATM   23  C   UNL     1     -43.413 -55.245  15.100  1.00  0.00     0.030 C 
HETATM   24  C   UNL     1     -42.057 -54.607  14.768  1.00  0.00     0.273 C 
ENDBRANCH  16  18
ENDBRANCH   2  16
TORSDOF 6
ENDMDL
