MODEL 1
REMARK VINA RESULT:      -6.5      0.000      0.000
REMARK  8 active torsions:
REMARK  status: ('A' for Active; 'I' for Inactive)
REMARK    1  A    between atoms: O_1  and  C_2 
REMARK    2  A    between atoms: C_2  and  C_3 
REMARK    3  A    between atoms: N_12  and  C_13 
REMARK    4  A    between atoms: C_13  and  C_14 
REMARK    5  A    between atoms: C_14  and  O_15 
REMARK    6  A    between atoms: C_14  and  C_16 
REMARK    7  A    between atoms: C_16  and  O_17 
REMARK    8  A    between atoms: O_17  and  C_18 
ROOT
HETATM    1  C   UNL     1     -39.445 -49.462  12.032  1.00  0.00     0.108 A 
HETATM    2  N   UNL     1     -39.398 -48.293  11.425  1.00  0.00    -0.342 N 
ATOM      3  HN  UNL     1     -38.563 -47.787  11.130  1.00  0.00     0.167 HD
HETATM    4  C   UNL     1     -40.696 -47.898  11.273  1.00  0.00     0.060 A 
HETATM    5  C   UNL     1     -41.190 -46.731  10.664  1.00  0.00     0.032 A 
HETATM    6  C   UNL     1     -42.568 -46.515  10.613  1.00  0.00     0.002 A 
HETATM    7  C   UNL     1     -43.442 -47.437  11.176  1.00  0.00     0.002 A 
HETATM    8  C   UNL     1     -42.966 -48.600  11.793  1.00  0.00     0.032 A 
HETATM    9  C   UNL     1     -41.579 -48.829  11.821  1.00  0.00     0.062 A 
HETATM   10  N   UNL     1     -40.761 -49.843  12.281  1.00  0.00    -0.330 N 
ENDROOT
BRANCH  10  11
HETATM   11  C   UNL     1     -41.107 -51.119  12.901  1.00  0.00     0.164 C 
BRANCH  11  12
HETATM   12  C   UNL     1     -41.604 -52.265  12.007  1.00  0.00     0.160 C 
BRANCH  12  13
HETATM   13  O   UNL     1     -40.526 -53.080  11.527  1.00  0.00    -0.392 OA
HETATM   14  H   UNL     1     -40.292 -53.731  12.213  1.00  0.00     0.210 HD
ENDBRANCH  12  13
BRANCH  12  15
HETATM   15  C   UNL     1     -42.579 -53.199  12.728  1.00  0.00     0.209 C 
BRANCH  15  16
HETATM   16  O   UNL     1     -43.881 -53.054  12.173  1.00  0.00    -0.349 OA
BRANCH  16  17
HETATM   17  C   UNL     1     -44.892 -52.937  13.088  1.00  0.00     0.068 A 
HETATM   18  C   UNL     1     -45.442 -51.660  13.205  1.00  0.00     0.037 A 
HETATM   19  C   UNL     1     -46.485 -51.423  14.098  1.00  0.00     0.003 A 
HETATM   20  C   UNL     1     -46.996 -52.469  14.864  1.00  0.00     0.000 A 
HETATM   21  C   UNL     1     -46.466 -53.751  14.732  1.00  0.00     0.003 A 
HETATM   22  C   UNL     1     -45.417 -53.987  13.844  1.00  0.00     0.037 A 
ENDBRANCH  16  17
ENDBRANCH  15  16
ENDBRANCH  12  15
ENDBRANCH  11  12
ENDBRANCH  10  11
BRANCH   1  23
HETATM   23  C   UNL     1     -38.239 -50.249  12.424  1.00  0.00     0.240 C 
BRANCH  23  24
HETATM   24  O   UNL     1     -37.981 -51.213  11.409  1.00  0.00    -0.393 OA
HETATM   25  H   UNL     1     -37.035 -51.136  11.198  1.00  0.00     0.209 HD
ENDBRANCH  23  24
ENDBRANCH   1  23
TORSDOF 8
ENDMDL
MODEL 2
REMARK VINA RESULT:      -6.5      2.806      5.096
REMARK  8 active torsions:
REMARK  status: ('A' for Active; 'I' for Inactive)
REMARK    1  A    between atoms: O_1  and  C_2 
REMARK    2  A    between atoms: C_2  and  C_3 
REMARK    3  A    between atoms: N_12  and  C_13 
REMARK    4  A    between atoms: C_13  and  C_14 
REMARK    5  A    between atoms: C_14  and  O_15 
REMARK    6  A    between atoms: C_14  and  C_16 
REMARK    7  A    between atoms: C_16  and  O_17 
REMARK    8  A    between atoms: O_17  and  C_18 
ROOT
HETATM    1  C   UNL     1     -40.711 -53.829  13.982  1.00  0.00     0.108 A 
HETATM    2  N   UNL     1     -41.429 -54.501  14.860  1.00  0.00    -0.342 N 
ATOM      3  HN  UNL     1     -41.097 -54.936  15.722  1.00  0.00     0.167 HD
HETATM    4  C   UNL     1     -42.708 -54.497  14.380  1.00  0.00     0.060 A 
HETATM    5  C   UNL     1     -43.860 -55.058  14.956  1.00  0.00     0.032 A 
HETATM    6  C   UNL     1     -45.083 -54.940  14.294  1.00  0.00     0.002 A 
HETATM    7  C   UNL     1     -45.157 -54.289  13.070  1.00  0.00     0.002 A 
HETATM    8  C   UNL     1     -44.016 -53.731  12.479  1.00  0.00     0.032 A 
HETATM    9  C   UNL     1     -42.790 -53.828  13.158  1.00  0.00     0.062 A 
HETATM   10  N   UNL     1     -41.502 -53.381  12.929  1.00  0.00    -0.330 N 
ENDROOT
BRANCH  10  11
HETATM   11  C   UNL     1     -40.973 -52.568  11.837  1.00  0.00     0.164 C 
BRANCH  11  12
HETATM   12  C   UNL     1     -40.852 -51.050  12.037  1.00  0.00     0.160 C 
BRANCH  12  13
HETATM   13  O   UNL     1     -40.465 -50.376  10.832  1.00  0.00    -0.392 OA
HETATM   14  H   UNL     1     -39.873 -49.637  11.059  1.00  0.00     0.210 HD
ENDBRANCH  12  13
BRANCH  12  15
HETATM   15  C   UNL     1     -42.161 -50.407  12.502  1.00  0.00     0.209 C 
BRANCH  15  16
HETATM   16  O   UNL     1     -42.052 -50.034  13.871  1.00  0.00    -0.349 OA
BRANCH  16  17
HETATM   17  C   UNL     1     -42.990 -50.587  14.700  1.00  0.00     0.068 A 
HETATM   18  C   UNL     1     -44.296 -50.576  14.210  1.00  0.00     0.037 A 
HETATM   19  C   UNL     1     -45.335 -51.122  14.961  1.00  0.00     0.003 A 
HETATM   20  C   UNL     1     -45.066 -51.699  16.201  1.00  0.00     0.000 A 
HETATM   21  C   UNL     1     -43.760 -51.735  16.684  1.00  0.00     0.003 A 
HETATM   22  C   UNL     1     -42.722 -51.181  15.934  1.00  0.00     0.037 A 
ENDBRANCH  16  17
ENDBRANCH  15  16
ENDBRANCH  12  15
ENDBRANCH  11  12
ENDBRANCH  10  11
BRANCH   1  23
HETATM   23  C   UNL     1     -39.238 -53.613  14.098  1.00  0.00     0.240 C 
BRANCH  23  24
HETATM   24  O   UNL     1     -38.574 -54.676  13.424  1.00  0.00    -0.393 OA
HETATM   25  H   UNL     1     -38.814 -55.489  13.899  1.00  0.00     0.209 HD
ENDBRANCH  23  24
ENDBRANCH   1  23
TORSDOF 8
ENDMDL
MODEL 3
REMARK VINA RESULT:      -6.1      2.881      4.200
REMARK  8 active torsions:
REMARK  status: ('A' for Active; 'I' for Inactive)
REMARK    1  A    between atoms: O_1  and  C_2 
REMARK    2  A    between atoms: C_2  and  C_3 
REMARK    3  A    between atoms: N_12  and  C_13 
REMARK    4  A    between atoms: C_13  and  C_14 
REMARK    5  A    between atoms: C_14  and  O_15 
REMARK    6  A    between atoms: C_14  and  C_16 
REMARK    7  A    between atoms: C_16  and  O_17 
REMARK    8  A    between atoms: O_17  and  C_18 
ROOT
HETATM    1  C   UNL     1     -41.679 -52.992  13.549  1.00  0.00     0.108 A 
HETATM    2  N   UNL     1     -41.992 -51.864  12.941  1.00  0.00    -0.342 N 
ATOM      3  HN  UNL     1     -41.856 -51.640  11.955  1.00  0.00     0.167 HD
HETATM    4  C   UNL     1     -42.534 -51.059  13.901  1.00  0.00     0.060 A 
HETATM    5  C   UNL     1     -43.049 -49.759  13.764  1.00  0.00     0.032 A 
HETATM    6  C   UNL     1     -43.561 -49.103  14.885  1.00  0.00     0.002 A 
HETATM    7  C   UNL     1     -43.547 -49.724  16.126  1.00  0.00     0.002 A 
HETATM    8  C   UNL     1     -43.031 -51.017  16.282  1.00  0.00     0.032 A 
HETATM    9  C   UNL     1     -42.538 -51.686  15.148  1.00  0.00     0.062 A 
HETATM   10  N   UNL     1     -42.010 -52.939  14.900  1.00  0.00    -0.330 N 
ENDROOT
BRANCH  10  11
HETATM   11  C   UNL     1     -41.816 -54.070  15.803  1.00  0.00     0.164 C 
BRANCH  11  12
HETATM   12  C   UNL     1     -42.959 -55.080  15.979  1.00  0.00     0.160 C 
BRANCH  12  13
HETATM   13  O   UNL     1     -42.617 -56.129  16.895  1.00  0.00    -0.392 OA
HETATM   14  H   UNL     1     -41.661 -56.306  16.831  1.00  0.00     0.210 HD
ENDBRANCH  12  13
BRANCH  12  15
HETATM   15  C   UNL     1     -44.244 -54.436  16.504  1.00  0.00     0.209 C 
BRANCH  15  16
HETATM   16  O   UNL     1     -45.303 -54.655  15.579  1.00  0.00    -0.349 OA
BRANCH  16  17
HETATM   17  C   UNL     1     -45.656 -53.565  14.832  1.00  0.00     0.068 A 
HETATM   18  C   UNL     1     -45.364 -53.657  13.471  1.00  0.00     0.037 A 
HETATM   19  C   UNL     1     -45.687 -52.612  12.608  1.00  0.00     0.003 A 
HETATM   20  C   UNL     1     -46.324 -51.475  13.103  1.00  0.00     0.000 A 
HETATM   21  C   UNL     1     -46.640 -51.389  14.457  1.00  0.00     0.003 A 
HETATM   22  C   UNL     1     -46.309 -52.432  15.321  1.00  0.00     0.037 A 
ENDBRANCH  16  17
ENDBRANCH  15  16
ENDBRANCH  12  15
ENDBRANCH  11  12
ENDBRANCH  10  11
BRANCH   1  23
HETATM   23  C   UNL     1     -41.027 -54.152  12.873  1.00  0.00     0.240 C 
BRANCH  23  24
HETATM   24  O   UNL     1     -40.510 -53.711  11.622  1.00  0.00    -0.393 OA
HETATM   25  H   UNL     1     -39.549 -53.627  11.742  1.00  0.00     0.209 HD
ENDBRANCH  23  24
ENDBRANCH   1  23
TORSDOF 8
ENDMDL
MODEL 4
REMARK VINA RESULT:      -6.0      2.612      4.462
REMARK  8 active torsions:
REMARK  status: ('A' for Active; 'I' for Inactive)
REMARK    1  A    between atoms: O_1  and  C_2 
REMARK    2  A    between atoms: C_2  and  C_3 
REMARK    3  A    between atoms: N_12  and  C_13 
REMARK    4  A    between atoms: C_13  and  C_14 
REMARK    5  A    between atoms: C_14  and  O_15 
REMARK    6  A    between atoms: C_14  and  C_16 
REMARK    7  A    between atoms: C_16  and  O_17 
REMARK    8  A    between atoms: O_17  and  C_18 
ROOT
HETATM    1  C   UNL     1     -42.556 -50.236  15.412  1.00  0.00     0.108 A 
HETATM    2  N   UNL     1     -43.541 -50.473  16.256  1.00  0.00    -0.342 N 
ATOM      3  HN  UNL     1     -43.504 -50.420  17.274  1.00  0.00     0.167 HD
HETATM    4  C   UNL     1     -44.621 -50.802  15.488  1.00  0.00     0.060 A 
HETATM    5  C   UNL     1     -45.925 -51.121  15.903  1.00  0.00     0.032 A 
HETATM    6  C   UNL     1     -46.892 -51.432  14.946  1.00  0.00     0.002 A 
HETATM    7  C   UNL     1     -46.562 -51.444  13.597  1.00  0.00     0.002 A 
HETATM    8  C   UNL     1     -45.266 -51.137  13.167  1.00  0.00     0.032 A 
HETATM    9  C   UNL     1     -44.299 -50.798  14.130  1.00  0.00     0.062 A 
HETATM   10  N   UNL     1     -42.975 -50.406  14.095  1.00  0.00    -0.330 N 
ENDROOT
BRANCH  10  11
HETATM   11  C   UNL     1     -42.098 -50.162  12.953  1.00  0.00     0.164 C 
BRANCH  11  12
HETATM   12  C   UNL     1     -41.639 -51.357  12.105  1.00  0.00     0.160 C 
BRANCH  12  13
HETATM   13  O   UNL     1     -40.803 -50.954  11.013  1.00  0.00    -0.392 OA
HETATM   14  H   UNL     1     -39.884 -50.880  11.328  1.00  0.00     0.210 HD
ENDBRANCH  12  13
BRANCH  12  15
HETATM   15  C   UNL     1     -40.846 -52.387  12.913  1.00  0.00     0.209 C 
BRANCH  15  16
HETATM   16  O   UNL     1     -41.423 -53.677  12.744  1.00  0.00    -0.349 OA
BRANCH  16  17
HETATM   17  C   UNL     1     -42.476 -53.954  13.573  1.00  0.00     0.068 A 
HETATM   18  C   UNL     1     -43.655 -54.330  12.929  1.00  0.00     0.037 A 
HETATM   19  C   UNL     1     -44.792 -54.647  13.671  1.00  0.00     0.003 A 
HETATM   20  C   UNL     1     -44.746 -54.608  15.063  1.00  0.00     0.000 A 
HETATM   21  C   UNL     1     -43.563 -54.257  15.711  1.00  0.00     0.003 A 
HETATM   22  C   UNL     1     -42.428 -53.932  14.968  1.00  0.00     0.037 A 
ENDBRANCH  16  17
ENDBRANCH  15  16
ENDBRANCH  12  15
ENDBRANCH  11  12
ENDBRANCH  10  11
BRANCH   1  23
HETATM   23  C   UNL     1     -41.170 -49.868  15.828  1.00  0.00     0.240 C 
BRANCH  23  24
HETATM   24  O   UNL     1     -40.489 -51.054  16.223  1.00  0.00    -0.393 OA
HETATM   25  H   UNL     1     -40.744 -51.215  17.148  1.00  0.00     0.209 HD
ENDBRANCH  23  24
ENDBRANCH   1  23
TORSDOF 8
ENDMDL
MODEL 5
REMARK VINA RESULT:      -6.0      3.625      5.639
REMARK  8 active torsions:
REMARK  status: ('A' for Active; 'I' for Inactive)
REMARK    1  A    between atoms: O_1  and  C_2 
REMARK    2  A    between atoms: C_2  and  C_3 
REMARK    3  A    between atoms: N_12  and  C_13 
REMARK    4  A    between atoms: C_13  and  C_14 
REMARK    5  A    between atoms: C_14  and  O_15 
REMARK    6  A    between atoms: C_14  and  C_16 
REMARK    7  A    between atoms: C_16  and  O_17 
REMARK    8  A    between atoms: O_17  and  C_18 
ROOT
HETATM    1  C   UNL     1     -45.370 -51.217  13.192  1.00  0.00     0.108 A 
HETATM    2  N   UNL     1     -44.248 -50.729  12.700  1.00  0.00    -0.342 N 
ATOM      3  HN  UNL     1     -44.063 -50.472  11.730  1.00  0.00     0.167 HD
HETATM    4  C   UNL     1     -43.385 -50.639  13.754  1.00  0.00     0.060 A 
HETATM    5  C   UNL     1     -42.064 -50.158  13.765  1.00  0.00     0.032 A 
HETATM    6  C   UNL     1     -41.346 -50.153  14.962  1.00  0.00     0.002 A 
HETATM    7  C   UNL     1     -41.927 -50.635  16.128  1.00  0.00     0.002 A 
HETATM    8  C   UNL     1     -43.239 -51.125  16.133  1.00  0.00     0.032 A 
HETATM    9  C   UNL     1     -43.969 -51.106  14.932  1.00  0.00     0.062 A 
HETATM   10  N   UNL     1     -45.255 -51.448  14.560  1.00  0.00    -0.330 N 
ENDROOT
BRANCH  10  11
HETATM   11  C   UNL     1     -46.365 -51.943  15.370  1.00  0.00     0.164 C 
BRANCH  11  12
HETATM   12  C   UNL     1     -46.530 -53.459  15.552  1.00  0.00     0.160 C 
BRANCH  12  13
HETATM   13  O   UNL     1     -46.903 -54.112  14.331  1.00  0.00    -0.392 OA
HETATM   14  H   UNL     1     -47.182 -55.023  14.532  1.00  0.00     0.210 HD
ENDBRANCH  12  13
BRANCH  12  15
HETATM   15  C   UNL     1     -45.250 -54.140  16.044  1.00  0.00     0.209 C 
BRANCH  15  16
HETATM   16  O   UNL     1     -44.703 -54.942  15.003  1.00  0.00    -0.349 OA
BRANCH  16  17
HETATM   17  C   UNL     1     -43.434 -54.607  14.618  1.00  0.00     0.068 A 
HETATM   18  C   UNL     1     -42.459 -54.734  15.608  1.00  0.00     0.037 A 
HETATM   19  C   UNL     1     -41.128 -54.431  15.329  1.00  0.00     0.003 A 
HETATM   20  C   UNL     1     -40.764 -54.019  14.048  1.00  0.00     0.000 A 
HETATM   21  C   UNL     1     -41.729 -53.915  13.050  1.00  0.00     0.003 A 
HETATM   22  C   UNL     1     -43.063 -54.211  13.332  1.00  0.00     0.037 A 
ENDBRANCH  16  17
ENDBRANCH  15  16
ENDBRANCH  12  15
ENDBRANCH  11  12
ENDBRANCH  10  11
BRANCH   1  23
HETATM   23  C   UNL     1     -46.584 -51.507  12.374  1.00  0.00     0.240 C 
BRANCH  23  24
HETATM   24  O   UNL     1     -46.378 -52.735  11.684  1.00  0.00    -0.393 OA
HETATM   25  H   UNL     1     -45.873 -52.513  10.884  1.00  0.00     0.209 HD
ENDBRANCH  23  24
ENDBRANCH   1  23
TORSDOF 8
ENDMDL
MODEL 6
REMARK VINA RESULT:      -5.8      2.908      6.298
REMARK  8 active torsions:
REMARK  status: ('A' for Active; 'I' for Inactive)
REMARK    1  A    between atoms: O_1  and  C_2 
REMARK    2  A    between atoms: C_2  and  C_3 
REMARK    3  A    between atoms: N_12  and  C_13 
REMARK    4  A    between atoms: C_13  and  C_14 
REMARK    5  A    between atoms: C_14  and  O_15 
REMARK    6  A    between atoms: C_14  and  C_16 
REMARK    7  A    between atoms: C_16  and  O_17 
REMARK    8  A    between atoms: O_17  and  C_18 
ROOT
HETATM    1  C   UNL     1     -42.352 -53.121  13.029  1.00  0.00     0.108 A 
HETATM    2  N   UNL     1     -43.323 -53.103  12.138  1.00  0.00    -0.342 N 
ATOM      3  HN  UNL     1     -43.276 -53.423  11.170  1.00  0.00     0.167 HD
HETATM    4  C   UNL     1     -44.406 -52.568  12.776  1.00  0.00     0.060 A 
HETATM    5  C   UNL     1     -45.700 -52.353  12.272  1.00  0.00     0.032 A 
HETATM    6  C   UNL     1     -46.672 -51.787  13.099  1.00  0.00     0.002 A 
HETATM    7  C   UNL     1     -46.357 -51.424  14.402  1.00  0.00     0.002 A 
HETATM    8  C   UNL     1     -45.070 -51.624  14.917  1.00  0.00     0.032 A 
HETATM    9  C   UNL     1     -44.099 -52.218  14.091  1.00  0.00     0.062 A 
HETATM   10  N   UNL     1     -42.782 -52.605  14.248  1.00  0.00    -0.330 N 
ENDROOT
BRANCH  10  11
HETATM   11  C   UNL     1     -41.922 -52.550  15.427  1.00  0.00     0.164 C 
BRANCH  11  12
HETATM   12  C   UNL     1     -41.598 -51.182  16.043  1.00  0.00     0.160 C 
BRANCH  12  13
HETATM   13  O   UNL     1     -40.820 -51.300  17.242  1.00  0.00    -0.392 OA
HETATM   14  H   UNL     1     -41.044 -52.139  17.683  1.00  0.00     0.210 HD
ENDBRANCH  12  13
BRANCH  12  15
HETATM   15  C   UNL     1     -40.810 -50.276  15.093  1.00  0.00     0.209 C 
BRANCH  15  16
HETATM   16  O   UNL     1     -39.471 -50.744  14.984  1.00  0.00    -0.349 OA
BRANCH  16  17
HETATM   17  C   UNL     1     -38.860 -50.481  13.789  1.00  0.00     0.068 A 
HETATM   18  C   UNL     1     -39.341 -49.362  13.109  1.00  0.00     0.037 A 
HETATM   19  C   UNL     1     -38.788 -48.990  11.885  1.00  0.00     0.003 A 
HETATM   20  C   UNL     1     -37.735 -49.727  11.346  1.00  0.00     0.000 A 
HETATM   21  C   UNL     1     -37.235 -50.831  12.033  1.00  0.00     0.003 A 
HETATM   22  C   UNL     1     -37.794 -51.208  13.254  1.00  0.00     0.037 A 
ENDBRANCH  16  17
ENDBRANCH  15  16
ENDBRANCH  12  15
ENDBRANCH  11  12
ENDBRANCH  10  11
BRANCH   1  23
HETATM   23  C   UNL     1     -40.968 -53.605  12.746  1.00  0.00     0.240 C 
BRANCH  23  24
HETATM   24  O   UNL     1     -40.646 -53.283  11.397  1.00  0.00    -0.393 OA
HETATM   25  H   UNL     1     -40.858 -52.340  11.287  1.00  0.00     0.209 HD
ENDBRANCH  23  24
ENDBRANCH   1  23
TORSDOF 8
ENDMDL
MODEL 7
REMARK VINA RESULT:      -5.8      2.076      6.506
REMARK  8 active torsions:
REMARK  status: ('A' for Active; 'I' for Inactive)
REMARK    1  A    between atoms: O_1  and  C_2 
REMARK    2  A    between atoms: C_2  and  C_3 
REMARK    3  A    between atoms: N_12  and  C_13 
REMARK    4  A    between atoms: C_13  and  C_14 
REMARK    5  A    between atoms: C_14  and  O_15 
REMARK    6  A    between atoms: C_14  and  C_16 
REMARK    7  A    between atoms: C_16  and  O_17 
REMARK    8  A    between atoms: O_17  and  C_18 
ROOT
HETATM    1  C   UNL     1     -42.291 -53.484  13.554  1.00  0.00     0.108 A 
HETATM    2  N   UNL     1     -43.346 -54.271  13.618  1.00  0.00    -0.342 N 
ATOM      3  HN  UNL     1     -43.360 -55.289  13.542  1.00  0.00     0.167 HD
HETATM    4  C   UNL     1     -44.418 -53.446  13.805  1.00  0.00     0.060 A 
HETATM    5  C   UNL     1     -45.771 -53.791  13.961  1.00  0.00     0.032 A 
HETATM    6  C   UNL     1     -46.719 -52.783  14.143  1.00  0.00     0.002 A 
HETATM    7  C   UNL     1     -46.329 -51.450  14.153  1.00  0.00     0.002 A 
HETATM    8  C   UNL     1     -44.986 -51.089  13.992  1.00  0.00     0.032 A 
HETATM    9  C   UNL     1     -44.029 -52.106  13.835  1.00  0.00     0.062 A 
HETATM   10  N   UNL     1     -42.654 -52.148  13.699  1.00  0.00    -0.330 N 
ENDROOT
BRANCH  10  11
HETATM   11  C   UNL     1     -41.677 -51.063  13.716  1.00  0.00     0.164 C 
BRANCH  11  12
HETATM   12  C   UNL     1     -41.385 -50.311  12.409  1.00  0.00     0.160 C 
BRANCH  12  13
HETATM   13  O   UNL     1     -41.457 -51.170  11.264  1.00  0.00    -0.392 OA
HETATM   14  H   UNL     1     -41.043 -50.721  10.505  1.00  0.00     0.210 HD
ENDBRANCH  12  13
BRANCH  12  15
HETATM   15  C   UNL     1     -42.361 -49.158  12.160  1.00  0.00     0.209 C 
BRANCH  15  16
HETATM   16  O   UNL     1     -42.098 -48.574  10.889  1.00  0.00    -0.349 OA
BRANCH  16  17
HETATM   17  C   UNL     1     -41.638 -47.286  10.925  1.00  0.00     0.068 A 
HETATM   18  C   UNL     1     -42.623 -46.301  10.843  1.00  0.00     0.037 A 
HETATM   19  C   UNL     1     -42.275 -44.952  10.881  1.00  0.00     0.003 A 
HETATM   20  C   UNL     1     -40.938 -44.584  11.022  1.00  0.00     0.000 A 
HETATM   21  C   UNL     1     -39.954 -45.563  11.130  1.00  0.00     0.003 A 
HETATM   22  C   UNL     1     -40.302 -46.913  11.083  1.00  0.00     0.037 A 
ENDBRANCH  16  17
ENDBRANCH  15  16
ENDBRANCH  12  15
ENDBRANCH  11  12
ENDBRANCH  10  11
BRANCH   1  23
HETATM   23  C   UNL     1     -40.898 -53.971  13.324  1.00  0.00     0.240 C 
BRANCH  23  24
HETATM   24  O   UNL     1     -40.628 -53.917  11.928  1.00  0.00    -0.393 OA
HETATM   25  H   UNL     1     -39.774 -54.365  11.801  1.00  0.00     0.209 HD
ENDBRANCH  23  24
ENDBRANCH   1  23
TORSDOF 8
ENDMDL
MODEL 8
REMARK VINA RESULT:      -5.8      2.580      6.145
REMARK  8 active torsions:
REMARK  status: ('A' for Active; 'I' for Inactive)
REMARK    1  A    between atoms: O_1  and  C_2 
REMARK    2  A    between atoms: C_2  and  C_3 
REMARK    3  A    between atoms: N_12  and  C_13 
REMARK    4  A    between atoms: C_13  and  C_14 
REMARK    5  A    between atoms: C_14  and  O_15 
REMARK    6  A    between atoms: C_14  and  C_16 
REMARK    7  A    between atoms: C_16  and  O_17 
REMARK    8  A    between atoms: O_17  and  C_18 
ROOT
HETATM    1  C   UNL     1     -42.253 -51.175  12.517  1.00  0.00     0.108 A 
HETATM    2  N   UNL     1     -43.483 -50.753  12.733  1.00  0.00    -0.342 N 
ATOM      3  HN  UNL     1     -43.826 -49.794  12.662  1.00  0.00     0.167 HD
HETATM    4  C   UNL     1     -44.205 -51.861  13.072  1.00  0.00     0.060 A 
HETATM    5  C   UNL     1     -45.574 -51.954  13.376  1.00  0.00     0.032 A 
HETATM    6  C   UNL     1     -46.121 -53.197  13.701  1.00  0.00     0.002 A 
HETATM    7  C   UNL     1     -45.315 -54.327  13.740  1.00  0.00     0.002 A 
HETATM    8  C   UNL     1     -43.948 -54.250  13.447  1.00  0.00     0.032 A 
HETATM    9  C   UNL     1     -43.404 -53.003  13.095  1.00  0.00     0.062 A 
HETATM   10  N   UNL     1     -42.156 -52.550  12.710  1.00  0.00    -0.330 N 
ENDROOT
BRANCH  10  11
HETATM   11  C   UNL     1     -40.916 -53.290  12.491  1.00  0.00     0.164 C 
BRANCH  11  12
HETATM   12  C   UNL     1     -40.237 -53.966  13.692  1.00  0.00     0.160 C 
BRANCH  12  13
HETATM   13  O   UNL     1     -38.995 -54.584  13.331  1.00  0.00    -0.392 OA
HETATM   14  H   UNL     1     -38.266 -53.972  13.535  1.00  0.00     0.210 HD
ENDBRANCH  12  13
BRANCH  12  15
HETATM   15  C   UNL     1     -39.932 -52.987  14.828  1.00  0.00     0.209 C 
BRANCH  15  16
HETATM   16  O   UNL     1     -38.576 -52.562  14.743  1.00  0.00    -0.349 OA
BRANCH  16  17
HETATM   17  C   UNL     1     -38.400 -51.253  14.387  1.00  0.00     0.068 A 
HETATM   18  C   UNL     1     -37.725 -51.050  13.183  1.00  0.00     0.037 A 
HETATM   19  C   UNL     1     -37.496 -49.759  12.713  1.00  0.00     0.003 A 
HETATM   20  C   UNL     1     -37.961 -48.663  13.438  1.00  0.00     0.000 A 
HETATM   21  C   UNL     1     -38.658 -48.861  14.628  1.00  0.00     0.003 A 
HETATM   22  C   UNL     1     -38.879 -50.154  15.102  1.00  0.00     0.037 A 
ENDBRANCH  16  17
ENDBRANCH  15  16
ENDBRANCH  12  15
ENDBRANCH  11  12
ENDBRANCH  10  11
BRANCH   1  23
HETATM   23  C   UNL     1     -41.116 -50.280  12.148  1.00  0.00     0.240 C 
BRANCH  23  24
HETATM   24  O   UNL     1     -40.820 -50.476  10.770  1.00  0.00    -0.393 OA
HETATM   25  H   UNL     1     -40.000 -50.997  10.742  1.00  0.00     0.209 HD
ENDBRANCH  23  24
ENDBRANCH   1  23
TORSDOF 8
ENDMDL
MODEL 9
REMARK VINA RESULT:      -5.7      2.438      3.423
REMARK  8 active torsions:
REMARK  status: ('A' for Active; 'I' for Inactive)
REMARK    1  A    between atoms: O_1  and  C_2 
REMARK    2  A    between atoms: C_2  and  C_3 
REMARK    3  A    between atoms: N_12  and  C_13 
REMARK    4  A    between atoms: C_13  and  C_14 
REMARK    5  A    between atoms: C_14  and  O_15 
REMARK    6  A    between atoms: C_14  and  C_16 
REMARK    7  A    between atoms: C_16  and  O_17 
REMARK    8  A    between atoms: O_17  and  C_18 
ROOT
HETATM    1  C   UNL     1     -39.244 -52.628  13.847  1.00  0.00     0.108 A 
HETATM    2  N   UNL     1     -38.327 -51.798  14.305  1.00  0.00    -0.342 N 
ATOM      3  HN  UNL     1     -37.596 -52.005  14.985  1.00  0.00     0.167 HD
HETATM    4  C   UNL     1     -38.558 -50.605  13.682  1.00  0.00     0.060 A 
HETATM    5  C   UNL     1     -37.844 -49.401  13.806  1.00  0.00     0.032 A 
HETATM    6  C   UNL     1     -38.251 -48.285  13.072  1.00  0.00     0.002 A 
HETATM    7  C   UNL     1     -39.361 -48.360  12.242  1.00  0.00     0.002 A 
HETATM    8  C   UNL     1     -40.088 -49.550  12.113  1.00  0.00     0.032 A 
HETATM    9  C   UNL     1     -39.663 -50.680  12.832  1.00  0.00     0.062 A 
HETATM   10  N   UNL     1     -40.076 -51.995  12.928  1.00  0.00    -0.330 N 
ENDROOT
BRANCH  10  11
HETATM   11  C   UNL     1     -41.151 -52.694  12.228  1.00  0.00     0.164 C 
BRANCH  11  12
HETATM   12  C   UNL     1     -42.600 -52.243  12.459  1.00  0.00     0.160 C 
BRANCH  12  13
HETATM   13  O   UNL     1     -43.545 -53.120  11.831  1.00  0.00    -0.392 OA
HETATM   14  H   UNL     1     -44.196 -52.586  11.342  1.00  0.00     0.210 HD
ENDBRANCH  12  13
BRANCH  12  15
HETATM   15  C   UNL     1     -42.972 -52.181  13.942  1.00  0.00     0.209 C 
BRANCH  15  16
HETATM   16  O   UNL     1     -43.544 -50.912  14.241  1.00  0.00    -0.349 OA
BRANCH  16  17
HETATM   17  C   UNL     1     -44.706 -50.955  14.961  1.00  0.00     0.068 A 
HETATM   18  C   UNL     1     -45.817 -51.440  14.269  1.00  0.00     0.037 A 
HETATM   19  C   UNL     1     -47.053 -51.539  14.903  1.00  0.00     0.003 A 
HETATM   20  C   UNL     1     -47.179 -51.171  16.242  1.00  0.00     0.000 A 
HETATM   21  C   UNL     1     -46.068 -50.710  16.944  1.00  0.00     0.003 A 
HETATM   22  C   UNL     1     -44.832 -50.603  16.306  1.00  0.00     0.037 A 
ENDBRANCH  16  17
ENDBRANCH  15  16
ENDBRANCH  12  15
ENDBRANCH  11  12
ENDBRANCH  10  11
BRANCH   1  23
HETATM   23  C   UNL     1     -39.380 -54.048  14.289  1.00  0.00     0.240 C 
BRANCH  23  24
HETATM   24  O   UNL     1     -38.650 -54.871  13.386  1.00  0.00    -0.393 OA
HETATM   25  H   UNL     1     -39.313 -55.357  12.867  1.00  0.00     0.209 HD
ENDBRANCH  23  24
ENDBRANCH   1  23
TORSDOF 8
ENDMDL
