MODEL 1
REMARK VINA RESULT:      -6.5      0.000      0.000
REMARK  7 active torsions:
REMARK  status: ('A' for Active; 'I' for Inactive)
REMARK    1  A    between atoms: O_1  and  C_2 
REMARK    2  A    between atoms: C_2  and  C_3 
REMARK    3  A    between atoms: C_3  and  C_4 
REMARK    4  A    between atoms: C_4  and  C_5 
REMARK    5  A    between atoms: N_14  and  C_15 
REMARK    6  A    between atoms: C_15  and  C_16 
REMARK    7  A    between atoms: C_16  and  O_17 
ROOT
HETATM    1  C   UNL     1     -41.533 -47.128  10.631  1.00  0.00     0.084 C 
HETATM    2  N   UNL     1     -41.099 -45.927  10.303  1.00  0.00    -0.344 N 
ATOM      3  HN  UNL     1     -41.311 -45.410   9.450  1.00  0.00     0.167 HD
HETATM    4  C   UNL     1     -40.308 -45.516  11.340  1.00  0.00     0.060 A 
HETATM    5  C   UNL     1     -39.636 -44.299  11.514  1.00  0.00     0.032 A 
HETATM    6  C   UNL     1     -38.951 -44.074  12.711  1.00  0.00     0.002 A 
HETATM    7  C   UNL     1     -38.948 -45.038  13.719  1.00  0.00     0.002 A 
HETATM    8  C   UNL     1     -39.589 -46.274  13.550  1.00  0.00     0.032 A 
HETATM    9  C   UNL     1     -40.237 -46.495  12.328  1.00  0.00     0.062 A 
HETATM   10  N   UNL     1     -40.898 -47.573  11.774  1.00  0.00    -0.332 N 
ENDROOT
BRANCH  10  11
HETATM   11  C   UNL     1     -40.958 -48.922  12.318  1.00  0.00     0.168 C 
BRANCH  11  12
HETATM   12  C   UNL     1     -39.967 -49.953  11.698  1.00  0.00     0.074 C 
HETATM   13  C   UNL     1     -39.930 -51.349  12.356  1.00  0.00     0.039 C 
HETATM   14  C   UNL     1     -39.185 -51.414  13.686  1.00  0.00     0.003 C 
HETATM   15  C   UNL     1     -37.799 -50.790  13.605  1.00  0.00     0.000 C 
HETATM   16  C   UNL     1     -37.853 -49.377  13.041  1.00  0.00     0.003 C 
HETATM   17  C   UNL     1     -38.544 -49.354  11.678  1.00  0.00     0.039 C 
BRANCH  12  18
HETATM   18  O   UNL     1     -40.323 -50.139  10.315  1.00  0.00    -0.388 OA
HETATM   19  H   UNL     1     -41.290 -50.033  10.241  1.00  0.00     0.210 HD
ENDBRANCH  12  18
ENDBRANCH  11  12
ENDBRANCH  10  11
BRANCH   1  20
HETATM   20  C   UNL     1     -42.591 -47.897   9.905  1.00  0.00     0.079 C 
BRANCH  20  21
HETATM   21  C   UNL     1     -43.281 -47.064   8.823  1.00  0.00     0.033 C 
BRANCH  21  22
HETATM   22  C   UNL     1     -43.754 -47.926   7.663  1.00  0.00     0.164 C 
BRANCH  22  23
HETATM   23  O   UNL     1     -42.652 -48.621   7.093  1.00  0.00    -0.401 OA
HETATM   24  H   UNL     1     -42.823 -49.570   7.213  1.00  0.00     0.209 HD
ENDBRANCH  22  23
ENDBRANCH  21  22
ENDBRANCH  20  21
ENDBRANCH   1  20
TORSDOF 7
ENDMDL
MODEL 2
REMARK VINA RESULT:      -6.5      4.429      6.966
REMARK  7 active torsions:
REMARK  status: ('A' for Active; 'I' for Inactive)
REMARK    1  A    between atoms: O_1  and  C_2 
REMARK    2  A    between atoms: C_2  and  C_3 
REMARK    3  A    between atoms: C_3  and  C_4 
REMARK    4  A    between atoms: C_4  and  C_5 
REMARK    5  A    between atoms: N_14  and  C_15 
REMARK    6  A    between atoms: C_15  and  C_16 
REMARK    7  A    between atoms: C_16  and  O_17 
ROOT
HETATM    1  C   UNL     1     -41.194 -52.646  12.734  1.00  0.00     0.084 C 
HETATM    2  N   UNL     1     -40.264 -51.925  12.142  1.00  0.00    -0.344 N 
ATOM      3  HN  UNL     1     -39.322 -52.225  11.890  1.00  0.00     0.167 HD
HETATM    4  C   UNL     1     -40.818 -50.692  11.933  1.00  0.00     0.060 A 
HETATM    5  C   UNL     1     -40.269 -49.569  11.302  1.00  0.00     0.032 A 
HETATM    6  C   UNL     1     -41.070 -48.436  11.129  1.00  0.00     0.002 A 
HETATM    7  C   UNL     1     -42.395 -48.430  11.566  1.00  0.00     0.002 A 
HETATM    8  C   UNL     1     -42.951 -49.534  12.226  1.00  0.00     0.032 A 
HETATM    9  C   UNL     1     -42.121 -50.645  12.424  1.00  0.00     0.062 A 
HETATM   10  N   UNL     1     -42.275 -51.854  13.072  1.00  0.00    -0.332 N 
ENDROOT
BRANCH  10  11
HETATM   11  C   UNL     1     -43.393 -52.245  13.917  1.00  0.00     0.168 C 
BRANCH  11  12
HETATM   12  C   UNL     1     -44.671 -52.739  13.173  1.00  0.00     0.074 C 
HETATM   13  C   UNL     1     -45.808 -51.709  13.006  1.00  0.00     0.039 C 
HETATM   14  C   UNL     1     -46.629 -51.444  14.265  1.00  0.00     0.003 C 
HETATM   15  C   UNL     1     -47.121 -52.729  14.916  1.00  0.00     0.000 C 
HETATM   16  C   UNL     1     -45.979 -53.704  15.164  1.00  0.00     0.003 C 
HETATM   17  C   UNL     1     -45.219 -54.003  13.872  1.00  0.00     0.039 C 
BRANCH  12  18
HETATM   18  O   UNL     1     -44.283 -53.169  11.855  1.00  0.00    -0.388 OA
HETATM   19  H   UNL     1     -43.393 -52.811  11.676  1.00  0.00     0.210 HD
ENDBRANCH  12  18
ENDBRANCH  11  12
ENDBRANCH  10  11
BRANCH   1  20
HETATM   20  C   UNL     1     -41.126 -54.120  12.978  1.00  0.00     0.079 C 
BRANCH  20  21
HETATM   21  C   UNL     1     -40.724 -54.457  14.415  1.00  0.00     0.033 C 
BRANCH  21  22
HETATM   22  C   UNL     1     -39.220 -54.625  14.557  1.00  0.00     0.164 C 
BRANCH  22  23
HETATM   23  O   UNL     1     -38.603 -54.566  13.277  1.00  0.00    -0.401 OA
HETATM   24  H   UNL     1     -39.315 -54.593  12.616  1.00  0.00     0.209 HD
ENDBRANCH  22  23
ENDBRANCH  21  22
ENDBRANCH  20  21
ENDBRANCH   1  20
TORSDOF 7
ENDMDL
MODEL 3
REMARK VINA RESULT:      -6.5      2.808      4.608
REMARK  7 active torsions:
REMARK  status: ('A' for Active; 'I' for Inactive)
REMARK    1  A    between atoms: O_1  and  C_2 
REMARK    2  A    between atoms: C_2  and  C_3 
REMARK    3  A    between atoms: C_3  and  C_4 
REMARK    4  A    between atoms: C_4  and  C_5 
REMARK    5  A    between atoms: N_14  and  C_15 
REMARK    6  A    between atoms: C_15  and  C_16 
REMARK    7  A    between atoms: C_16  and  O_17 
ROOT
HETATM    1  C   UNL     1     -41.640 -49.436  11.833  1.00  0.00     0.084 C 
HETATM    2  N   UNL     1     -40.581 -49.003  11.180  1.00  0.00    -0.344 N 
ATOM      3  HN  UNL     1     -40.557 -48.280  10.460  1.00  0.00     0.167 HD
HETATM    4  C   UNL     1     -39.520 -49.718  11.664  1.00  0.00     0.060 A 
HETATM    5  C   UNL     1     -38.162 -49.620  11.338  1.00  0.00     0.032 A 
HETATM    6  C   UNL     1     -37.244 -50.408  12.037  1.00  0.00     0.002 A 
HETATM    7  C   UNL     1     -37.671 -51.266  13.051  1.00  0.00     0.002 A 
HETATM    8  C   UNL     1     -39.030 -51.399  13.370  1.00  0.00     0.032 A 
HETATM    9  C   UNL     1     -39.938 -50.630  12.631  1.00  0.00     0.062 A 
HETATM   10  N   UNL     1     -41.315 -50.538  12.601  1.00  0.00    -0.332 N 
ENDROOT
BRANCH  10  11
HETATM   11  C   UNL     1     -42.254 -51.410  13.290  1.00  0.00     0.168 C 
BRANCH  11  12
HETATM   12  C   UNL     1     -42.585 -52.757  12.578  1.00  0.00     0.074 C 
HETATM   13  C   UNL     1     -44.075 -53.157  12.526  1.00  0.00     0.039 C 
HETATM   14  C   UNL     1     -44.643 -53.696  13.836  1.00  0.00     0.003 C 
HETATM   15  C   UNL     1     -43.781 -54.801  14.430  1.00  0.00     0.000 C 
HETATM   16  C   UNL     1     -42.327 -54.366  14.564  1.00  0.00     0.003 C 
HETATM   17  C   UNL     1     -41.766 -53.897  13.223  1.00  0.00     0.039 C 
BRANCH  12  18
HETATM   18  O   UNL     1     -42.115 -52.671  11.219  1.00  0.00    -0.388 OA
HETATM   19  H   UNL     1     -42.896 -52.600  10.639  1.00  0.00     0.210 HD
ENDBRANCH  12  18
ENDBRANCH  11  12
ENDBRANCH  10  11
BRANCH   1  20
HETATM   20  C   UNL     1     -43.000 -48.813  11.795  1.00  0.00     0.079 C 
BRANCH  20  21
HETATM   21  C   UNL     1     -42.985 -47.417  11.169  1.00  0.00     0.033 C 
BRANCH  21  22
HETATM   22  C   UNL     1     -43.505 -47.432   9.741  1.00  0.00     0.164 C 
BRANCH  22  23
HETATM   23  O   UNL     1     -42.557 -48.059   8.886  1.00  0.00    -0.401 OA
HETATM   24  H   UNL     1     -43.060 -48.569   8.230  1.00  0.00     0.209 HD
ENDBRANCH  22  23
ENDBRANCH  21  22
ENDBRANCH  20  21
ENDBRANCH   1  20
TORSDOF 7
ENDMDL
MODEL 4
REMARK VINA RESULT:      -6.1      1.757      4.903
REMARK  7 active torsions:
REMARK  status: ('A' for Active; 'I' for Inactive)
REMARK    1  A    between atoms: O_1  and  C_2 
REMARK    2  A    between atoms: C_2  and  C_3 
REMARK    3  A    between atoms: C_3  and  C_4 
REMARK    4  A    between atoms: C_4  and  C_5 
REMARK    5  A    between atoms: N_14  and  C_15 
REMARK    6  A    between atoms: C_15  and  C_16 
REMARK    7  A    between atoms: C_16  and  O_17 
ROOT
HETATM    1  C   UNL     1     -42.494 -48.248  11.454  1.00  0.00     0.084 C 
HETATM    2  N   UNL     1     -42.236 -49.540  11.445  1.00  0.00    -0.344 N 
ATOM      3  HN  UNL     1     -42.872 -50.291  11.178  1.00  0.00     0.167 HD
HETATM    4  C   UNL     1     -40.941 -49.669  11.867  1.00  0.00     0.060 A 
HETATM    5  C   UNL     1     -40.163 -50.826  11.999  1.00  0.00     0.032 A 
HETATM    6  C   UNL     1     -38.822 -50.695  12.371  1.00  0.00     0.002 A 
HETATM    7  C   UNL     1     -38.266 -49.435  12.594  1.00  0.00     0.002 A 
HETATM    8  C   UNL     1     -39.038 -48.269  12.496  1.00  0.00     0.032 A 
HETATM    9  C   UNL     1     -40.390 -48.424  12.160  1.00  0.00     0.062 A 
HETATM   10  N   UNL     1     -41.454 -47.553  12.041  1.00  0.00    -0.332 N 
ENDROOT
BRANCH  10  11
HETATM   11  C   UNL     1     -41.467 -46.147  12.416  1.00  0.00     0.168 C 
BRANCH  11  12
HETATM   12  C   UNL     1     -40.807 -45.163  11.403  1.00  0.00     0.074 C 
HETATM   13  C   UNL     1     -39.425 -44.600  11.796  1.00  0.00     0.039 C 
HETATM   14  C   UNL     1     -39.453 -43.505  12.859  1.00  0.00     0.003 C 
HETATM   15  C   UNL     1     -40.441 -42.397  12.522  1.00  0.00     0.000 C 
HETATM   16  C   UNL     1     -41.827 -42.953  12.226  1.00  0.00     0.003 C 
HETATM   17  C   UNL     1     -41.776 -43.997  11.111  1.00  0.00     0.039 C 
BRANCH  12  18
HETATM   18  O   UNL     1     -40.649 -45.853  10.149  1.00  0.00    -0.388 OA
HETATM   19  H   UNL     1     -39.801 -45.570   9.759  1.00  0.00     0.210 HD
ENDBRANCH  12  18
ENDBRANCH  11  12
ENDBRANCH  10  11
BRANCH   1  20
HETATM   20  C   UNL     1     -43.715 -47.602  10.878  1.00  0.00     0.079 C 
BRANCH  20  21
HETATM   21  C   UNL     1     -43.710 -47.602   9.349  1.00  0.00     0.033 C 
BRANCH  21  22
HETATM   22  C   UNL     1     -43.804 -46.194   8.784  1.00  0.00     0.164 C 
BRANCH  22  23
HETATM   23  O   UNL     1     -42.669 -45.919   7.972  1.00  0.00    -0.401 OA
HETATM   24  H   UNL     1     -42.898 -45.160   7.411  1.00  0.00     0.209 HD
ENDBRANCH  22  23
ENDBRANCH  21  22
ENDBRANCH  20  21
ENDBRANCH   1  20
TORSDOF 7
ENDMDL
MODEL 5
REMARK VINA RESULT:      -6.0      3.972      7.251
REMARK  7 active torsions:
REMARK  status: ('A' for Active; 'I' for Inactive)
REMARK    1  A    between atoms: O_1  and  C_2 
REMARK    2  A    between atoms: C_2  and  C_3 
REMARK    3  A    between atoms: C_3  and  C_4 
REMARK    4  A    between atoms: C_4  and  C_5 
REMARK    5  A    between atoms: N_14  and  C_15 
REMARK    6  A    between atoms: C_15  and  C_16 
REMARK    7  A    between atoms: C_16  and  O_17 
ROOT
HETATM    1  C   UNL     1     -41.716 -53.457  13.111  1.00  0.00     0.084 C 
HETATM    2  N   UNL     1     -42.802 -54.144  12.820  1.00  0.00    -0.344 N 
ATOM      3  HN  UNL     1     -42.857 -55.137  12.591  1.00  0.00     0.167 HD
HETATM    4  C   UNL     1     -43.839 -53.256  12.887  1.00  0.00     0.060 A 
HETATM    5  C   UNL     1     -45.210 -53.478  12.705  1.00  0.00     0.032 A 
HETATM    6  C   UNL     1     -46.097 -52.418  12.912  1.00  0.00     0.002 A 
HETATM    7  C   UNL     1     -45.626 -51.165  13.306  1.00  0.00     0.002 A 
HETATM    8  C   UNL     1     -44.256 -50.917  13.463  1.00  0.00     0.032 A 
HETATM    9  C   UNL     1     -43.380 -51.982  13.213  1.00  0.00     0.062 A 
HETATM   10  N   UNL     1     -42.006 -52.109  13.191  1.00  0.00    -0.332 N 
ENDROOT
BRANCH  10  11
HETATM   11  C   UNL     1     -41.037 -51.027  13.286  1.00  0.00     0.168 C 
BRANCH  11  12
HETATM   12  C   UNL     1     -40.603 -50.379  11.936  1.00  0.00     0.074 C 
HETATM   13  C   UNL     1     -39.132 -49.923  11.837  1.00  0.00     0.039 C 
HETATM   14  C   UNL     1     -38.807 -48.629  12.577  1.00  0.00     0.003 C 
HETATM   15  C   UNL     1     -39.772 -47.504  12.229  1.00  0.00     0.000 C 
HETATM   16  C   UNL     1     -41.222 -47.932  12.418  1.00  0.00     0.003 C 
HETATM   17  C   UNL     1     -41.535 -49.191  11.611  1.00  0.00     0.039 C 
BRANCH  12  18
HETATM   18  O   UNL     1     -40.827 -51.339  10.887  1.00  0.00    -0.388 OA
HETATM   19  H   UNL     1     -40.601 -52.221  11.237  1.00  0.00     0.210 HD
ENDBRANCH  12  18
ENDBRANCH  11  12
ENDBRANCH  10  11
BRANCH   1  20
HETATM   20  C   UNL     1     -40.361 -54.040  13.364  1.00  0.00     0.079 C 
BRANCH  20  21
HETATM   21  C   UNL     1     -40.211 -54.575  14.789  1.00  0.00     0.033 C 
BRANCH  21  22
HETATM   22  C   UNL     1     -38.758 -54.595  15.235  1.00  0.00     0.164 C 
BRANCH  22  23
HETATM   23  O   UNL     1     -38.214 -55.897  15.060  1.00  0.00    -0.401 OA
HETATM   24  H   UNL     1     -38.577 -56.454  15.768  1.00  0.00     0.209 HD
ENDBRANCH  22  23
ENDBRANCH  21  22
ENDBRANCH  20  21
ENDBRANCH   1  20
TORSDOF 7
ENDMDL
MODEL 6
REMARK VINA RESULT:      -5.9      4.176      7.110
REMARK  7 active torsions:
REMARK  status: ('A' for Active; 'I' for Inactive)
REMARK    1  A    between atoms: O_1  and  C_2 
REMARK    2  A    between atoms: C_2  and  C_3 
REMARK    3  A    between atoms: C_3  and  C_4 
REMARK    4  A    between atoms: C_4  and  C_5 
REMARK    5  A    between atoms: N_14  and  C_15 
REMARK    6  A    between atoms: C_15  and  C_16 
REMARK    7  A    between atoms: C_16  and  O_17 
ROOT
HETATM    1  C   UNL     1     -42.812 -53.539  13.316  1.00  0.00     0.084 C 
HETATM    2  N   UNL     1     -42.953 -54.147  14.476  1.00  0.00    -0.344 N 
ATOM      3  HN  UNL     1     -43.826 -54.322  14.976  1.00  0.00     0.167 HD
HETATM    4  C   UNL     1     -41.692 -54.497  14.875  1.00  0.00     0.060 A 
HETATM    5  C   UNL     1     -41.287 -55.200  16.016  1.00  0.00     0.032 A 
HETATM    6  C   UNL     1     -39.934 -55.517  16.165  1.00  0.00     0.002 A 
HETATM    7  C   UNL     1     -39.007 -55.152  15.189  1.00  0.00     0.002 A 
HETATM    8  C   UNL     1     -39.391 -54.421  14.055  1.00  0.00     0.032 A 
HETATM    9  C   UNL     1     -40.745 -54.080  13.944  1.00  0.00     0.062 A 
HETATM   10  N   UNL     1     -41.474 -53.332  13.041  1.00  0.00    -0.332 N 
ENDROOT
BRANCH  10  11
HETATM   11  C   UNL     1     -40.937 -52.512  11.965  1.00  0.00     0.168 C 
BRANCH  11  12
HETATM   12  C   UNL     1     -40.193 -51.214  12.401  1.00  0.00     0.074 C 
HETATM   13  C   UNL     1     -40.367 -50.787  13.874  1.00  0.00     0.039 C 
HETATM   14  C   UNL     1     -41.710 -50.142  14.204  1.00  0.00     0.003 C 
HETATM   15  C   UNL     1     -42.065 -49.016  13.243  1.00  0.00     0.000 C 
HETATM   16  C   UNL     1     -41.981 -49.471  11.792  1.00  0.00     0.003 C 
HETATM   17  C   UNL     1     -40.603 -50.048  11.474  1.00  0.00     0.039 C 
BRANCH  12  18
HETATM   18  O   UNL     1     -38.785 -51.407  12.173  1.00  0.00    -0.388 OA
HETATM   19  H   UNL     1     -38.329 -51.308  13.029  1.00  0.00     0.210 HD
ENDBRANCH  12  18
ENDBRANCH  11  12
ENDBRANCH  10  11
BRANCH   1  20
HETATM   20  C   UNL     1     -43.927 -53.157  12.394  1.00  0.00     0.079 C 
BRANCH  20  21
HETATM   21  C   UNL     1     -45.304 -53.343  13.034  1.00  0.00     0.033 C 
BRANCH  21  22
HETATM   22  C   UNL     1     -46.259 -52.223  12.656  1.00  0.00     0.164 C 
BRANCH  22  23
HETATM   23  O   UNL     1     -46.829 -52.481  11.379  1.00  0.00    -0.401 OA
HETATM   24  H   UNL     1     -47.343 -51.693  11.133  1.00  0.00     0.209 HD
ENDBRANCH  22  23
ENDBRANCH  21  22
ENDBRANCH  20  21
ENDBRANCH   1  20
TORSDOF 7
ENDMDL
MODEL 7
REMARK VINA RESULT:      -5.8      3.033      4.291
REMARK  7 active torsions:
REMARK  status: ('A' for Active; 'I' for Inactive)
REMARK    1  A    between atoms: O_1  and  C_2 
REMARK    2  A    between atoms: C_2  and  C_3 
REMARK    3  A    between atoms: C_3  and  C_4 
REMARK    4  A    between atoms: C_4  and  C_5 
REMARK    5  A    between atoms: N_14  and  C_15 
REMARK    6  A    between atoms: C_15  and  C_16 
REMARK    7  A    between atoms: C_16  and  O_17 
ROOT
HETATM    1  C   UNL     1     -43.031 -50.102  13.004  1.00  0.00     0.084 C 
HETATM    2  N   UNL     1     -43.510 -49.327  12.053  1.00  0.00    -0.344 N 
ATOM      3  HN  UNL     1     -44.460 -49.326  11.681  1.00  0.00     0.167 HD
HETATM    4  C   UNL     1     -42.475 -48.521  11.666  1.00  0.00     0.060 A 
HETATM    5  C   UNL     1     -42.460 -47.491  10.717  1.00  0.00     0.032 A 
HETATM    6  C   UNL     1     -41.291 -46.743  10.555  1.00  0.00     0.002 A 
HETATM    7  C   UNL     1     -40.164 -47.009  11.334  1.00  0.00     0.002 A 
HETATM    8  C   UNL     1     -40.151 -48.055  12.267  1.00  0.00     0.032 A 
HETATM    9  C   UNL     1     -41.321 -48.818  12.386  1.00  0.00     0.062 A 
HETATM   10  N   UNL     1     -41.664 -49.938  13.117  1.00  0.00    -0.332 N 
ENDROOT
BRANCH  10  11
HETATM   11  C   UNL     1     -40.763 -50.766  13.904  1.00  0.00     0.168 C 
BRANCH  11  12
HETATM   12  C   UNL     1     -40.122 -51.976  13.159  1.00  0.00     0.074 C 
HETATM   13  C   UNL     1     -41.095 -53.063  12.653  1.00  0.00     0.039 C 
HETATM   14  C   UNL     1     -41.634 -53.997  13.732  1.00  0.00     0.003 C 
HETATM   15  C   UNL     1     -40.527 -54.587  14.595  1.00  0.00     0.000 C 
HETATM   16  C   UNL     1     -39.625 -53.501  15.167  1.00  0.00     0.003 C 
HETATM   17  C   UNL     1     -39.046 -52.624  14.058  1.00  0.00     0.039 C 
BRANCH  12  18
HETATM   18  O   UNL     1     -39.410 -51.470  12.015  1.00  0.00    -0.388 OA
HETATM   19  H   UNL     1     -40.069 -51.112  11.390  1.00  0.00     0.210 HD
ENDBRANCH  12  18
ENDBRANCH  11  12
ENDBRANCH  10  11
BRANCH   1  20
HETATM   20  C   UNL     1     -43.842 -51.009  13.877  1.00  0.00     0.079 C 
BRANCH  20  21
HETATM   21  C   UNL     1     -45.232 -51.284  13.301  1.00  0.00     0.033 C 
BRANCH  21  22
HETATM   22  C   UNL     1     -45.322 -52.668  12.678  1.00  0.00     0.164 C 
BRANCH  22  23
HETATM   23  O   UNL     1     -46.344 -52.690  11.689  1.00  0.00    -0.401 OA
HETATM   24  H   UNL     1     -45.923 -52.475  10.840  1.00  0.00     0.209 HD
ENDBRANCH  22  23
ENDBRANCH  21  22
ENDBRANCH  20  21
ENDBRANCH   1  20
TORSDOF 7
ENDMDL
MODEL 8
REMARK VINA RESULT:      -5.8      4.551      7.638
REMARK  7 active torsions:
REMARK  status: ('A' for Active; 'I' for Inactive)
REMARK    1  A    between atoms: O_1  and  C_2 
REMARK    2  A    between atoms: C_2  and  C_3 
REMARK    3  A    between atoms: C_3  and  C_4 
REMARK    4  A    between atoms: C_4  and  C_5 
REMARK    5  A    between atoms: N_14  and  C_15 
REMARK    6  A    between atoms: C_15  and  C_16 
REMARK    7  A    between atoms: C_16  and  O_17 
ROOT
HETATM    1  C   UNL     1     -42.685 -54.056  13.759  1.00  0.00     0.084 C 
HETATM    2  N   UNL     1     -43.679 -54.544  14.474  1.00  0.00    -0.344 N 
ATOM      3  HN  UNL     1     -43.694 -55.428  14.982  1.00  0.00     0.167 HD
HETATM    4  C   UNL     1     -44.687 -53.622  14.397  1.00  0.00     0.060 A 
HETATM    5  C   UNL     1     -45.946 -53.632  15.009  1.00  0.00     0.032 A 
HETATM    6  C   UNL     1     -46.781 -52.523  14.848  1.00  0.00     0.002 A 
HETATM    7  C   UNL     1     -46.362 -51.421  14.103  1.00  0.00     0.002 A 
HETATM    8  C   UNL     1     -45.117 -51.406  13.458  1.00  0.00     0.032 A 
HETATM    9  C   UNL     1     -44.311 -52.543  13.600  1.00  0.00     0.062 A 
HETATM   10  N   UNL     1     -43.092 -52.925  13.078  1.00  0.00    -0.332 N 
ENDROOT
BRANCH  10  11
HETATM   11  C   UNL     1     -42.344 -52.237  12.036  1.00  0.00     0.168 C 
BRANCH  11  12
HETATM   12  C   UNL     1     -41.200 -51.297  12.522  1.00  0.00     0.074 C 
HETATM   13  C   UNL     1     -41.158 -50.996  14.036  1.00  0.00     0.039 C 
HETATM   14  C   UNL     1     -42.203 -49.995  14.523  1.00  0.00     0.003 C 
HETATM   15  C   UNL     1     -42.215 -48.720  13.691  1.00  0.00     0.000 C 
HETATM   16  C   UNL     1     -42.350 -49.022  12.205  1.00  0.00     0.003 C 
HETATM   17  C   UNL     1     -41.250 -49.971  11.733  1.00  0.00     0.039 C 
BRANCH  12  18
HETATM   18  O   UNL     1     -39.943 -51.905  12.171  1.00  0.00    -0.388 OA
HETATM   19  H   UNL     1     -39.913 -52.787  12.587  1.00  0.00     0.210 HD
ENDBRANCH  12  18
ENDBRANCH  11  12
ENDBRANCH  10  11
BRANCH   1  20
HETATM   20  C   UNL     1     -41.296 -54.610  13.711  1.00  0.00     0.079 C 
BRANCH  20  21
HETATM   21  C   UNL     1     -40.547 -54.425  15.031  1.00  0.00     0.033 C 
BRANCH  21  22
HETATM   22  C   UNL     1     -39.076 -54.112  14.807  1.00  0.00     0.164 C 
BRANCH  22  23
HETATM   23  O   UNL     1     -38.722 -54.387  13.458  1.00  0.00    -0.401 OA
HETATM   24  H   UNL     1     -39.368 -53.927  12.895  1.00  0.00     0.209 HD
ENDBRANCH  22  23
ENDBRANCH  21  22
ENDBRANCH  20  21
ENDBRANCH   1  20
TORSDOF 7
ENDMDL
MODEL 9
REMARK VINA RESULT:      -5.8      4.672      7.737
REMARK  7 active torsions:
REMARK  status: ('A' for Active; 'I' for Inactive)
REMARK    1  A    between atoms: O_1  and  C_2 
REMARK    2  A    between atoms: C_2  and  C_3 
REMARK    3  A    between atoms: C_3  and  C_4 
REMARK    4  A    between atoms: C_4  and  C_5 
REMARK    5  A    between atoms: N_14  and  C_15 
REMARK    6  A    between atoms: C_15  and  C_16 
REMARK    7  A    between atoms: C_16  and  O_17 
ROOT
HETATM    1  C   UNL     1     -42.809 -53.868  13.675  1.00  0.00     0.084 C 
HETATM    2  N   UNL     1     -43.792 -54.530  14.253  1.00  0.00    -0.344 N 
ATOM      3  HN  UNL     1     -43.773 -55.497  14.579  1.00  0.00     0.167 HD
HETATM    4  C   UNL     1     -44.841 -53.656  14.329  1.00  0.00     0.060 A 
HETATM    5  C   UNL     1     -46.110 -53.842  14.891  1.00  0.00     0.032 A 
HETATM    6  C   UNL     1     -46.996 -52.761  14.926  1.00  0.00     0.002 A 
HETATM    7  C   UNL     1     -46.617 -51.517  14.421  1.00  0.00     0.002 A 
HETATM    8  C   UNL     1     -45.362 -51.321  13.827  1.00  0.00     0.032 A 
HETATM    9  C   UNL     1     -44.504 -52.427  13.768  1.00  0.00     0.062 A 
HETATM   10  N   UNL     1     -43.258 -52.645  13.216  1.00  0.00    -0.332 N 
ENDROOT
BRANCH  10  11
HETATM   11  C   UNL     1     -42.525 -51.734  12.349  1.00  0.00     0.168 C 
BRANCH  11  12
HETATM   12  C   UNL     1     -41.848 -50.518  13.052  1.00  0.00     0.074 C 
HETATM   13  C   UNL     1     -42.597 -49.172  12.964  1.00  0.00     0.039 C 
HETATM   14  C   UNL     1     -42.495 -48.464  11.615  1.00  0.00     0.003 C 
HETATM   15  C   UNL     1     -41.057 -48.344  11.131  1.00  0.00     0.000 C 
HETATM   16  C   UNL     1     -40.351 -49.694  11.133  1.00  0.00     0.003 C 
HETATM   17  C   UNL     1     -40.411 -50.346  12.514  1.00  0.00     0.039 C 
BRANCH  12  18
HETATM   18  O   UNL     1     -41.698 -50.836  14.448  1.00  0.00    -0.388 OA
HETATM   19  H   UNL     1     -42.373 -50.333  14.941  1.00  0.00     0.210 HD
ENDBRANCH  12  18
ENDBRANCH  11  12
ENDBRANCH  10  11
BRANCH   1  20
HETATM   20  C   UNL     1     -41.394 -54.341  13.560  1.00  0.00     0.079 C 
BRANCH  20  21
HETATM   21  C   UNL     1     -40.622 -54.199  14.873  1.00  0.00     0.033 C 
BRANCH  21  22
HETATM   22  C   UNL     1     -39.194 -54.704  14.745  1.00  0.00     0.164 C 
BRANCH  22  23
HETATM   23  O   UNL     1     -38.837 -54.810  13.372  1.00  0.00    -0.401 OA
HETATM   24  H   UNL     1     -39.656 -54.713  12.858  1.00  0.00     0.209 HD
ENDBRANCH  22  23
ENDBRANCH  21  22
ENDBRANCH  20  21
ENDBRANCH   1  20
TORSDOF 7
ENDMDL
