MODEL 1
REMARK VINA RESULT:      -5.9      0.000      0.000
REMARK  4 active torsions:
REMARK  status: ('A' for Active; 'I' for Inactive)
REMARK    1  A    between atoms: C_2  and  N_3 
REMARK       I    between atoms: N_6  and  C_9 
REMARK       I    between atoms: C_9  and  N_11 
REMARK    2  A    between atoms: N_11  and  C_12 
REMARK    3  A    between atoms: N_16  and  C_17 
REMARK    4  A    between atoms: C_17  and  C_18 
REMARK       I    between atoms: C_18  and  N_20 
ROOT
HETATM    1  C   UNL     1     -42.107 -48.575  11.235  1.00  0.00     0.070 A 
HETATM    2  C   UNL     1     -42.478 -47.713  10.178  1.00  0.00     0.138 A 
HETATM    3  N   UNL     1     -41.617 -46.704  10.015  1.00  0.00    -0.307 N 
ATOM      4  HN  UNL     1     -41.653 -45.948   9.331  1.00  0.00     0.186 HD
HETATM    5  N   UNL     1     -40.686 -46.921  10.969  1.00  0.00    -0.293 N 
HETATM    6  C   UNL     1     -40.924 -48.052  11.699  1.00  0.00     0.141 A 
ENDROOT
BRANCH   1   7
HETATM    7  N   UNL     1     -42.713 -49.706  11.750  1.00  0.00    -0.306 N 
HETATM    8  C   UNL     1     -43.286 -49.754  12.995  1.00  0.00     0.323 C 
HETATM    9  N   UNL     1     -43.863 -50.954  13.369  1.00  0.00    -0.331 N 
HETATM   10  O   UNL     1     -43.310 -48.785  13.758  1.00  0.00    -0.247 OA
HETATM   11  C   UNL     1     -43.886 -52.230  12.639  1.00  0.00     0.158 C 
HETATM   12  C   UNL     1     -44.582 -50.991  14.648  1.00  0.00     0.158 C 
HETATM   13  C   UNL     1     -45.325 -52.791  12.527  1.00  0.00     0.292 C 
HETATM   14  N   UNL     1     -46.080 -52.842  13.805  1.00  0.00     0.091 N 
HETATM   15  C   UNL     1     -46.015 -51.501  14.434  1.00  0.00     0.292 C 
HETATM   16  H   UNL     1     -42.736 -50.506  11.146  1.00  0.00     0.171 HD
BRANCH  14  17
HETATM   17  C   UNL     1     -45.575 -53.920  14.672  1.00  0.00     0.268 C 
HETATM   18  C   UNL     1     -45.426 -55.265  13.966  1.00  0.00     0.037 C 
ENDBRANCH  14  17
ENDBRANCH   1   7
BRANCH   5  19
HETATM   19  C   UNL     1     -39.571 -45.995  11.054  1.00  0.00     0.250 C 
BRANCH  19  20
HETATM   20  C   UNL     1     -39.673 -44.828  10.103  1.00  0.00     0.235 C 
HETATM   21  O   UNL     1     -40.433 -43.877  10.265  1.00  0.00    -0.272 OA
HETATM   22  N   UNL     1     -38.833 -44.849   9.024  1.00  0.00    -0.369 N 
HETATM   23  H   UNL     1     -38.323 -45.674   8.737  1.00  0.00     0.159 HD
HETATM   24  H   UNL     1     -38.924 -44.091   8.358  1.00  0.00     0.159 HD
ENDBRANCH  19  20
ENDBRANCH   5  19
TORSDOF 4
ENDMDL
MODEL 2
REMARK VINA RESULT:      -5.7      1.607      1.955
REMARK  4 active torsions:
REMARK  status: ('A' for Active; 'I' for Inactive)
REMARK    1  A    between atoms: C_2  and  N_3 
REMARK       I    between atoms: N_6  and  C_9 
REMARK       I    between atoms: C_9  and  N_11 
REMARK    2  A    between atoms: N_11  and  C_12 
REMARK    3  A    between atoms: N_16  and  C_17 
REMARK    4  A    between atoms: C_17  and  C_18 
REMARK       I    between atoms: C_18  and  N_20 
ROOT
HETATM    1  C   UNL     1     -41.964 -48.725  11.359  1.00  0.00     0.070 A 
HETATM    2  C   UNL     1     -42.171 -48.073  10.123  1.00  0.00     0.138 A 
HETATM    3  N   UNL     1     -41.397 -46.991   9.981  1.00  0.00    -0.307 N 
ATOM      4  HN  UNL     1     -41.352 -46.347   9.191  1.00  0.00     0.186 HD
HETATM    5  N   UNL     1     -40.690 -46.952  11.130  1.00  0.00    -0.293 N 
HETATM    6  C   UNL     1     -40.974 -47.993  11.969  1.00  0.00     0.141 A 
ENDROOT
BRANCH   1   7
HETATM    7  N   UNL     1     -42.558 -49.845  11.914  1.00  0.00    -0.306 N 
HETATM    8  C   UNL     1     -41.888 -51.020  12.139  1.00  0.00     0.323 C 
HETATM    9  N   UNL     1     -42.613 -52.050  12.711  1.00  0.00    -0.331 N 
HETATM   10  O   UNL     1     -40.695 -51.173  11.866  1.00  0.00    -0.247 OA
HETATM   11  C   UNL     1     -44.044 -52.089  13.050  1.00  0.00     0.158 C 
HETATM   12  C   UNL     1     -41.888 -53.274  13.066  1.00  0.00     0.158 C 
HETATM   13  C   UNL     1     -44.265 -52.540  14.515  1.00  0.00     0.292 C 
HETATM   14  N   UNL     1     -43.543 -53.778  14.906  1.00  0.00     0.091 N 
HETATM   15  C   UNL     1     -42.115 -53.613  14.548  1.00  0.00     0.292 C 
HETATM   16  H   UNL     1     -43.522 -49.747  12.174  1.00  0.00     0.171 HD
BRANCH  14  17
HETATM   17  C   UNL     1     -44.167 -54.965  14.297  1.00  0.00     0.268 C 
HETATM   18  C   UNL     1     -45.688 -54.893  14.215  1.00  0.00     0.037 C 
ENDBRANCH  14  17
ENDBRANCH   1   7
BRANCH   5  19
HETATM   19  C   UNL     1     -39.718 -45.885  11.294  1.00  0.00     0.250 C 
BRANCH  19  20
HETATM   20  C   UNL     1     -39.809 -44.810  10.239  1.00  0.00     0.235 C 
HETATM   21  O   UNL     1     -40.621 -43.889  10.267  1.00  0.00    -0.272 OA
HETATM   22  N   UNL     1     -38.897 -44.879   9.222  1.00  0.00    -0.369 N 
HETATM   23  H   UNL     1     -38.331 -45.698   9.042  1.00  0.00     0.159 HD
HETATM   24  H   UNL     1     -38.977 -44.187   8.487  1.00  0.00     0.159 HD
ENDBRANCH  19  20
ENDBRANCH   5  19
TORSDOF 4
ENDMDL
MODEL 3
REMARK VINA RESULT:      -5.6      3.913      4.744
REMARK  4 active torsions:
REMARK  status: ('A' for Active; 'I' for Inactive)
REMARK    1  A    between atoms: C_2  and  N_3 
REMARK       I    between atoms: N_6  and  C_9 
REMARK       I    between atoms: C_9  and  N_11 
REMARK    2  A    between atoms: N_11  and  C_12 
REMARK    3  A    between atoms: N_16  and  C_17 
REMARK    4  A    between atoms: C_17  and  C_18 
REMARK       I    between atoms: C_18  and  N_20 
ROOT
HETATM    1  C   UNL     1     -41.576 -49.520  11.919  1.00  0.00     0.070 A 
HETATM    2  C   UNL     1     -40.883 -49.025  10.791  1.00  0.00     0.138 A 
HETATM    3  N   UNL     1     -41.631 -48.196  10.056  1.00  0.00    -0.307 N 
ATOM      4  HN  UNL     1     -41.373 -47.708   9.198  1.00  0.00     0.186 HD
HETATM    5  N   UNL     1     -42.807 -48.156  10.716  1.00  0.00    -0.293 N 
HETATM    6  C   UNL     1     -42.805 -48.909  11.858  1.00  0.00     0.141 A 
ENDROOT
BRANCH   1   7
HETATM    7  N   UNL     1     -41.196 -50.405  12.912  1.00  0.00    -0.306 N 
HETATM    8  C   UNL     1     -41.232 -51.767  12.764  1.00  0.00     0.323 C 
HETATM    9  N   UNL     1     -40.811 -52.522  13.843  1.00  0.00    -0.331 N 
HETATM   10  O   UNL     1     -41.605 -52.317  11.725  1.00  0.00    -0.247 OA
HETATM   11  C   UNL     1     -40.392 -52.066  15.177  1.00  0.00     0.158 C 
HETATM   12  C   UNL     1     -40.732 -53.976  13.664  1.00  0.00     0.158 C 
HETATM   13  C   UNL     1     -39.022 -52.668  15.576  1.00  0.00     0.292 C 
HETATM   14  N   UNL     1     -38.910 -54.140  15.406  1.00  0.00     0.091 N 
HETATM   15  C   UNL     1     -39.325 -54.478  14.024  1.00  0.00     0.292 C 
HETATM   16  H   UNL     1     -40.861 -49.991  13.763  1.00  0.00     0.171 HD
BRANCH  14  17
HETATM   17  C   UNL     1     -39.682 -54.848  16.440  1.00  0.00     0.268 C 
HETATM   18  C   UNL     1     -39.123 -56.221  16.801  1.00  0.00     0.037 C 
ENDBRANCH  14  17
ENDBRANCH   1   7
BRANCH   5  19
HETATM   19  C   UNL     1     -43.859 -47.310  10.181  1.00  0.00     0.250 C 
BRANCH  19  20
HETATM   20  C   UNL     1     -43.680 -46.962   8.724  1.00  0.00     0.235 C 
HETATM   21  O   UNL     1     -43.058 -45.982   8.325  1.00  0.00    -0.272 OA
HETATM   22  N   UNL     1     -44.229 -47.830   7.821  1.00  0.00    -0.369 N 
HETATM   23  H   UNL     1     -44.900 -48.543   8.077  1.00  0.00     0.159 HD
HETATM   24  H   UNL     1     -44.151 -47.583   6.842  1.00  0.00     0.159 HD
ENDBRANCH  19  20
ENDBRANCH   5  19
TORSDOF 4
ENDMDL
MODEL 4
REMARK VINA RESULT:      -5.6      3.547      4.462
REMARK  4 active torsions:
REMARK  status: ('A' for Active; 'I' for Inactive)
REMARK    1  A    between atoms: C_2  and  N_3 
REMARK       I    between atoms: N_6  and  C_9 
REMARK       I    between atoms: C_9  and  N_11 
REMARK    2  A    between atoms: N_11  and  C_12 
REMARK    3  A    between atoms: N_16  and  C_17 
REMARK    4  A    between atoms: C_17  and  C_18 
REMARK       I    between atoms: C_18  and  N_20 
ROOT
HETATM    1  C   UNL     1     -42.115 -48.393  11.995  1.00  0.00     0.070 A 
HETATM    2  C   UNL     1     -42.985 -47.356  12.401  1.00  0.00     0.138 A 
HETATM    3  N   UNL     1     -43.473 -46.664  11.366  1.00  0.00    -0.307 N 
ATOM      4  HN  UNL     1     -44.114 -45.871  11.385  1.00  0.00     0.186 HD
HETATM    5  N   UNL     1     -42.915 -47.260  10.292  1.00  0.00    -0.293 N 
HETATM    6  C   UNL     1     -42.122 -48.324  10.623  1.00  0.00     0.141 A 
ENDROOT
BRANCH   1   7
HETATM    7  N   UNL     1     -41.388 -49.317  12.723  1.00  0.00    -0.306 N 
HETATM    8  C   UNL     1     -41.868 -50.557  13.061  1.00  0.00     0.323 C 
HETATM    9  N   UNL     1     -41.021 -51.376  13.784  1.00  0.00    -0.331 N 
HETATM   10  O   UNL     1     -42.991 -50.950  12.737  1.00  0.00    -0.247 OA
HETATM   11  C   UNL     1     -39.683 -51.075  14.315  1.00  0.00     0.158 C 
HETATM   12  C   UNL     1     -41.470 -52.746  14.055  1.00  0.00     0.158 C 
HETATM   13  C   UNL     1     -38.655 -52.159  13.904  1.00  0.00     0.292 C 
HETATM   14  N   UNL     1     -39.081 -53.558  14.166  1.00  0.00     0.091 N 
HETATM   15  C   UNL     1     -40.420 -53.754  13.563  1.00  0.00     0.292 C 
HETATM   16  H   UNL     1     -40.459 -49.041  12.980  1.00  0.00     0.171 HD
BRANCH  14  17
HETATM   17  C   UNL     1     -39.037 -53.860  15.607  1.00  0.00     0.268 C 
HETATM   18  C   UNL     1     -38.978 -55.350  15.927  1.00  0.00     0.037 C 
ENDBRANCH  14  17
ENDBRANCH   1   7
BRANCH   5  19
HETATM   19  C   UNL     1     -43.261 -46.752   8.976  1.00  0.00     0.250 C 
BRANCH  19  20
HETATM   20  C   UNL     1     -44.248 -45.611   9.003  1.00  0.00     0.235 C 
HETATM   21  O   UNL     1     -43.935 -44.438   9.187  1.00  0.00    -0.272 OA
HETATM   22  N   UNL     1     -45.557 -45.935   8.775  1.00  0.00    -0.369 N 
HETATM   23  H   UNL     1     -45.903 -46.886   8.799  1.00  0.00     0.159 HD
HETATM   24  H   UNL     1     -46.233 -45.183   8.833  1.00  0.00     0.159 HD
ENDBRANCH  19  20
ENDBRANCH   5  19
TORSDOF 4
ENDMDL
MODEL 5
REMARK VINA RESULT:      -5.5      2.270      2.739
REMARK  4 active torsions:
REMARK  status: ('A' for Active; 'I' for Inactive)
REMARK    1  A    between atoms: C_2  and  N_3 
REMARK       I    between atoms: N_6  and  C_9 
REMARK       I    between atoms: C_9  and  N_11 
REMARK    2  A    between atoms: N_11  and  C_12 
REMARK    3  A    between atoms: N_16  and  C_17 
REMARK    4  A    between atoms: C_17  and  C_18 
REMARK       I    between atoms: C_18  and  N_20 
ROOT
HETATM    1  C   UNL     1     -41.952 -48.131  10.966  1.00  0.00     0.070 A 
HETATM    2  C   UNL     1     -42.478 -47.562   9.784  1.00  0.00     0.138 A 
HETATM    3  N   UNL     1     -41.957 -46.359   9.521  1.00  0.00    -0.307 N 
ATOM      4  HN  UNL     1     -42.165 -45.739   8.738  1.00  0.00     0.186 HD
HETATM    5  N   UNL     1     -41.091 -46.157  10.537  1.00  0.00    -0.293 N 
HETATM    6  C   UNL     1     -41.032 -47.211  11.406  1.00  0.00     0.141 A 
ENDROOT
BRANCH   1   7
HETATM    7  N   UNL     1     -42.224 -49.327  11.606  1.00  0.00    -0.306 N 
HETATM    8  C   UNL     1     -41.311 -50.343  11.724  1.00  0.00     0.323 C 
HETATM    9  N   UNL     1     -41.725 -51.476  12.401  1.00  0.00    -0.331 N 
HETATM   10  O   UNL     1     -40.167 -50.271  11.269  1.00  0.00    -0.247 OA
HETATM   11  C   UNL     1     -43.052 -51.780  12.958  1.00  0.00     0.158 C 
HETATM   12  C   UNL     1     -40.729 -52.526  12.639  1.00  0.00     0.158 C 
HETATM   13  C   UNL     1     -42.955 -52.221  14.440  1.00  0.00     0.292 C 
HETATM   14  N   UNL     1     -41.954 -53.284  14.714  1.00  0.00     0.091 N 
HETATM   15  C   UNL     1     -40.657 -52.857  14.138  1.00  0.00     0.292 C 
HETATM   16  H   UNL     1     -43.137 -49.409  12.012  1.00  0.00     0.171 HD
BRANCH  14  17
HETATM   17  C   UNL     1     -42.420 -54.587  14.209  1.00  0.00     0.268 C 
HETATM   18  C   UNL     1     -43.813 -54.978  14.690  1.00  0.00     0.037 C 
ENDBRANCH  14  17
ENDBRANCH   1   7
BRANCH   5  19
HETATM   19  C   UNL     1     -40.325 -44.923  10.543  1.00  0.00     0.250 C 
BRANCH  19  20
HETATM   20  C   UNL     1     -41.154 -43.692  10.819  1.00  0.00     0.235 C 
HETATM   21  O   UNL     1     -42.377 -43.652  10.715  1.00  0.00    -0.272 OA
HETATM   22  N   UNL     1     -40.473 -42.583  11.238  1.00  0.00    -0.369 N 
HETATM   23  H   UNL     1     -39.467 -42.493  11.169  1.00  0.00     0.159 HD
HETATM   24  H   UNL     1     -41.015 -41.740  11.385  1.00  0.00     0.159 HD
ENDBRANCH  19  20
ENDBRANCH   5  19
TORSDOF 4
ENDMDL
MODEL 6
REMARK VINA RESULT:      -5.4      4.641      6.405
REMARK  4 active torsions:
REMARK  status: ('A' for Active; 'I' for Inactive)
REMARK    1  A    between atoms: C_2  and  N_3 
REMARK       I    between atoms: N_6  and  C_9 
REMARK       I    between atoms: C_9  and  N_11 
REMARK    2  A    between atoms: N_11  and  C_12 
REMARK    3  A    between atoms: N_16  and  C_17 
REMARK    4  A    between atoms: C_17  and  C_18 
REMARK       I    between atoms: C_18  and  N_20 
ROOT
HETATM    1  C   UNL     1     -41.679 -47.758  12.250  1.00  0.00     0.070 A 
HETATM    2  C   UNL     1     -42.770 -46.919  12.574  1.00  0.00     0.138 A 
HETATM    3  N   UNL     1     -43.507 -46.604  11.504  1.00  0.00    -0.307 N 
ATOM      4  HN  UNL     1     -44.340 -46.016  11.463  1.00  0.00     0.186 HD
HETATM    5  N   UNL     1     -42.888 -47.245  10.490  1.00  0.00    -0.293 N 
HETATM    6  C   UNL     1     -41.809 -47.977  10.900  1.00  0.00     0.141 A 
ENDROOT
BRANCH   1   7
HETATM    7  N   UNL     1     -40.672 -48.294  13.032  1.00  0.00    -0.306 N 
HETATM    8  C   UNL     1     -39.516 -47.624  13.336  1.00  0.00     0.323 C 
HETATM    9  N   UNL     1     -38.604 -48.287  14.138  1.00  0.00    -0.331 N 
HETATM   10  O   UNL     1     -39.281 -46.480  12.938  1.00  0.00    -0.247 OA
HETATM   11  C   UNL     1     -38.668 -49.660  14.659  1.00  0.00     0.158 C 
HETATM   12  C   UNL     1     -37.415 -47.545  14.570  1.00  0.00     0.158 C 
HETATM   13  C   UNL     1     -38.435 -49.695  16.190  1.00  0.00     0.292 C 
HETATM   14  N   UNL     1     -37.238 -48.952  16.660  1.00  0.00     0.091 N 
HETATM   15  C   UNL     1     -37.297 -47.580  16.102  1.00  0.00     0.292 C 
HETATM   16  H   UNL     1     -40.842 -49.214  13.396  1.00  0.00     0.171 HD
BRANCH  14  17
HETATM   17  C   UNL     1     -36.002 -49.673  16.313  1.00  0.00     0.268 C 
HETATM   18  C   UNL     1     -35.549 -50.674  17.372  1.00  0.00     0.037 C 
ENDBRANCH  14  17
ENDBRANCH   1   7
BRANCH   5  19
HETATM   19  C   UNL     1     -43.460 -47.124   9.160  1.00  0.00     0.250 C 
BRANCH  19  20
HETATM   20  C   UNL     1     -44.292 -45.880   8.964  1.00  0.00     0.235 C 
HETATM   21  O   UNL     1     -43.831 -44.742   8.956  1.00  0.00    -0.272 OA
HETATM   22  N   UNL     1     -45.630 -46.072   8.756  1.00  0.00    -0.369 N 
HETATM   23  H   UNL     1     -46.096 -46.953   8.930  1.00  0.00     0.159 HD
HETATM   24  H   UNL     1     -46.203 -45.242   8.666  1.00  0.00     0.159 HD
ENDBRANCH  19  20
ENDBRANCH   5  19
TORSDOF 4
ENDMDL
MODEL 7
REMARK VINA RESULT:      -5.2      3.962      4.911
REMARK  4 active torsions:
REMARK  status: ('A' for Active; 'I' for Inactive)
REMARK    1  A    between atoms: C_2  and  N_3 
REMARK       I    between atoms: N_6  and  C_9 
REMARK       I    between atoms: C_9  and  N_11 
REMARK    2  A    between atoms: N_11  and  C_12 
REMARK    3  A    between atoms: N_16  and  C_17 
REMARK    4  A    between atoms: C_17  and  C_18 
REMARK       I    between atoms: C_18  and  N_20 
ROOT
HETATM    1  C   UNL     1     -41.304 -47.722  11.578  1.00  0.00     0.070 A 
HETATM    2  C   UNL     1     -40.589 -46.641  11.015  1.00  0.00     0.138 A 
HETATM    3  N   UNL     1     -41.229 -46.092   9.977  1.00  0.00    -0.307 N 
ATOM      4  HN  UNL     1     -40.933 -45.306   9.398  1.00  0.00     0.186 HD
HETATM    5  N   UNL     1     -42.360 -46.821   9.877  1.00  0.00    -0.293 N 
HETATM    6  C   UNL     1     -42.461 -47.787  10.840  1.00  0.00     0.141 A 
ENDROOT
BRANCH   1   7
HETATM    7  N   UNL     1     -41.004 -48.571  12.629  1.00  0.00    -0.306 N 
HETATM    8  C   UNL     1     -40.675 -49.891  12.461  1.00  0.00     0.323 C 
HETATM    9  N   UNL     1     -40.390 -50.612  13.607  1.00  0.00    -0.331 N 
HETATM   10  O   UNL     1     -40.617 -50.431  11.354  1.00  0.00    -0.247 OA
HETATM   11  C   UNL     1     -40.462 -50.174  15.009  1.00  0.00     0.158 C 
HETATM   12  C   UNL     1     -39.924 -51.993  13.441  1.00  0.00     0.158 C 
HETATM   13  C   UNL     1     -39.145 -50.482  15.765  1.00  0.00     0.292 C 
HETATM   14  N   UNL     1     -38.646 -51.873  15.617  1.00  0.00     0.091 N 
HETATM   15  C   UNL     1     -38.586 -52.191  14.171  1.00  0.00     0.292 C 
HETATM   16  H   UNL     1     -41.015 -48.158  13.543  1.00  0.00     0.171 HD
BRANCH  14  17
HETATM   17  C   UNL     1     -39.475 -52.813  16.390  1.00  0.00     0.268 C 
HETATM   18  C   UNL     1     -39.017 -54.265  16.298  1.00  0.00     0.037 C 
ENDBRANCH  14  17
ENDBRANCH   1   7
BRANCH   5  19
HETATM   19  C   UNL     1     -43.310 -46.464   8.838  1.00  0.00     0.250 C 
BRANCH  19  20
HETATM   20  C   UNL     1     -43.859 -47.648   8.080  1.00  0.00     0.235 C 
HETATM   21  O   UNL     1     -45.012 -48.056   8.187  1.00  0.00    -0.272 OA
HETATM   22  N   UNL     1     -43.002 -48.260   7.207  1.00  0.00    -0.369 N 
HETATM   23  H   UNL     1     -42.003 -48.094   7.205  1.00  0.00     0.159 HD
HETATM   24  H   UNL     1     -43.347 -49.081   6.726  1.00  0.00     0.159 HD
ENDBRANCH  19  20
ENDBRANCH   5  19
TORSDOF 4
ENDMDL
MODEL 8
REMARK VINA RESULT:      -5.0      3.375      8.247
REMARK  4 active torsions:
REMARK  status: ('A' for Active; 'I' for Inactive)
REMARK    1  A    between atoms: C_2  and  N_3 
REMARK       I    between atoms: N_6  and  C_9 
REMARK       I    between atoms: C_9  and  N_11 
REMARK    2  A    between atoms: N_11  and  C_12 
REMARK    3  A    between atoms: N_16  and  C_17 
REMARK    4  A    between atoms: C_17  and  C_18 
REMARK       I    between atoms: C_18  and  N_20 
ROOT
HETATM    1  C   UNL     1     -40.761 -48.739  11.641  1.00  0.00     0.070 A 
HETATM    2  C   UNL     1     -39.632 -49.534  11.337  1.00  0.00     0.138 A 
HETATM    3  N   UNL     1     -39.861 -50.838  11.522  1.00  0.00    -0.307 N 
ATOM      4  HN  UNL     1     -39.219 -51.618  11.379  1.00  0.00     0.186 HD
HETATM    5  N   UNL     1     -41.143 -50.880  11.943  1.00  0.00    -0.293 N 
HETATM    6  C   UNL     1     -41.730 -49.647  11.995  1.00  0.00     0.141 A 
ENDROOT
BRANCH   1   7
HETATM    7  N   UNL     1     -40.951 -47.369  11.611  1.00  0.00    -0.306 N 
HETATM    8  C   UNL     1     -40.829 -46.567  12.717  1.00  0.00     0.323 C 
HETATM    9  N   UNL     1     -41.040 -45.213  12.530  1.00  0.00    -0.331 N 
HETATM   10  O   UNL     1     -40.534 -47.005  13.832  1.00  0.00    -0.247 OA
HETATM   11  C   UNL     1     -41.456 -44.508  11.308  1.00  0.00     0.158 C 
HETATM   12  C   UNL     1     -40.801 -44.325  13.673  1.00  0.00     0.158 C 
HETATM   13  C   UNL     1     -40.508 -43.325  10.989  1.00  0.00     0.292 C 
HETATM   14  N   UNL     1     -40.246 -42.407  12.126  1.00  0.00     0.091 N 
HETATM   15  C   UNL     1     -39.806 -43.220  13.284  1.00  0.00     0.292 C 
HETATM   16  H   UNL     1     -41.166 -46.975  10.714  1.00  0.00     0.171 HD
BRANCH  14  17
HETATM   17  C   UNL     1     -41.425 -41.571  12.410  1.00  0.00     0.268 C 
HETATM   18  C   UNL     1     -41.884 -40.723  11.229  1.00  0.00     0.037 C 
ENDBRANCH  14  17
ENDBRANCH   1   7
BRANCH   5  19
HETATM   19  C   UNL     1     -41.725 -52.182  12.221  1.00  0.00     0.250 C 
BRANCH  19  20
HETATM   20  C   UNL     1     -40.712 -53.233  12.604  1.00  0.00     0.235 C 
HETATM   21  O   UNL     1     -39.732 -53.015  13.310  1.00  0.00    -0.272 OA
HETATM   22  N   UNL     1     -40.950 -54.500  12.147  1.00  0.00    -0.369 N 
HETATM   23  H   UNL     1     -41.625 -54.709  11.423  1.00  0.00     0.159 HD
HETATM   24  H   UNL     1     -40.254 -55.204  12.363  1.00  0.00     0.159 HD
ENDBRANCH  19  20
ENDBRANCH   5  19
TORSDOF 4
ENDMDL
MODEL 9
REMARK VINA RESULT:      -4.9      4.621      8.788
REMARK  4 active torsions:
REMARK  status: ('A' for Active; 'I' for Inactive)
REMARK    1  A    between atoms: C_2  and  N_3 
REMARK       I    between atoms: N_6  and  C_9 
REMARK       I    between atoms: C_9  and  N_11 
REMARK    2  A    between atoms: N_11  and  C_12 
REMARK    3  A    between atoms: N_16  and  C_17 
REMARK    4  A    between atoms: C_17  and  C_18 
REMARK       I    between atoms: C_18  and  N_20 
ROOT
HETATM    1  C   UNL     1     -41.116 -52.726  13.849  1.00  0.00     0.070 A 
HETATM    2  C   UNL     1     -41.031 -53.848  12.993  1.00  0.00     0.138 A 
HETATM    3  N   UNL     1     -42.234 -54.297  12.620  1.00  0.00    -0.307 N 
ATOM      4  HN  UNL     1     -42.452 -55.087  12.013  1.00  0.00     0.186 HD
HETATM    5  N   UNL     1     -43.093 -53.457  13.236  1.00  0.00    -0.293 N 
HETATM    6  C   UNL     1     -42.463 -52.480  13.954  1.00  0.00     0.141 A 
ENDROOT
BRANCH   1   7
HETATM    7  N   UNL     1     -40.136 -51.977  14.475  1.00  0.00    -0.306 N 
HETATM    8  C   UNL     1     -39.415 -50.998  13.841  1.00  0.00     0.323 C 
HETATM    9  N   UNL     1     -38.476 -50.326  14.602  1.00  0.00    -0.331 N 
HETATM   10  O   UNL     1     -39.585 -50.703  12.656  1.00  0.00    -0.247 OA
HETATM   11  C   UNL     1     -38.082 -50.565  15.999  1.00  0.00     0.158 C 
HETATM   12  C   UNL     1     -37.776 -49.199  13.976  1.00  0.00     0.158 C 
HETATM   13  C   UNL     1     -38.134 -49.260  16.832  1.00  0.00     0.292 C 
HETATM   14  N   UNL     1     -37.434 -48.100  16.224  1.00  0.00     0.091 N 
HETATM   15  C   UNL     1     -37.930 -47.936  14.838  1.00  0.00     0.292 C 
HETATM   16  H   UNL     1     -39.990 -52.171  15.448  1.00  0.00     0.171 HD
BRANCH  14  17
HETATM   17  C   UNL     1     -35.973 -48.264  16.308  1.00  0.00     0.268 C 
HETATM   18  C   UNL     1     -35.348 -47.634  17.549  1.00  0.00     0.037 C 
ENDBRANCH  14  17
ENDBRANCH   1   7
BRANCH   5  19
HETATM   19  C   UNL     1     -44.516 -53.659  13.018  1.00  0.00     0.250 C 
BRANCH  19  20
HETATM   20  C   UNL     1     -45.136 -54.675  13.946  1.00  0.00     0.235 C 
HETATM   21  O   UNL     1     -44.502 -55.556  14.519  1.00  0.00    -0.272 OA
HETATM   22  N   UNL     1     -46.481 -54.557  14.161  1.00  0.00    -0.369 N 
HETATM   23  H   UNL     1     -47.085 -53.980  13.589  1.00  0.00     0.159 HD
HETATM   24  H   UNL     1     -46.915 -55.259  14.749  1.00  0.00     0.159 HD
ENDBRANCH  19  20
ENDBRANCH   5  19
TORSDOF 4
ENDMDL
