MODEL 1
REMARK VINA RESULT:      -6.2      0.000      0.000
REMARK  6 active torsions:
REMARK  status: ('A' for Active; 'I' for Inactive)
REMARK    1  A    between atoms: O_2  and  C_3 
REMARK    2  A    between atoms: C_3  and  C_4 
REMARK    3  A    between atoms: C_4  and  O_5 
REMARK    4  A    between atoms: O_5  and  C_6 
REMARK    5  A    between atoms: C_9  and  N_10 
REMARK       I    between atoms: N_10  and  C_11 
REMARK    6  A    between atoms: C_11  and  C_13 
ROOT
HETATM    1  N   UNL     1     -41.964 -50.292  11.715  1.00  0.00    -0.321 N 
HETATM    2  C   UNL     1     -41.181 -49.224  11.315  1.00  0.00     0.270 C 
HETATM    3  O   UNL     1     -39.964 -49.140  11.407  1.00  0.00    -0.266 OA
HETATM    4  H   UNL     1     -42.944 -50.263  11.450  1.00  0.00     0.169 HD
ENDROOT
BRANCH   1   5
HETATM    5  C   UNL     1     -41.468 -51.435  12.401  1.00  0.00     0.050 A 
HETATM    6  C   UNL     1     -41.167 -51.434  13.764  1.00  0.00     0.035 A 
HETATM    7  C   UNL     1     -40.699 -52.589  14.388  1.00  0.00     0.058 A 
HETATM    8  C   UNL     1     -40.522 -53.726  13.625  1.00  0.00     0.141 A 
HETATM    9  N   UNL     1     -40.803 -53.786  12.306  1.00  0.00    -0.345 N 
HETATM   10  C   UNL     1     -41.274 -52.643  11.732  1.00  0.00     0.119 A 
ATOM     11  HN  UNL     1     -40.670 -54.641  11.768  1.00  0.00     0.167 HD
BRANCH   8  12
HETATM   12  O   UNL     1     -40.136 -54.857  14.314  1.00  0.00    -0.334 OA
BRANCH  12  13
HETATM   13  C   UNL     1     -38.991 -54.664  15.143  1.00  0.00     0.203 C 
BRANCH  13  14
HETATM   14  C   UNL     1     -39.286 -55.273  16.514  1.00  0.00     0.193 C 
BRANCH  14  15
HETATM   15  O   UNL     1     -38.931 -56.656  16.514  1.00  0.00    -0.394 OA
HETATM   16  C   UNL     1     -39.801 -57.422  17.338  1.00  0.00     0.201 C 
ENDBRANCH  14  15
ENDBRANCH  13  14
ENDBRANCH  12  13
ENDBRANCH   8  12
ENDBRANCH   1   5
BRANCH   2  17
HETATM   17  C   UNL     1     -41.891 -48.039  10.667  1.00  0.00     0.094 A 
HETATM   18  N   UNL     1     -43.021 -48.199  10.053  1.00  0.00    -0.295 N 
HETATM   19  N   UNL     1     -43.628 -47.088   9.505  1.00  0.00    -0.265 N 
ATOM     20  HN  UNL     1     -43.451 -49.121   9.978  1.00  0.00     0.187 HD
HETATM   21  C   UNL     1     -44.905 -47.295   8.839  1.00  0.00     0.181 C 
HETATM   22  C   UNL     1     -43.155 -45.784   9.553  1.00  0.00     0.238 A 
HETATM   23  O   UNL     1     -43.763 -44.832   9.055  1.00  0.00    -0.272 OA
HETATM   24  C   UNL     1     -41.844 -45.538  10.232  1.00  0.00     0.111 A 
HETATM   25  C   UNL     1     -41.166 -46.736  10.829  1.00  0.00     0.073 A 
ENDBRANCH   2  17
TORSDOF 6
ENDMDL
MODEL 2
REMARK VINA RESULT:      -6.0      1.556      2.040
REMARK  6 active torsions:
REMARK  status: ('A' for Active; 'I' for Inactive)
REMARK    1  A    between atoms: O_2  and  C_3 
REMARK    2  A    between atoms: C_3  and  C_4 
REMARK    3  A    between atoms: C_4  and  O_5 
REMARK    4  A    between atoms: O_5  and  C_6 
REMARK    5  A    between atoms: C_9  and  N_10 
REMARK       I    between atoms: N_10  and  C_11 
REMARK    6  A    between atoms: C_11  and  C_13 
ROOT
HETATM    1  N   UNL     1     -40.836 -50.642  12.400  1.00  0.00    -0.321 N 
HETATM    2  C   UNL     1     -40.070 -49.728  11.699  1.00  0.00     0.270 C 
HETATM    3  O   UNL     1     -38.901 -49.864  11.365  1.00  0.00    -0.266 OA
HETATM    4  H   UNL     1     -41.827 -50.436  12.485  1.00  0.00     0.169 HD
ENDROOT
BRANCH   1   5
HETATM    5  C   UNL     1     -40.336 -51.860  12.937  1.00  0.00     0.050 A 
HETATM    6  C   UNL     1     -39.370 -51.911  13.943  1.00  0.00     0.035 A 
HETATM    7  C   UNL     1     -38.928 -53.134  14.442  1.00  0.00     0.058 A 
HETATM    8  C   UNL     1     -39.454 -54.293  13.908  1.00  0.00     0.141 A 
HETATM    9  N   UNL     1     -40.394 -54.305  12.940  1.00  0.00    -0.345 N 
HETATM   10  C   UNL     1     -40.815 -53.091  12.486  1.00  0.00     0.119 A 
ATOM     11  HN  UNL     1     -40.770 -55.176  12.569  1.00  0.00     0.167 HD
BRANCH   8  12
HETATM   12  O   UNL     1     -39.039 -55.469  14.500  1.00  0.00    -0.334 OA
BRANCH  12  13
HETATM   13  C   UNL     1     -38.773 -55.347  15.897  1.00  0.00     0.203 C 
BRANCH  13  14
HETATM   14  C   UNL     1     -39.940 -55.971  16.662  1.00  0.00     0.193 C 
BRANCH  14  15
HETATM   15  O   UNL     1     -39.761 -57.385  16.745  1.00  0.00    -0.394 OA
HETATM   16  C   UNL     1     -39.031 -57.755  17.908  1.00  0.00     0.201 C 
ENDBRANCH  14  15
ENDBRANCH  13  14
ENDBRANCH  12  13
ENDBRANCH   8  12
ENDBRANCH   1   5
BRANCH   2  17
HETATM   17  C   UNL     1     -40.747 -48.431  11.269  1.00  0.00     0.094 A 
HETATM   18  N   UNL     1     -40.047 -47.369  11.018  1.00  0.00    -0.295 N 
HETATM   19  N   UNL     1     -40.710 -46.230  10.612  1.00  0.00    -0.265 N 
ATOM     20  HN  UNL     1     -39.031 -47.376  11.119  1.00  0.00     0.187 HD
HETATM   21  C   UNL     1     -39.896 -45.061  10.320  1.00  0.00     0.181 C 
HETATM   22  C   UNL     1     -42.079 -46.098  10.425  1.00  0.00     0.238 A 
HETATM   23  O   UNL     1     -42.605 -45.050  10.039  1.00  0.00    -0.272 OA
HETATM   24  C   UNL     1     -42.945 -47.285  10.716  1.00  0.00     0.111 A 
HETATM   25  C   UNL     1     -42.240 -48.531  11.165  1.00  0.00     0.073 A 
ENDBRANCH   2  17
TORSDOF 6
ENDMDL
MODEL 3
REMARK VINA RESULT:      -5.9      1.542      1.985
REMARK  6 active torsions:
REMARK  status: ('A' for Active; 'I' for Inactive)
REMARK    1  A    between atoms: O_2  and  C_3 
REMARK    2  A    between atoms: C_3  and  C_4 
REMARK    3  A    between atoms: C_4  and  O_5 
REMARK    4  A    between atoms: O_5  and  C_6 
REMARK    5  A    between atoms: C_9  and  N_10 
REMARK       I    between atoms: N_10  and  C_11 
REMARK    6  A    between atoms: C_11  and  C_13 
ROOT
HETATM    1  N   UNL     1     -42.272 -50.186  11.937  1.00  0.00    -0.321 N 
HETATM    2  C   UNL     1     -41.436 -49.257  11.343  1.00  0.00     0.270 C 
HETATM    3  O   UNL     1     -40.215 -49.315  11.278  1.00  0.00    -0.266 OA
HETATM    4  H   UNL     1     -43.269 -50.059  11.792  1.00  0.00     0.169 HD
ENDROOT
BRANCH   1   5
HETATM    5  C   UNL     1     -41.819 -51.319  12.666  1.00  0.00     0.050 A 
HETATM    6  C   UNL     1     -41.433 -51.260  14.007  1.00  0.00     0.035 A 
HETATM    7  C   UNL     1     -41.012 -52.407  14.676  1.00  0.00     0.058 A 
HETATM    8  C   UNL     1     -40.968 -53.598  13.979  1.00  0.00     0.141 A 
HETATM    9  N   UNL     1     -41.335 -53.716  12.686  1.00  0.00    -0.345 N 
HETATM   10  C   UNL     1     -41.757 -52.577  12.067  1.00  0.00     0.119 A 
ATOM     11  HN  UNL     1     -41.300 -54.610  12.198  1.00  0.00     0.167 HD
BRANCH   8  12
HETATM   12  O   UNL     1     -40.623 -54.712  14.717  1.00  0.00    -0.334 OA
BRANCH  12  13
HETATM   13  C   UNL     1     -41.397 -54.879  15.905  1.00  0.00     0.203 C 
BRANCH  13  14
HETATM   14  C   UNL     1     -42.642 -55.692  15.553  1.00  0.00     0.193 C 
BRANCH  14  15
HETATM   15  O   UNL     1     -43.802 -54.867  15.653  1.00  0.00    -0.394 OA
HETATM   16  C   UNL     1     -44.479 -54.758  14.407  1.00  0.00     0.201 C 
ENDBRANCH  14  15
ENDBRANCH  13  14
ENDBRANCH  12  13
ENDBRANCH   8  12
ENDBRANCH   1   5
BRANCH   2  17
HETATM   17  C   UNL     1     -42.090 -48.053  10.674  1.00  0.00     0.094 A 
HETATM   18  N   UNL     1     -43.246 -48.161  10.097  1.00  0.00    -0.295 N 
HETATM   19  N   UNL     1     -43.799 -47.034   9.527  1.00  0.00    -0.265 N 
ATOM     20  HN  UNL     1     -43.733 -49.057  10.066  1.00  0.00     0.187 HD
HETATM   21  C   UNL     1     -45.105 -47.183   8.904  1.00  0.00     0.181 C 
HETATM   22  C   UNL     1     -43.245 -45.761   9.516  1.00  0.00     0.238 A 
HETATM   23  O   UNL     1     -43.808 -44.790   9.002  1.00  0.00    -0.272 OA
HETATM   24  C   UNL     1     -41.902 -45.575  10.150  1.00  0.00     0.111 A 
HETATM   25  C   UNL     1     -41.282 -46.792  10.770  1.00  0.00     0.073 A 
ENDBRANCH   2  17
TORSDOF 6
ENDMDL
MODEL 4
REMARK VINA RESULT:      -5.8      3.047      8.893
REMARK  6 active torsions:
REMARK  status: ('A' for Active; 'I' for Inactive)
REMARK    1  A    between atoms: O_2  and  C_3 
REMARK    2  A    between atoms: C_3  and  C_4 
REMARK    3  A    between atoms: C_4  and  O_5 
REMARK    4  A    between atoms: O_5  and  C_6 
REMARK    5  A    between atoms: C_9  and  N_10 
REMARK       I    between atoms: N_10  and  C_11 
REMARK    6  A    between atoms: C_11  and  C_13 
ROOT
HETATM    1  N   UNL     1     -43.168 -49.639  12.250  1.00  0.00    -0.321 N 
HETATM    2  C   UNL     1     -42.399 -50.524  12.986  1.00  0.00     0.270 C 
HETATM    3  O   UNL     1     -41.251 -50.345  13.367  1.00  0.00    -0.266 OA
HETATM    4  H   UNL     1     -44.147 -49.881  12.126  1.00  0.00     0.169 HD
ENDROOT
BRANCH   1   5
HETATM    5  C   UNL     1     -42.689 -48.406  11.729  1.00  0.00     0.050 A 
HETATM    6  C   UNL     1     -43.031 -47.165  12.270  1.00  0.00     0.035 A 
HETATM    7  C   UNL     1     -42.519 -45.989  11.727  1.00  0.00     0.058 A 
HETATM    8  C   UNL     1     -41.682 -46.077  10.632  1.00  0.00     0.141 A 
HETATM    9  N   UNL     1     -41.312 -47.248  10.073  1.00  0.00    -0.345 N 
HETATM   10  C   UNL     1     -41.819 -48.379  10.639  1.00  0.00     0.119 A 
ATOM     11  HN  UNL     1     -40.687 -47.285   9.269  1.00  0.00     0.167 HD
BRANCH   8  12
HETATM   12  O   UNL     1     -41.141 -44.886  10.193  1.00  0.00    -0.334 OA
BRANCH  12  13
HETATM   13  C   UNL     1     -40.310 -44.240  11.156  1.00  0.00     0.203 C 
BRANCH  13  14
HETATM   14  C   UNL     1     -40.827 -42.815  11.354  1.00  0.00     0.193 C 
BRANCH  14  15
HETATM   15  O   UNL     1     -41.940 -42.581  10.491  1.00  0.00    -0.394 OA
HETATM   16  C   UNL     1     -43.097 -42.189  11.218  1.00  0.00     0.201 C 
ENDBRANCH  14  15
ENDBRANCH  13  14
ENDBRANCH  12  13
ENDBRANCH   8  12
ENDBRANCH   1   5
BRANCH   2  17
HETATM   17  C   UNL     1     -43.047 -51.843  13.395  1.00  0.00     0.094 A 
HETATM   18  N   UNL     1     -44.327 -51.920  13.592  1.00  0.00    -0.295 N 
HETATM   19  N   UNL     1     -44.861 -53.143  13.938  1.00  0.00    -0.265 N 
ATOM     20  HN  UNL     1     -44.922 -51.098  13.492  1.00  0.00     0.187 HD
HETATM   21  C   UNL     1     -46.301 -53.203  14.134  1.00  0.00     0.181 C 
HETATM   22  C   UNL     1     -44.162 -54.333  14.089  1.00  0.00     0.238 A 
HETATM   23  O   UNL     1     -44.710 -55.399  14.383  1.00  0.00    -0.272 OA
HETATM   24  C   UNL     1     -42.678 -54.305  13.893  1.00  0.00     0.111 A 
HETATM   25  C   UNL     1     -42.079 -52.981  13.522  1.00  0.00     0.073 A 
ENDBRANCH   2  17
TORSDOF 6
ENDMDL
MODEL 5
REMARK VINA RESULT:      -5.7      3.296      8.999
REMARK  6 active torsions:
REMARK  status: ('A' for Active; 'I' for Inactive)
REMARK    1  A    between atoms: O_2  and  C_3 
REMARK    2  A    between atoms: C_3  and  C_4 
REMARK    3  A    between atoms: C_4  and  O_5 
REMARK    4  A    between atoms: O_5  and  C_6 
REMARK    5  A    between atoms: C_9  and  N_10 
REMARK       I    between atoms: N_10  and  C_11 
REMARK    6  A    between atoms: C_11  and  C_13 
ROOT
HETATM    1  N   UNL     1     -43.225 -49.590  12.029  1.00  0.00    -0.321 N 
HETATM    2  C   UNL     1     -43.340 -49.814  13.390  1.00  0.00     0.270 C 
HETATM    3  O   UNL     1     -43.076 -49.021  14.282  1.00  0.00    -0.266 OA
HETATM    4  H   UNL     1     -43.609 -50.303  11.416  1.00  0.00     0.169 HD
ENDROOT
BRANCH   1   5
HETATM    5  C   UNL     1     -42.671 -48.412  11.457  1.00  0.00     0.050 A 
HETATM    6  C   UNL     1     -43.417 -47.255  11.222  1.00  0.00     0.035 A 
HETATM    7  C   UNL     1     -42.817 -46.124  10.673  1.00  0.00     0.058 A 
HETATM    8  C   UNL     1     -41.475 -46.178  10.351  1.00  0.00     0.141 A 
HETATM    9  N   UNL     1     -40.705 -47.266  10.563  1.00  0.00    -0.345 N 
HETATM   10  C   UNL     1     -41.320 -48.349  11.116  1.00  0.00     0.119 A 
ATOM     11  HN  UNL     1     -39.714 -47.276  10.323  1.00  0.00     0.167 HD
BRANCH   8  12
HETATM   12  O   UNL     1     -40.921 -45.002   9.890  1.00  0.00    -0.334 OA
BRANCH  12  13
HETATM   13  C   UNL     1     -39.937 -44.448  10.763  1.00  0.00     0.203 C 
BRANCH  13  14
HETATM   14  C   UNL     1     -40.561 -43.256  11.489  1.00  0.00     0.193 C 
BRANCH  14  15
HETATM   15  O   UNL     1     -41.582 -42.677  10.677  1.00  0.00    -0.394 OA
HETATM   16  C   UNL     1     -41.915 -41.363  11.108  1.00  0.00     0.201 C 
ENDBRANCH  14  15
ENDBRANCH  13  14
ENDBRANCH  12  13
ENDBRANCH   8  12
ENDBRANCH   1   5
BRANCH   2  17
HETATM   17  C   UNL     1     -43.878 -51.171  13.833  1.00  0.00     0.094 A 
HETATM   18  N   UNL     1     -43.084 -52.187  13.968  1.00  0.00    -0.295 N 
HETATM   19  N   UNL     1     -43.623 -53.384  14.393  1.00  0.00    -0.265 N 
ATOM     20  HN  UNL     1     -42.088 -52.103  13.767  1.00  0.00     0.187 HD
HETATM   21  C   UNL     1     -42.704 -54.500  14.554  1.00  0.00     0.181 C 
HETATM   22  C   UNL     1     -44.953 -53.621  14.711  1.00  0.00     0.238 A 
HETATM   23  O   UNL     1     -45.362 -54.717  15.105  1.00  0.00    -0.272 OA
HETATM   24  C   UNL     1     -45.923 -52.491  14.557  1.00  0.00     0.111 A 
HETATM   25  C   UNL     1     -45.356 -51.183  14.090  1.00  0.00     0.073 A 
ENDBRANCH   2  17
TORSDOF 6
ENDMDL
MODEL 6
REMARK VINA RESULT:      -5.7      2.204      9.007
REMARK  6 active torsions:
REMARK  status: ('A' for Active; 'I' for Inactive)
REMARK    1  A    between atoms: O_2  and  C_3 
REMARK    2  A    between atoms: C_3  and  C_4 
REMARK    3  A    between atoms: C_4  and  O_5 
REMARK    4  A    between atoms: O_5  and  C_6 
REMARK    5  A    between atoms: C_9  and  N_10 
REMARK       I    between atoms: N_10  and  C_11 
REMARK    6  A    between atoms: C_11  and  C_13 
ROOT
HETATM    1  N   UNL     1     -41.516 -51.226  13.155  1.00  0.00    -0.321 N 
HETATM    2  C   UNL     1     -42.152 -52.450  13.041  1.00  0.00     0.270 C 
HETATM    3  O   UNL     1     -42.937 -52.782  12.163  1.00  0.00    -0.266 OA
HETATM    4  H   UNL     1     -40.794 -51.153  13.865  1.00  0.00     0.169 HD
ENDROOT
BRANCH   1   5
HETATM    5  C   UNL     1     -41.766 -50.113  12.307  1.00  0.00     0.050 A 
HETATM    6  C   UNL     1     -42.817 -49.217  12.513  1.00  0.00     0.035 A 
HETATM    7  C   UNL     1     -43.005 -48.133  11.658  1.00  0.00     0.058 A 
HETATM    8  C   UNL     1     -42.140 -47.976  10.593  1.00  0.00     0.141 A 
HETATM    9  N   UNL     1     -41.104 -48.805  10.350  1.00  0.00    -0.345 N 
HETATM   10  C   UNL     1     -40.940 -49.845  11.215  1.00  0.00     0.119 A 
ATOM     11  HN  UNL     1     -40.476 -48.661   9.560  1.00  0.00     0.167 HD
BRANCH   8  12
HETATM   12  O   UNL     1     -42.326 -46.840   9.833  1.00  0.00    -0.334 OA
BRANCH  12  13
HETATM   13  C   UNL     1     -43.642 -46.715   9.295  1.00  0.00     0.203 C 
BRANCH  13  14
HETATM   14  C   UNL     1     -43.740 -47.610   8.060  1.00  0.00     0.193 C 
BRANCH  14  15
HETATM   15  O   UNL     1     -45.027 -48.224   8.009  1.00  0.00    -0.394 OA
HETATM   16  C   UNL     1     -45.877 -47.750   9.047  1.00  0.00     0.201 C 
ENDBRANCH  14  15
ENDBRANCH  13  14
ENDBRANCH  12  13
ENDBRANCH   8  12
ENDBRANCH   1   5
BRANCH   2  17
HETATM   17  C   UNL     1     -41.828 -53.508  14.090  1.00  0.00     0.094 A 
HETATM   18  N   UNL     1     -40.624 -53.634  14.555  1.00  0.00    -0.295 N 
HETATM   19  N   UNL     1     -40.393 -54.594  15.518  1.00  0.00    -0.265 N 
ATOM     20  HN  UNL     1     -39.867 -53.038  14.217  1.00  0.00     0.187 HD
HETATM   21  C   UNL     1     -39.037 -54.698  16.034  1.00  0.00     0.181 C 
HETATM   22  C   UNL     1     -41.336 -55.452  16.067  1.00  0.00     0.238 A 
HETATM   23  O   UNL     1     -41.062 -56.277  16.943  1.00  0.00    -0.272 OA
HETATM   24  C   UNL     1     -42.742 -55.368  15.557  1.00  0.00     0.111 A 
HETATM   25  C   UNL     1     -43.009 -54.334  14.504  1.00  0.00     0.073 A 
ENDBRANCH   2  17
TORSDOF 6
ENDMDL
MODEL 7
REMARK VINA RESULT:      -5.2      4.690      7.137
REMARK  6 active torsions:
REMARK  status: ('A' for Active; 'I' for Inactive)
REMARK    1  A    between atoms: O_2  and  C_3 
REMARK    2  A    between atoms: C_3  and  C_4 
REMARK    3  A    between atoms: C_4  and  O_5 
REMARK    4  A    between atoms: O_5  and  C_6 
REMARK    5  A    between atoms: C_9  and  N_10 
REMARK       I    between atoms: N_10  and  C_11 
REMARK    6  A    between atoms: C_11  and  C_13 
ROOT
HETATM    1  N   UNL     1     -40.187 -50.869  14.499  1.00  0.00    -0.321 N 
HETATM    2  C   UNL     1     -38.869 -50.963  14.088  1.00  0.00     0.270 C 
HETATM    3  O   UNL     1     -38.441 -51.652  13.172  1.00  0.00    -0.266 OA
HETATM    4  H   UNL     1     -40.399 -50.153  15.188  1.00  0.00     0.169 HD
ENDROOT
BRANCH   1   5
HETATM    5  C   UNL     1     -41.247 -51.655  13.971  1.00  0.00     0.050 A 
HETATM    6  C   UNL     1     -41.749 -52.788  14.614  1.00  0.00     0.035 A 
HETATM    7  C   UNL     1     -42.802 -53.512  14.057  1.00  0.00     0.058 A 
HETATM    8  C   UNL     1     -43.324 -53.095  12.849  1.00  0.00     0.141 A 
HETATM    9  N   UNL     1     -42.883 -52.004  12.188  1.00  0.00    -0.345 N 
HETATM   10  C   UNL     1     -41.864 -51.311  12.768  1.00  0.00     0.119 A 
ATOM     11  HN  UNL     1     -43.291 -51.714  11.300  1.00  0.00     0.167 HD
BRANCH   8  12
HETATM   12  O   UNL     1     -44.416 -53.802  12.391  1.00  0.00    -0.334 OA
BRANCH  12  13
HETATM   13  C   UNL     1     -45.614 -53.549  13.125  1.00  0.00     0.203 C 
BRANCH  13  14
HETATM   14  C   UNL     1     -46.346 -52.384  12.459  1.00  0.00     0.193 C 
BRANCH  14  15
HETATM   15  O   UNL     1     -46.338 -51.251  13.327  1.00  0.00    -0.394 OA
HETATM   16  C   UNL     1     -46.722 -51.599  14.651  1.00  0.00     0.201 C 
ENDBRANCH  14  15
ENDBRANCH  13  14
ENDBRANCH  12  13
ENDBRANCH   8  12
ENDBRANCH   1   5
BRANCH   2  17
HETATM   17  C   UNL     1     -37.843 -50.105  14.822  1.00  0.00     0.094 A 
HETATM   18  N   UNL     1     -37.145 -50.596  15.798  1.00  0.00    -0.295 N 
HETATM   19  N   UNL     1     -36.217 -49.781  16.411  1.00  0.00    -0.265 N 
ATOM     20  HN  UNL     1     -37.278 -51.561  16.103  1.00  0.00     0.187 HD
HETATM   21  C   UNL     1     -35.435 -50.366  17.489  1.00  0.00     0.181 C 
HETATM   22  C   UNL     1     -35.932 -48.463  16.080  1.00  0.00     0.238 A 
HETATM   23  O   UNL     1     -35.072 -47.797  16.661  1.00  0.00    -0.272 OA
HETATM   24  C   UNL     1     -36.720 -47.833  14.973  1.00  0.00     0.111 A 
HETATM   25  C   UNL     1     -37.738 -48.704  14.299  1.00  0.00     0.073 A 
ENDBRANCH   2  17
TORSDOF 6
ENDMDL
MODEL 8
REMARK VINA RESULT:      -5.2      1.705      2.135
REMARK  6 active torsions:
REMARK  status: ('A' for Active; 'I' for Inactive)
REMARK    1  A    between atoms: O_2  and  C_3 
REMARK    2  A    between atoms: C_3  and  C_4 
REMARK    3  A    between atoms: C_4  and  O_5 
REMARK    4  A    between atoms: O_5  and  C_6 
REMARK    5  A    between atoms: C_9  and  N_10 
REMARK       I    between atoms: N_10  and  C_11 
REMARK    6  A    between atoms: C_11  and  C_13 
ROOT
HETATM    1  N   UNL     1     -42.078 -50.896  12.977  1.00  0.00    -0.321 N 
HETATM    2  C   UNL     1     -41.027 -50.438  12.201  1.00  0.00     0.270 C 
HETATM    3  O   UNL     1     -39.977 -51.027  11.979  1.00  0.00    -0.266 OA
HETATM    4  H   UNL     1     -42.932 -50.347  12.955  1.00  0.00     0.169 HD
ENDROOT
BRANCH   1   5
HETATM    5  C   UNL     1     -42.049 -52.100  13.731  1.00  0.00     0.050 A 
HETATM    6  C   UNL     1     -42.749 -53.250  13.359  1.00  0.00     0.035 A 
HETATM    7  C   UNL     1     -42.671 -54.409  14.130  1.00  0.00     0.058 A 
HETATM    8  C   UNL     1     -41.903 -54.388  15.277  1.00  0.00     0.141 A 
HETATM    9  N   UNL     1     -41.201 -53.309  15.680  1.00  0.00    -0.345 N 
HETATM   10  C   UNL     1     -41.287 -52.198  14.895  1.00  0.00     0.119 A 
ATOM     11  HN  UNL     1     -40.635 -53.323  16.528  1.00  0.00     0.167 HD
BRANCH   8  12
HETATM   12  O   UNL     1     -41.799 -55.587  15.950  1.00  0.00    -0.334 OA
BRANCH  12  13
HETATM   13  C   UNL     1     -40.515 -55.812  16.532  1.00  0.00     0.203 C 
BRANCH  13  14
HETATM   14  C   UNL     1     -40.544 -57.165  17.244  1.00  0.00     0.193 C 
BRANCH  14  15
HETATM   15  O   UNL     1     -39.267 -57.794  17.136  1.00  0.00    -0.394 OA
HETATM   16  C   UNL     1     -38.991 -58.619  18.261  1.00  0.00     0.201 C 
ENDBRANCH  14  15
ENDBRANCH  13  14
ENDBRANCH  12  13
ENDBRANCH   8  12
ENDBRANCH   1   5
BRANCH   2  17
HETATM   17  C   UNL     1     -41.194 -49.081  11.526  1.00  0.00     0.094 A 
HETATM   18  N   UNL     1     -42.221 -48.837  10.773  1.00  0.00    -0.295 N 
HETATM   19  N   UNL     1     -42.331 -47.585  10.206  1.00  0.00    -0.265 N 
ATOM     20  HN  UNL     1     -42.929 -49.552  10.604  1.00  0.00     0.187 HD
HETATM   21  C   UNL     1     -43.504 -47.334   9.381  1.00  0.00     0.181 C 
HETATM   22  C   UNL     1     -41.447 -46.526  10.369  1.00  0.00     0.238 A 
HETATM   23  O   UNL     1     -41.620 -45.423   9.844  1.00  0.00    -0.272 OA
HETATM   24  C   UNL     1     -40.231 -46.752  11.213  1.00  0.00     0.111 A 
HETATM   25  C   UNL     1     -40.092 -48.111  11.832  1.00  0.00     0.073 A 
ENDBRANCH   2  17
TORSDOF 6
ENDMDL
MODEL 9
REMARK VINA RESULT:      -5.2      4.692      7.476
REMARK  6 active torsions:
REMARK  status: ('A' for Active; 'I' for Inactive)
REMARK    1  A    between atoms: O_2  and  C_3 
REMARK    2  A    between atoms: C_3  and  C_4 
REMARK    3  A    between atoms: C_4  and  O_5 
REMARK    4  A    between atoms: O_5  and  C_6 
REMARK    5  A    between atoms: C_9  and  N_10 
REMARK       I    between atoms: N_10  and  C_11 
REMARK    6  A    between atoms: C_11  and  C_13 
ROOT
HETATM    1  N   UNL     1     -39.850 -55.532  15.727  1.00  0.00    -0.321 N 
HETATM    2  C   UNL     1     -41.039 -54.952  16.133  1.00  0.00     0.270 C 
HETATM    3  O   UNL     1     -41.387 -54.740  17.287  1.00  0.00    -0.266 OA
HETATM    4  H   UNL     1     -39.654 -55.519  14.731  1.00  0.00     0.169 HD
ENDROOT
BRANCH   1   5
HETATM    5  C   UNL     1     -38.880 -56.073  16.615  1.00  0.00     0.050 A 
HETATM    6  C   UNL     1     -39.152 -57.123  17.495  1.00  0.00     0.035 A 
HETATM    7  C   UNL     1     -38.156 -57.623  18.331  1.00  0.00     0.058 A 
HETATM    8  C   UNL     1     -36.903 -57.047  18.283  1.00  0.00     0.141 A 
HETATM    9  N   UNL     1     -36.582 -56.036  17.449  1.00  0.00    -0.345 N 
HETATM   10  C   UNL     1     -37.575 -55.582  16.634  1.00  0.00     0.119 A 
ATOM     11  HN  UNL     1     -35.645 -55.634  17.429  1.00  0.00     0.167 HD
BRANCH   8  12
HETATM   12  O   UNL     1     -35.939 -57.640  19.074  1.00  0.00    -0.334 OA
BRANCH  12  13
HETATM   13  C   UNL     1     -34.681 -56.967  19.050  1.00  0.00     0.203 C 
BRANCH  13  14
HETATM   14  C   UNL     1     -33.745 -57.736  18.117  1.00  0.00     0.193 C 
BRANCH  14  15
HETATM   15  O   UNL     1     -33.695 -57.090  16.846  1.00  0.00    -0.394 OA
HETATM   16  C   UNL     1     -32.803 -55.982  16.854  1.00  0.00     0.201 C 
ENDBRANCH  14  15
ENDBRANCH  13  14
ENDBRANCH  12  13
ENDBRANCH   8  12
ENDBRANCH   1   5
BRANCH   2  17
HETATM   17  C   UNL     1     -42.007 -54.502  15.044  1.00  0.00     0.094 A 
HETATM   18  N   UNL     1     -41.636 -53.651  14.138  1.00  0.00    -0.295 N 
HETATM   19  N   UNL     1     -42.546 -53.297  13.165  1.00  0.00    -0.265 N 
ATOM     20  HN  UNL     1     -40.696 -53.255  14.145  1.00  0.00     0.187 HD
HETATM   21  C   UNL     1     -42.095 -52.355  12.151  1.00  0.00     0.181 C 
HETATM   22  C   UNL     1     -43.844 -53.774  13.038  1.00  0.00     0.238 A 
HETATM   23  O   UNL     1     -44.599 -53.425  12.127  1.00  0.00    -0.272 OA
HETATM   24  C   UNL     1     -44.337 -54.745  14.065  1.00  0.00     0.111 A 
HETATM   25  C   UNL     1     -43.362 -55.137  15.136  1.00  0.00     0.073 A 
ENDBRANCH   2  17
TORSDOF 6
ENDMDL
