MODEL 1
REMARK VINA RESULT:      -4.0      0.000      0.000
REMARK  3 active torsions:
REMARK  status: ('A' for Active; 'I' for Inactive)
REMARK    1  A    between atoms: N_5  and  C_6 
REMARK    2  A    between atoms: C_6  and  C_7 
REMARK    3  A    between atoms: C_7  and  C_8 
ROOT
HETATM    1  C   UNL     3     -44.625 -47.118   9.317  1.00  0.00     0.027 A 
HETATM    2  C   UNL     3     -43.749 -46.247   8.703  1.00  0.00     0.114 A 
HETATM    3  N   UNL     3     -42.512 -46.533   9.140  1.00  0.00    -0.360 N 
HETATM    4  C   UNL     3     -42.652 -47.559  10.000  1.00  0.00     0.180 A 
HETATM    5  N   UNL     3     -43.938 -47.944  10.132  1.00  0.00    -0.355 N 
ATOM      6  HN  UNL     3     -44.309 -48.692  10.717  1.00  0.00     0.166 HD
HETATM    7  H   UNL     3     -41.624 -46.056   8.868  1.00  0.00     0.166 HD
ENDROOT
BRANCH   1   8
HETATM    8  C   UNL     3     -46.109 -47.166   9.126  1.00  0.00     0.088 C 
BRANCH   8   9
HETATM    9  C   UNL     3     -46.531 -48.512   8.537  1.00  0.00     0.272 C 
BRANCH   9  10
HETATM   10  N   UNL     3     -45.880 -48.731   7.250  1.00  0.00     0.078 N 
HETATM   11  H   UNL     3     -46.234 -49.625   6.841  1.00  0.00     0.312 HD
HETATM   12  H   UNL     3     -44.850 -48.835   7.401  1.00  0.00     0.312 HD
ENDBRANCH   9  10
ENDBRANCH   8   9
ENDBRANCH   1   8
TORSDOF 3
ENDMDL
MODEL 2
REMARK VINA RESULT:      -3.9      1.978      3.963
REMARK  3 active torsions:
REMARK  status: ('A' for Active; 'I' for Inactive)
REMARK    1  A    between atoms: N_5  and  C_6 
REMARK    2  A    between atoms: C_6  and  C_7 
REMARK    3  A    between atoms: C_7  and  C_8 
ROOT
HETATM    1  C   UNL     3     -42.723 -47.711   9.848  1.00  0.00     0.027 A 
HETATM    2  C   UNL     3     -43.994 -47.587  10.370  1.00  0.00     0.114 A 
HETATM    3  N   UNL     3     -44.864 -47.657   9.350  1.00  0.00    -0.360 N 
HETATM    4  C   UNL     3     -44.120 -47.822   8.240  1.00  0.00     0.180 A 
HETATM    5  N   UNL     3     -42.799 -47.860   8.511  1.00  0.00    -0.355 N 
ATOM      6  HN  UNL     3     -42.030 -47.975   7.852  1.00  0.00     0.166 HD
HETATM    7  H   UNL     3     -45.905 -47.596   9.406  1.00  0.00     0.166 HD
ENDROOT
BRANCH   1   8
HETATM    8  C   UNL     3     -41.441 -47.693  10.622  1.00  0.00     0.088 C 
BRANCH   8   9
HETATM    9  C   UNL     3     -41.176 -49.059  11.255  1.00  0.00     0.272 C 
BRANCH   9  10
HETATM   10  N   UNL     3     -40.476 -49.927  10.315  1.00  0.00     0.078 N 
HETATM   11  H   UNL     3     -40.283 -49.390   9.440  1.00  0.00     0.312 HD
HETATM   12  H   UNL     3     -41.096 -50.732  10.065  1.00  0.00     0.312 HD
ENDBRANCH   9  10
ENDBRANCH   8   9
ENDBRANCH   1   8
TORSDOF 3
ENDMDL
MODEL 3
REMARK VINA RESULT:      -3.7      1.621      3.872
REMARK  3 active torsions:
REMARK  status: ('A' for Active; 'I' for Inactive)
REMARK    1  A    between atoms: N_5  and  C_6 
REMARK    2  A    between atoms: C_6  and  C_7 
REMARK    3  A    between atoms: C_7  and  C_8 
ROOT
HETATM    1  C   UNL     3     -43.371 -47.506   9.589  1.00  0.00     0.027 A 
HETATM    2  C   UNL     3     -44.726 -47.408   9.355  1.00  0.00     0.114 A 
HETATM    3  N   UNL     3     -44.950 -47.779   8.084  1.00  0.00    -0.360 N 
HETATM    4  C   UNL     3     -43.745 -48.094   7.573  1.00  0.00     0.180 A 
HETATM    5  N   UNL     3     -42.752 -47.937   8.472  1.00  0.00    -0.355 N 
ATOM      6  HN  UNL     3     -41.755 -48.107   8.337  1.00  0.00     0.166 HD
HETATM    7  H   UNL     3     -45.871 -47.816   7.593  1.00  0.00     0.166 HD
ENDROOT
BRANCH   1   8
HETATM    8  C   UNL     3     -42.667 -47.194  10.874  1.00  0.00     0.088 C 
BRANCH   8   9
HETATM    9  C   UNL     3     -41.240 -47.740  10.851  1.00  0.00     0.272 C 
BRANCH   9  10
HETATM   10  N   UNL     3     -40.292 -46.671  10.555  1.00  0.00     0.078 N 
HETATM   11  H   UNL     3     -40.085 -46.150  11.437  1.00  0.00     0.312 HD
HETATM   12  H   UNL     3     -40.731 -46.000   9.884  1.00  0.00     0.312 HD
ENDBRANCH   9  10
ENDBRANCH   8   9
ENDBRANCH   1   8
TORSDOF 3
ENDMDL
MODEL 4
REMARK VINA RESULT:      -3.7      1.475      3.539
REMARK  3 active torsions:
REMARK  status: ('A' for Active; 'I' for Inactive)
REMARK    1  A    between atoms: N_5  and  C_6 
REMARK    2  A    between atoms: C_6  and  C_7 
REMARK    3  A    between atoms: C_7  and  C_8 
ROOT
HETATM    1  C   UNL     3     -43.690 -47.304   9.367  1.00  0.00     0.027 A 
HETATM    2  C   UNL     3     -43.873 -47.820   8.101  1.00  0.00     0.114 A 
HETATM    3  N   UNL     3     -45.178 -48.100   7.957  1.00  0.00    -0.360 N 
HETATM    4  C   UNL     3     -45.761 -47.754   9.120  1.00  0.00     0.180 A 
HETATM    5  N   UNL     3     -44.874 -47.261  10.009  1.00  0.00    -0.355 N 
ATOM      6  HN  UNL     3     -45.059 -46.929  10.956  1.00  0.00     0.166 HD
HETATM    7  H   UNL     3     -45.645 -48.503   7.115  1.00  0.00     0.166 HD
ENDROOT
BRANCH   1   8
HETATM    8  C   UNL     3     -42.393 -46.850   9.962  1.00  0.00     0.088 C 
BRANCH   8   9
HETATM    9  C   UNL     3     -41.877 -47.876  10.972  1.00  0.00     0.272 C 
BRANCH   9  10
HETATM   10  N   UNL     3     -41.211 -48.976  10.283  1.00  0.00     0.078 N 
HETATM   11  H   UNL     3     -40.223 -48.700  10.084  1.00  0.00     0.312 HD
HETATM   12  H   UNL     3     -41.686 -49.144   9.366  1.00  0.00     0.312 HD
ENDBRANCH   9  10
ENDBRANCH   8   9
ENDBRANCH   1   8
TORSDOF 3
ENDMDL
MODEL 5
REMARK VINA RESULT:      -3.6      6.204      7.525
REMARK  3 active torsions:
REMARK  status: ('A' for Active; 'I' for Inactive)
REMARK    1  A    between atoms: N_5  and  C_6 
REMARK    2  A    between atoms: C_6  and  C_7 
REMARK    3  A    between atoms: C_7  and  C_8 
ROOT
HETATM    1  C   UNL     3     -44.280 -53.301  12.882  1.00  0.00     0.027 A 
HETATM    2  C   UNL     3     -45.212 -54.085  13.530  1.00  0.00     0.114 A 
HETATM    3  N   UNL     3     -46.418 -53.523  13.348  1.00  0.00    -0.360 N 
HETATM    4  C   UNL     3     -46.204 -52.424  12.600  1.00  0.00     0.180 A 
HETATM    5  N   UNL     3     -44.900 -52.258  12.296  1.00  0.00    -0.355 N 
ATOM      6  HN  UNL     3     -44.478 -51.510  11.746  1.00  0.00     0.166 HD
HETATM    7  H   UNL     3     -47.333 -53.869  13.711  1.00  0.00     0.166 HD
ENDROOT
BRANCH   1   8
HETATM    8  C   UNL     3     -42.804 -53.548  12.816  1.00  0.00     0.088 C 
BRANCH   8   9
HETATM    9  C   UNL     3     -42.074 -52.305  12.309  1.00  0.00     0.272 C 
BRANCH   9  10
HETATM   10  N   UNL     3     -41.231 -52.642  11.167  1.00  0.00     0.078 N 
HETATM   11  H   UNL     3     -41.712 -52.335  10.291  1.00  0.00     0.312 HD
HETATM   12  H   UNL     3     -41.116 -53.680  11.120  1.00  0.00     0.312 HD
ENDBRANCH   9  10
ENDBRANCH   8   9
ENDBRANCH   1   8
TORSDOF 3
ENDMDL
MODEL 6
REMARK VINA RESULT:      -3.5      2.327      2.870
REMARK  3 active torsions:
REMARK  status: ('A' for Active; 'I' for Inactive)
REMARK    1  A    between atoms: N_5  and  C_6 
REMARK    2  A    between atoms: C_6  and  C_7 
REMARK    3  A    between atoms: C_7  and  C_8 
ROOT
HETATM    1  C   UNL     3     -42.258 -46.651  10.134  1.00  0.00     0.027 A 
HETATM    2  C   UNL     3     -42.503 -45.355  10.535  1.00  0.00     0.114 A 
HETATM    3  N   UNL     3     -41.333 -44.814  10.912  1.00  0.00    -0.360 N 
HETATM    4  C   UNL     3     -40.408 -45.776  10.735  1.00  0.00     0.180 A 
HETATM    5  N   UNL     3     -40.943 -46.918  10.258  1.00  0.00    -0.355 N 
ATOM      6  HN  UNL     3     -40.460 -47.790  10.039  1.00  0.00     0.166 HD
HETATM    7  H   UNL     3     -41.174 -43.847  11.270  1.00  0.00     0.166 HD
ENDROOT
BRANCH   1   8
HETATM    8  C   UNL     3     -43.272 -47.631   9.629  1.00  0.00     0.088 C 
BRANCH   8   9
HETATM    9  C   UNL     3     -43.619 -47.341   8.169  1.00  0.00     0.272 C 
BRANCH   9  10
HETATM   10  N   UNL     3     -42.931 -48.278   7.288  1.00  0.00     0.078 N 
HETATM   11  H   UNL     3     -42.866 -49.205   7.767  1.00  0.00     0.312 HD
HETATM   12  H   UNL     3     -41.957 -47.937   7.119  1.00  0.00     0.312 HD
ENDBRANCH   9  10
ENDBRANCH   8   9
ENDBRANCH   1   8
TORSDOF 3
ENDMDL
MODEL 7
REMARK VINA RESULT:      -3.5      1.988      2.560
REMARK  3 active torsions:
REMARK  status: ('A' for Active; 'I' for Inactive)
REMARK    1  A    between atoms: N_5  and  C_6 
REMARK    2  A    between atoms: C_6  and  C_7 
REMARK    3  A    between atoms: C_7  and  C_8 
ROOT
HETATM    1  C   UNL     3     -42.784 -47.686   9.888  1.00  0.00     0.027 A 
HETATM    2  C   UNL     3     -43.365 -47.751  11.136  1.00  0.00     0.114 A 
HETATM    3  N   UNL     3     -42.569 -48.494  11.921  1.00  0.00    -0.360 N 
HETATM    4  C   UNL     3     -41.529 -48.862  11.149  1.00  0.00     0.180 A 
HETATM    5  N   UNL     3     -41.630 -48.382   9.893  1.00  0.00    -0.355 N 
ATOM      6  HN  UNL     3     -40.979 -48.516   9.119  1.00  0.00     0.166 HD
HETATM    7  H   UNL     3     -42.724 -48.736  12.925  1.00  0.00     0.166 HD
ENDROOT
BRANCH   1   8
HETATM    8  C   UNL     3     -43.323 -46.959   8.694  1.00  0.00     0.088 C 
BRANCH   8   9
HETATM    9  C   UNL     3     -43.637 -47.940   7.565  1.00  0.00     0.272 C 
BRANCH   9  10
HETATM   10  N   UNL     3     -45.031 -48.365   7.634  1.00  0.00     0.078 N 
HETATM   11  H   UNL     3     -45.214 -48.769   8.580  1.00  0.00     0.312 HD
HETATM   12  H   UNL     3     -45.194 -49.120   6.928  1.00  0.00     0.312 HD
ENDBRANCH   9  10
ENDBRANCH   8   9
ENDBRANCH   1   8
TORSDOF 3
ENDMDL
MODEL 8
REMARK VINA RESULT:      -3.5      4.092      4.586
REMARK  3 active torsions:
REMARK  status: ('A' for Active; 'I' for Inactive)
REMARK    1  A    between atoms: N_5  and  C_6 
REMARK    2  A    between atoms: C_6  and  C_7 
REMARK    3  A    between atoms: C_7  and  C_8 
ROOT
HETATM    1  C   UNL     3     -41.212 -46.543  10.598  1.00  0.00     0.027 A 
HETATM    2  C   UNL     3     -41.918 -45.425  10.991  1.00  0.00     0.114 A 
HETATM    3  N   UNL     3     -41.061 -44.392  11.030  1.00  0.00    -0.360 N 
HETATM    4  C   UNL     3     -39.865 -44.890  10.664  1.00  0.00     0.180 A 
HETATM    5  N   UNL     3     -39.923 -46.210  10.391  1.00  0.00    -0.355 N 
ATOM      6  HN  UNL     3     -39.161 -46.819  10.094  1.00  0.00     0.166 HD
HETATM    7  H   UNL     3     -41.278 -43.405  11.292  1.00  0.00     0.166 HD
ENDROOT
BRANCH   1   8
HETATM    8  C   UNL     3     -41.765 -47.923  10.415  1.00  0.00     0.088 C 
BRANCH   8   9
HETATM    9  C   UNL     3     -40.952 -48.937  11.219  1.00  0.00     0.272 C 
BRANCH   9  10
HETATM   10  N   UNL     3     -40.414 -49.968  10.339  1.00  0.00     0.078 N 
HETATM   11  H   UNL     3     -40.156 -49.531   9.426  1.00  0.00     0.312 HD
HETATM   12  H   UNL     3     -41.156 -50.682  10.153  1.00  0.00     0.312 HD
ENDBRANCH   9  10
ENDBRANCH   8   9
ENDBRANCH   1   8
TORSDOF 3
ENDMDL
MODEL 9
REMARK VINA RESULT:      -3.3     20.987     21.862
REMARK  3 active torsions:
REMARK  status: ('A' for Active; 'I' for Inactive)
REMARK    1  A    between atoms: N_5  and  C_6 
REMARK    2  A    between atoms: C_6  and  C_7 
REMARK    3  A    between atoms: C_7  and  C_8 
ROOT
HETATM    1  C   UNL     3     -29.822 -54.672  -5.331  1.00  0.00     0.027 A 
HETATM    2  C   UNL     3     -30.504 -53.898  -6.246  1.00  0.00     0.114 A 
HETATM    3  N   UNL     3     -31.732 -53.668  -5.754  1.00  0.00    -0.360 N 
HETATM    4  C   UNL     3     -31.776 -54.296  -4.564  1.00  0.00     0.180 A 
HETATM    5  N   UNL     3     -30.618 -54.923  -4.273  1.00  0.00    -0.355 N 
ATOM      6  HN  UNL     3     -30.394 -55.466  -3.439  1.00  0.00     0.166 HD
HETATM    7  H   UNL     3     -32.496 -53.116  -6.203  1.00  0.00     0.166 HD
ENDROOT
BRANCH   1   8
HETATM    8  C   UNL     3     -28.415 -55.167  -5.463  1.00  0.00     0.088 C 
BRANCH   8   9
HETATM    9  C   UNL     3     -27.428 -54.131  -4.924  1.00  0.00     0.272 C 
BRANCH   9  10
HETATM   10  N   UNL     3     -26.957 -54.518  -3.599  1.00  0.00     0.078 N 
HETATM   11  H   UNL     3     -26.030 -54.990  -3.697  1.00  0.00     0.312 HD
HETATM   12  H   UNL     3     -27.625 -55.208  -3.186  1.00  0.00     0.312 HD
ENDBRANCH   9  10
ENDBRANCH   8   9
ENDBRANCH   1   8
TORSDOF 3
ENDMDL
