MODEL 1
REMARK VINA RESULT:      -6.4      0.000      0.000
REMARK  4 active torsions:
REMARK  status: ('A' for Active; 'I' for Inactive)
REMARK    1  A    between atoms: N_6  and  C_7 
REMARK    2  A    between atoms: C_7  and  C_8 
REMARK    3  A    between atoms: C_8  and  O_9 
REMARK    4  A    between atoms: C_8  and  C_10 
ROOT
HETATM    1  C   UNL     1     -42.254 -51.935  12.147  1.00  0.00     0.169 C 
ENDROOT
BRANCH   1   2
HETATM    2  N   UNL     1     -43.370 -52.506  12.896  1.00  0.00    -0.307 N 
HETATM    3  C   UNL     1     -43.433 -53.856  13.115  1.00  0.00     0.186 A 
HETATM    4  N   UNL     1     -44.403 -54.462  13.711  1.00  0.00    -0.355 N 
HETATM    5  C   UNL     1     -45.448 -53.692  14.161  1.00  0.00     0.017 A 
ATOM      6  HN  UNL     1     -44.395 -55.474  13.843  1.00  0.00     0.166 HD
HETATM    7  C   UNL     1     -46.570 -54.476  14.792  1.00  0.00     0.069 C 
HETATM    8  C   UNL     1     -45.493 -52.352  14.057  1.00  0.00     0.028 A 
HETATM    9  C   UNL     1     -44.343 -51.674  13.400  1.00  0.00     0.256 A 
HETATM   10  C   UNL     1     -46.627 -51.503  14.543  1.00  0.00     0.056 C 
HETATM   11  O   UNL     1     -44.290 -50.450  13.309  1.00  0.00    -0.267 OA
ENDBRANCH   1   2
BRANCH   1  12
HETATM   12  C   UNL     1     -40.879 -52.531  12.532  1.00  0.00     0.172 C 
BRANCH  12  13
HETATM   13  O   UNL     1     -40.452 -53.462  11.532  1.00  0.00    -0.389 OA
HETATM   14  H   UNL     1     -40.066 -54.233  11.980  1.00  0.00     0.210 HD
ENDBRANCH  12  13
BRANCH  12  15
HETATM   15  C   UNL     1     -39.828 -51.450  12.692  1.00  0.00     0.013 A 
HETATM   16  C   UNL     1     -39.937 -50.226  12.012  1.00  0.00     0.055 A 
HETATM   17  C   UNL     1     -38.934 -49.264  12.141  1.00  0.00     0.117 A 
HETATM   18  F   UNL     1     -39.046 -48.104  11.482  1.00  0.00    -0.206 F 
HETATM   19  C   UNL     1     -37.815 -49.487  12.938  1.00  0.00     0.045 A 
HETATM   20  C   UNL     1     -37.703 -50.687  13.633  1.00  0.00     0.046 A 
HETATM   21  C   UNL     1     -38.707 -51.646  13.511  1.00  0.00     0.125 A 
HETATM   22  F   UNL     1     -38.594 -52.783  14.212  1.00  0.00    -0.205 F 
ENDBRANCH  12  15
ENDBRANCH   1  12
TORSDOF 4
ENDMDL
MODEL 2
REMARK VINA RESULT:      -6.4      3.163      6.456
REMARK  4 active torsions:
REMARK  status: ('A' for Active; 'I' for Inactive)
REMARK    1  A    between atoms: N_6  and  C_7 
REMARK    2  A    between atoms: C_7  and  C_8 
REMARK    3  A    between atoms: C_8  and  O_9 
REMARK    4  A    between atoms: C_8  and  C_10 
ROOT
HETATM    1  C   UNL     1     -40.222 -51.738  12.926  1.00  0.00     0.169 C 
ENDROOT
BRANCH   1   2
HETATM    2  N   UNL     1     -40.195 -50.332  12.531  1.00  0.00    -0.307 N 
HETATM    3  C   UNL     1     -40.666 -49.952  11.304  1.00  0.00     0.186 A 
HETATM    4  N   UNL     1     -40.632 -48.749  10.840  1.00  0.00    -0.355 N 
HETATM    5  C   UNL     1     -40.083 -47.778  11.642  1.00  0.00     0.017 A 
ATOM      6  HN  UNL     1     -40.998 -48.527   9.914  1.00  0.00     0.166 HD
HETATM    7  C   UNL     1     -40.023 -46.411  11.011  1.00  0.00     0.069 C 
HETATM    8  C   UNL     1     -39.628 -48.001  12.889  1.00  0.00     0.028 A 
HETATM    9  C   UNL     1     -39.715 -49.391  13.414  1.00  0.00     0.256 A 
HETATM   10  C   UNL     1     -39.028 -46.951  13.771  1.00  0.00     0.056 C 
HETATM   11  O   UNL     1     -39.363 -49.664  14.558  1.00  0.00    -0.267 OA
ENDBRANCH   1   2
BRANCH   1  12
HETATM   12  C   UNL     1     -41.274 -52.576  12.161  1.00  0.00     0.172 C 
BRANCH  12  13
HETATM   13  O   UNL     1     -40.624 -53.428  11.213  1.00  0.00    -0.389 OA
HETATM   14  H   UNL     1     -41.038 -54.307  11.260  1.00  0.00     0.210 HD
ENDBRANCH  12  13
BRANCH  12  15
HETATM   15  C   UNL     1     -42.107 -53.421  13.106  1.00  0.00     0.013 A 
HETATM   16  C   UNL     1     -41.530 -54.034  14.229  1.00  0.00     0.055 A 
HETATM   17  C   UNL     1     -42.310 -54.843  15.059  1.00  0.00     0.117 A 
HETATM   18  F   UNL     1     -41.747 -55.428  16.123  1.00  0.00    -0.206 F 
HETATM   19  C   UNL     1     -43.659 -55.058  14.800  1.00  0.00     0.045 A 
HETATM   20  C   UNL     1     -44.248 -54.441  13.701  1.00  0.00     0.046 A 
HETATM   21  C   UNL     1     -43.475 -53.628  12.876  1.00  0.00     0.125 A 
HETATM   22  F   UNL     1     -44.068 -53.019  11.839  1.00  0.00    -0.205 F 
ENDBRANCH  12  15
ENDBRANCH   1  12
TORSDOF 4
ENDMDL
MODEL 3
REMARK VINA RESULT:      -6.4      3.457      6.257
REMARK  4 active torsions:
REMARK  status: ('A' for Active; 'I' for Inactive)
REMARK    1  A    between atoms: N_6  and  C_7 
REMARK    2  A    between atoms: C_7  and  C_8 
REMARK    3  A    between atoms: C_8  and  O_9 
REMARK    4  A    between atoms: C_8  and  C_10 
ROOT
HETATM    1  C   UNL     1     -44.745 -54.103  13.112  1.00  0.00     0.169 C 
ENDROOT
BRANCH   1   2
HETATM    2  N   UNL     1     -43.351 -54.141  13.546  1.00  0.00    -0.307 N 
HETATM    3  C   UNL     1     -42.364 -53.641  12.741  1.00  0.00     0.186 A 
HETATM    4  N   UNL     1     -41.102 -53.681  13.008  1.00  0.00    -0.355 N 
HETATM    5  C   UNL     1     -40.725 -54.268  14.190  1.00  0.00     0.017 A 
ATOM      6  HN  UNL     1     -40.412 -53.291  12.365  1.00  0.00     0.166 HD
HETATM    7  C   UNL     1     -39.235 -54.332  14.404  1.00  0.00     0.069 C 
HETATM    8  C   UNL     1     -41.591 -54.757  15.097  1.00  0.00     0.028 A 
HETATM    9  C   UNL     1     -43.042 -54.662  14.783  1.00  0.00     0.256 A 
HETATM   10  C   UNL     1     -41.190 -55.399  16.389  1.00  0.00     0.056 C 
HETATM   11  O   UNL     1     -43.895 -55.044  15.580  1.00  0.00    -0.267 OA
ENDBRANCH   1   2
BRANCH   1  12
HETATM   12  C   UNL     1     -45.289 -52.670  12.900  1.00  0.00     0.172 C 
BRANCH  12  13
HETATM   13  O   UNL     1     -46.478 -52.712  12.104  1.00  0.00    -0.389 OA
HETATM   14  H   UNL     1     -46.223 -52.598  11.172  1.00  0.00     0.210 HD
ENDBRANCH  12  13
BRANCH  12  15
HETATM   15  C   UNL     1     -45.593 -51.989  14.220  1.00  0.00     0.013 A 
HETATM   16  C   UNL     1     -46.847 -52.128  14.835  1.00  0.00     0.055 A 
HETATM   17  C   UNL     1     -47.117 -51.455  16.029  1.00  0.00     0.117 A 
HETATM   18  F   UNL     1     -48.319 -51.591  16.602  1.00  0.00    -0.206 F 
HETATM   19  C   UNL     1     -46.165 -50.640  16.632  1.00  0.00     0.045 A 
HETATM   20  C   UNL     1     -44.911 -50.508  16.043  1.00  0.00     0.046 A 
HETATM   21  C   UNL     1     -44.637 -51.185  14.856  1.00  0.00     0.125 A 
HETATM   22  F   UNL     1     -43.413 -51.067  14.321  1.00  0.00    -0.205 F 
ENDBRANCH  12  15
ENDBRANCH   1  12
TORSDOF 4
ENDMDL
MODEL 4
REMARK VINA RESULT:      -6.3      3.007      5.976
REMARK  4 active torsions:
REMARK  status: ('A' for Active; 'I' for Inactive)
REMARK    1  A    between atoms: N_6  and  C_7 
REMARK    2  A    between atoms: C_7  and  C_8 
REMARK    3  A    between atoms: C_8  and  O_9 
REMARK    4  A    between atoms: C_8  and  C_10 
ROOT
HETATM    1  C   UNL     1     -40.756 -51.475  12.883  1.00  0.00     0.169 C 
ENDROOT
BRANCH   1   2
HETATM    2  N   UNL     1     -40.800 -50.130  12.316  1.00  0.00    -0.307 N 
HETATM    3  C   UNL     1     -39.741 -49.652  11.592  1.00  0.00     0.186 A 
HETATM    4  N   UNL     1     -39.658 -48.463  11.102  1.00  0.00    -0.355 N 
HETATM    5  C   UNL     1     -40.716 -47.614  11.322  1.00  0.00     0.017 A 
ATOM      6  HN  UNL     1     -38.840 -48.163  10.571  1.00  0.00     0.166 HD
HETATM    7  C   UNL     1     -40.522 -46.225  10.772  1.00  0.00     0.069 C 
HETATM    8  C   UNL     1     -41.839 -47.966  11.973  1.00  0.00     0.028 A 
HETATM    9  C   UNL     1     -41.925 -49.357  12.494  1.00  0.00     0.256 A 
HETATM   10  C   UNL     1     -42.997 -47.049  12.220  1.00  0.00     0.056 C 
HETATM   11  O   UNL     1     -42.936 -49.767  13.059  1.00  0.00    -0.267 OA
ENDBRANCH   1   2
BRANCH   1  12
HETATM   12  C   UNL     1     -41.481 -52.535  12.020  1.00  0.00     0.172 C 
BRANCH  12  13
HETATM   13  O   UNL     1     -40.523 -53.403  11.405  1.00  0.00    -0.389 OA
HETATM   14  H   UNL     1     -40.925 -54.283  11.313  1.00  0.00     0.210 HD
ENDBRANCH  12  13
BRANCH  12  15
HETATM   15  C   UNL     1     -42.447 -53.362  12.847  1.00  0.00     0.013 A 
HETATM   16  C   UNL     1     -43.830 -53.308  12.615  1.00  0.00     0.055 A 
HETATM   17  C   UNL     1     -44.702 -54.045  13.419  1.00  0.00     0.117 A 
HETATM   18  F   UNL     1     -46.019 -53.980  13.192  1.00  0.00    -0.206 F 
HETATM   19  C   UNL     1     -44.230 -54.842  14.457  1.00  0.00     0.045 A 
HETATM   20  C   UNL     1     -42.860 -54.920  14.687  1.00  0.00     0.046 A 
HETATM   21  C   UNL     1     -41.988 -54.191  13.881  1.00  0.00     0.125 A 
HETATM   22  F   UNL     1     -40.669 -54.302  14.100  1.00  0.00    -0.205 F 
ENDBRANCH  12  15
ENDBRANCH   1  12
TORSDOF 4
ENDMDL
MODEL 5
REMARK VINA RESULT:      -6.2      3.176      4.872
REMARK  4 active torsions:
REMARK  status: ('A' for Active; 'I' for Inactive)
REMARK    1  A    between atoms: N_6  and  C_7 
REMARK    2  A    between atoms: C_7  and  C_8 
REMARK    3  A    between atoms: C_8  and  O_9 
REMARK    4  A    between atoms: C_8  and  C_10 
ROOT
HETATM    1  C   UNL     1     -40.604 -49.379  12.654  1.00  0.00     0.169 C 
ENDROOT
BRANCH   1   2
HETATM    2  N   UNL     1     -41.399 -50.604  12.672  1.00  0.00    -0.307 N 
HETATM    3  C   UNL     1     -42.766 -50.539  12.656  1.00  0.00     0.186 A 
HETATM    4  N   UNL     1     -43.554 -51.557  12.729  1.00  0.00    -0.355 N 
HETATM    5  C   UNL     1     -42.975 -52.798  12.827  1.00  0.00     0.017 A 
ATOM      6  HN  UNL     1     -44.568 -51.445  12.714  1.00  0.00     0.166 HD
HETATM    7  C   UNL     1     -43.957 -53.933  12.969  1.00  0.00     0.069 C 
HETATM    8  C   UNL     1     -41.647 -53.013  12.805  1.00  0.00     0.028 A 
HETATM    9  C   UNL     1     -40.761 -51.824  12.680  1.00  0.00     0.256 A 
HETATM   10  C   UNL     1     -41.005 -54.362  12.911  1.00  0.00     0.056 C 
HETATM   11  O   UNL     1     -39.541 -51.942  12.606  1.00  0.00    -0.267 OA
ENDBRANCH   1   2
BRANCH   1  12
HETATM   12  C   UNL     1     -40.280 -48.872  11.228  1.00  0.00     0.172 C 
BRANCH  12  13
HETATM   13  O   UNL     1     -40.382 -49.950  10.291  1.00  0.00    -0.389 OA
HETATM   14  H   UNL     1     -39.614 -50.534  10.416  1.00  0.00     0.210 HD
ENDBRANCH  12  13
BRANCH  12  15
HETATM   15  C   UNL     1     -41.213 -47.753  10.809  1.00  0.00     0.013 A 
HETATM   16  C   UNL     1     -42.364 -48.017  10.049  1.00  0.00     0.055 A 
HETATM   17  C   UNL     1     -43.184 -46.964   9.637  1.00  0.00     0.117 A 
HETATM   18  F   UNL     1     -44.275 -47.227   8.908  1.00  0.00    -0.206 F 
HETATM   19  C   UNL     1     -42.888 -45.645   9.966  1.00  0.00     0.045 A 
HETATM   20  C   UNL     1     -41.762 -45.371  10.735  1.00  0.00     0.046 A 
HETATM   21  C   UNL     1     -40.946 -46.421  11.152  1.00  0.00     0.125 A 
HETATM   22  F   UNL     1     -39.881 -46.139  11.917  1.00  0.00    -0.205 F 
ENDBRANCH  12  15
ENDBRANCH   1  12
TORSDOF 4
ENDMDL
MODEL 6
REMARK VINA RESULT:      -6.2      3.023      6.820
REMARK  4 active torsions:
REMARK  status: ('A' for Active; 'I' for Inactive)
REMARK    1  A    between atoms: N_6  and  C_7 
REMARK    2  A    between atoms: C_7  and  C_8 
REMARK    3  A    between atoms: C_8  and  O_9 
REMARK    4  A    between atoms: C_8  and  C_10 
ROOT
HETATM    1  C   UNL     1     -42.499 -53.384  13.527  1.00  0.00     0.169 C 
ENDROOT
BRANCH   1   2
HETATM    2  N   UNL     1     -41.451 -52.448  13.130  1.00  0.00    -0.307 N 
HETATM    3  C   UNL     1     -41.464 -51.887  11.882  1.00  0.00     0.186 A 
HETATM    4  N   UNL     1     -40.555 -51.098  11.417  1.00  0.00    -0.355 N 
HETATM    5  C   UNL     1     -39.498 -50.798  12.241  1.00  0.00     0.017 A 
ATOM      6  HN  UNL     1     -40.620 -50.712  10.475  1.00  0.00     0.166 HD
HETATM    7  C   UNL     1     -38.448 -49.921  11.610  1.00  0.00     0.069 C 
HETATM    8  C   UNL     1     -39.382 -51.239  13.507  1.00  0.00     0.028 A 
HETATM    9  C   UNL     1     -40.464 -52.116  14.031  1.00  0.00     0.256 A 
HETATM   10  C   UNL     1     -38.234 -50.919  14.413  1.00  0.00     0.056 C 
HETATM   11  O   UNL     1     -40.453 -52.521  15.191  1.00  0.00    -0.267 OA
ENDBRANCH   1   2
BRANCH   1  12
HETATM   12  C   UNL     1     -43.871 -53.091  12.874  1.00  0.00     0.172 C 
BRANCH  12  13
HETATM   13  O   UNL     1     -44.299 -54.222  12.108  1.00  0.00    -0.389 OA
HETATM   14  H   UNL     1     -43.657 -54.362  11.390  1.00  0.00     0.210 HD
ENDBRANCH  12  13
BRANCH  12  15
HETATM   15  C   UNL     1     -44.924 -52.763  13.915  1.00  0.00     0.013 A 
HETATM   16  C   UNL     1     -45.041 -53.521  15.091  1.00  0.00     0.055 A 
HETATM   17  C   UNL     1     -46.048 -53.226  16.013  1.00  0.00     0.117 A 
HETATM   18  F   UNL     1     -46.153 -53.960  17.128  1.00  0.00    -0.206 F 
HETATM   19  C   UNL     1     -46.948 -52.188  15.795  1.00  0.00     0.045 A 
HETATM   20  C   UNL     1     -46.832 -51.417  14.643  1.00  0.00     0.046 A 
HETATM   21  C   UNL     1     -45.824 -51.705  13.725  1.00  0.00     0.125 A 
HETATM   22  F   UNL     1     -45.711 -50.931  12.635  1.00  0.00    -0.205 F 
ENDBRANCH  12  15
ENDBRANCH   1  12
TORSDOF 4
ENDMDL
MODEL 7
REMARK VINA RESULT:      -6.0      2.987      6.941
REMARK  4 active torsions:
REMARK  status: ('A' for Active; 'I' for Inactive)
REMARK    1  A    between atoms: N_6  and  C_7 
REMARK    2  A    between atoms: C_7  and  C_8 
REMARK    3  A    between atoms: C_8  and  O_9 
REMARK    4  A    between atoms: C_8  and  C_10 
ROOT
HETATM    1  C   UNL     1     -41.784 -52.123  13.758  1.00  0.00     0.169 C 
ENDROOT
BRANCH   1   2
HETATM    2  N   UNL     1     -40.967 -50.914  13.724  1.00  0.00    -0.307 N 
HETATM    3  C   UNL     1     -41.376 -49.786  14.385  1.00  0.00     0.186 A 
HETATM    4  N   UNL     1     -40.757 -48.655  14.368  1.00  0.00    -0.355 N 
HETATM    5  C   UNL     1     -39.599 -48.580  13.632  1.00  0.00     0.017 A 
ATOM      6  HN  UNL     1     -41.113 -47.848  14.880  1.00  0.00     0.166 HD
HETATM    7  C   UNL     1     -38.966 -47.213  13.611  1.00  0.00     0.069 C 
HETATM    8  C   UNL     1     -39.057 -49.620  12.974  1.00  0.00     0.028 A 
HETATM    9  C   UNL     1     -39.770 -50.924  13.043  1.00  0.00     0.256 A 
HETATM   10  C   UNL     1     -37.796 -49.549  12.170  1.00  0.00     0.056 C 
HETATM   11  O   UNL     1     -39.314 -51.931  12.508  1.00  0.00    -0.267 OA
ENDBRANCH   1   2
BRANCH   1  12
HETATM   12  C   UNL     1     -42.995 -52.080  12.795  1.00  0.00     0.172 C 
BRANCH  12  13
HETATM   13  O   UNL     1     -42.669 -52.746  11.570  1.00  0.00    -0.389 OA
HETATM   14  H   UNL     1     -43.268 -53.505  11.469  1.00  0.00     0.210 HD
ENDBRANCH  12  13
BRANCH  12  15
HETATM   15  C   UNL     1     -44.219 -52.730  13.409  1.00  0.00     0.013 A 
HETATM   16  C   UNL     1     -44.445 -54.110  13.285  1.00  0.00     0.055 A 
HETATM   17  C   UNL     1     -45.603 -54.679  13.822  1.00  0.00     0.117 A 
HETATM   18  F   UNL     1     -45.810 -55.994  13.691  1.00  0.00    -0.206 F 
HETATM   19  C   UNL     1     -46.548 -53.904  14.485  1.00  0.00     0.045 A 
HETATM   20  C   UNL     1     -46.328 -52.539  14.633  1.00  0.00     0.046 A 
HETATM   21  C   UNL     1     -45.170 -51.970  14.104  1.00  0.00     0.125 A 
HETATM   22  F   UNL     1     -44.963 -50.658  14.282  1.00  0.00    -0.205 F 
ENDBRANCH  12  15
ENDBRANCH   1  12
TORSDOF 4
ENDMDL
MODEL 8
REMARK VINA RESULT:      -6.0      3.963      6.931
REMARK  4 active torsions:
REMARK  status: ('A' for Active; 'I' for Inactive)
REMARK    1  A    between atoms: N_6  and  C_7 
REMARK    2  A    between atoms: C_7  and  C_8 
REMARK    3  A    between atoms: C_8  and  O_9 
REMARK    4  A    between atoms: C_8  and  C_10 
ROOT
HETATM    1  C   UNL     1     -38.943 -52.559  14.703  1.00  0.00     0.169 C 
ENDROOT
BRANCH   1   2
HETATM    2  N   UNL     1     -38.971 -51.327  13.921  1.00  0.00    -0.307 N 
HETATM    3  C   UNL     1     -39.879 -50.345  14.213  1.00  0.00     0.186 A 
HETATM    4  N   UNL     1     -40.022 -49.250  13.547  1.00  0.00    -0.355 N 
HETATM    5  C   UNL     1     -39.198 -49.056  12.466  1.00  0.00     0.017 A 
ATOM      6  HN  UNL     1     -40.720 -48.555  13.814  1.00  0.00     0.166 HD
HETATM    7  C   UNL     1     -39.465 -47.784  11.702  1.00  0.00     0.069 C 
HETATM    8  C   UNL     1     -38.230 -49.913  12.094  1.00  0.00     0.028 A 
HETATM    9  C   UNL     1     -38.060 -51.150  12.904  1.00  0.00     0.256 A 
HETATM   10  C   UNL     1     -37.327 -49.712  10.917  1.00  0.00     0.056 C 
HETATM   11  O   UNL     1     -37.169 -51.959  12.655  1.00  0.00    -0.267 OA
ENDBRANCH   1   2
BRANCH   1  12
HETATM   12  C   UNL     1     -39.597 -53.764  13.986  1.00  0.00     0.172 C 
BRANCH  12  13
HETATM   13  O   UNL     1     -38.584 -54.615  13.439  1.00  0.00    -0.389 OA
HETATM   14  H   UNL     1     -38.280 -55.215  14.142  1.00  0.00     0.210 HD
ENDBRANCH  12  13
BRANCH  12  15
HETATM   15  C   UNL     1     -40.472 -54.567  14.929  1.00  0.00     0.013 A 
HETATM   16  C   UNL     1     -39.912 -55.306  15.983  1.00  0.00     0.055 A 
HETATM   17  C   UNL     1     -40.736 -56.073  16.811  1.00  0.00     0.117 A 
HETATM   18  F   UNL     1     -40.190 -56.779  17.808  1.00  0.00    -0.206 F 
HETATM   19  C   UNL     1     -42.112 -56.122  16.617  1.00  0.00     0.045 A 
HETATM   20  C   UNL     1     -42.682 -55.379  15.589  1.00  0.00     0.046 A 
HETATM   21  C   UNL     1     -41.864 -54.608  14.766  1.00  0.00     0.125 A 
HETATM   22  F   UNL     1     -42.436 -53.876  13.798  1.00  0.00    -0.205 F 
ENDBRANCH  12  15
ENDBRANCH   1  12
TORSDOF 4
ENDMDL
MODEL 9
REMARK VINA RESULT:      -5.9      3.842      6.118
REMARK  4 active torsions:
REMARK  status: ('A' for Active; 'I' for Inactive)
REMARK    1  A    between atoms: N_6  and  C_7 
REMARK    2  A    between atoms: C_7  and  C_8 
REMARK    3  A    between atoms: C_8  and  O_9 
REMARK    4  A    between atoms: C_8  and  C_10 
ROOT
HETATM    1  C   UNL     1     -42.494 -54.189  13.285  1.00  0.00     0.169 C 
ENDROOT
BRANCH   1   2
HETATM    2  N   UNL     1     -41.358 -54.516  14.142  1.00  0.00    -0.307 N 
HETATM    3  C   UNL     1     -40.079 -54.356  13.682  1.00  0.00     0.186 A 
HETATM    4  N   UNL     1     -39.014 -54.670  14.337  1.00  0.00    -0.355 N 
HETATM    5  C   UNL     1     -39.179 -55.204  15.592  1.00  0.00     0.017 A 
ATOM      6  HN  UNL     1     -38.085 -54.528  13.940  1.00  0.00     0.166 HD
HETATM    7  C   UNL     1     -37.894 -55.603  16.271  1.00  0.00     0.069 C 
HETATM    8  C   UNL     1     -40.374 -55.372  16.187  1.00  0.00     0.028 A 
HETATM    9  C   UNL     1     -41.585 -54.964  15.424  1.00  0.00     0.256 A 
HETATM   10  C   UNL     1     -40.566 -55.954  17.553  1.00  0.00     0.056 C 
HETATM   11  O   UNL     1     -42.707 -55.044  15.916  1.00  0.00    -0.267 OA
ENDBRANCH   1   2
BRANCH   1  12
HETATM   12  C   UNL     1     -42.694 -52.669  13.074  1.00  0.00     0.172 C 
BRANCH  12  13
HETATM   13  O   UNL     1     -42.492 -52.337  11.696  1.00  0.00    -0.389 OA
HETATM   14  H   UNL     1     -41.933 -51.542  11.655  1.00  0.00     0.210 HD
ENDBRANCH  12  13
BRANCH  12  15
HETATM   15  C   UNL     1     -44.080 -52.225  13.499  1.00  0.00     0.013 A 
HETATM   16  C   UNL     1     -45.121 -52.104  12.565  1.00  0.00     0.055 A 
HETATM   17  C   UNL     1     -46.377 -51.651  12.974  1.00  0.00     0.117 A 
HETATM   18  F   UNL     1     -47.359 -51.533  12.073  1.00  0.00    -0.206 F 
HETATM   19  C   UNL     1     -46.627 -51.313  14.300  1.00  0.00     0.045 A 
HETATM   20  C   UNL     1     -45.611 -51.446  15.240  1.00  0.00     0.046 A 
HETATM   21  C   UNL     1     -44.359 -51.905  14.836  1.00  0.00     0.125 A 
HETATM   22  F   UNL     1     -43.401 -52.054  15.762  1.00  0.00    -0.205 F 
ENDBRANCH  12  15
ENDBRANCH   1  12
TORSDOF 4
ENDMDL
