MODEL 1
REMARK VINA RESULT:      -5.8      0.000      0.000
REMARK  5 active torsions:
REMARK  status: ('A' for Active; 'I' for Inactive)
REMARK    1  A    between atoms: N_6  and  C_7 
REMARK    2  A    between atoms: C_7  and  C_8 
REMARK    3  A    between atoms: C_8  and  N_9 
REMARK    4  A    between atoms: N_9  and  C_10 
REMARK    5  A    between atoms: C_10  and  C_11 
REMARK       I    between atoms: C_11  and  N_13 
ROOT
HETATM    1  N   UNL     1     -42.160 -50.387  11.822  1.00  0.00     0.093 N 
HETATM    2  H   UNL     1     -41.322 -50.786  11.396  1.00  0.00     0.316 HD
ENDROOT
BRANCH   1   3
HETATM    3  C   UNL     1     -42.026 -48.928  11.958  1.00  0.00     0.291 C 
BRANCH   3   4
HETATM    4  C   UNL     1     -41.649 -48.193  10.668  1.00  0.00     0.178 C 
BRANCH   4   5
HETATM    5  N   UNL     1     -42.813 -47.881   9.865  1.00  0.00    -0.302 N 
HETATM    6  N   UNL     1     -42.745 -47.990   8.526  1.00  0.00    -0.310 N 
HETATM    7  C   UNL     1     -43.986 -47.710   8.126  1.00  0.00     0.115 A 
ATOM      8  HN  UNL     1     -41.935 -48.230   7.953  1.00  0.00     0.186 HD
HETATM    9  C   UNL     1     -44.849 -47.405   9.203  1.00  0.00    -0.028 A 
HETATM   10  C   UNL     1     -46.281 -47.049   9.151  1.00  0.00     0.051 C 
HETATM   11  C   UNL     1     -44.048 -47.525  10.320  1.00  0.00     0.118 A 
ENDBRANCH   4   5
ENDBRANCH   3   4
ENDBRANCH   1   3
BRANCH   1  12
HETATM   12  C   UNL     1     -42.376 -51.033  13.129  1.00  0.00     0.372 C 
BRANCH  12  13
HETATM   13  C   UNL     1     -43.824 -51.514  13.257  1.00  0.00     0.248 C 
HETATM   14  O   UNL     1     -44.749 -50.726  13.036  1.00  0.00    -0.271 OA
HETATM   15  N   UNL     1     -44.050 -52.832  13.625  1.00  0.00    -0.347 N 
HETATM   16  C   UNL     1     -45.413 -53.354  13.526  1.00  0.00     0.152 C 
HETATM   17  C   UNL     1     -43.006 -53.859  13.707  1.00  0.00     0.152 C 
HETATM   18  C   UNL     1     -45.669 -54.478  14.534  1.00  0.00     0.187 C 
HETATM   19  O   UNL     1     -44.662 -55.497  14.449  1.00  0.00    -0.388 OA
HETATM   20  C   UNL     1     -43.368 -54.942  14.726  1.00  0.00     0.187 C 
ENDBRANCH  12  13
ENDBRANCH   1  12
TORSDOF 5
ENDMDL
MODEL 2
REMARK VINA RESULT:      -5.5      2.625      3.182
REMARK  5 active torsions:
REMARK  status: ('A' for Active; 'I' for Inactive)
REMARK    1  A    between atoms: N_6  and  C_7 
REMARK    2  A    between atoms: C_7  and  C_8 
REMARK    3  A    between atoms: C_8  and  N_9 
REMARK    4  A    between atoms: N_9  and  C_10 
REMARK    5  A    between atoms: C_10  and  C_11 
REMARK       I    between atoms: C_11  and  N_13 
ROOT
HETATM    1  N   UNL     1     -40.823 -49.695  10.942  1.00  0.00     0.093 N 
HETATM    2  H   UNL     1     -39.805 -49.613  10.975  1.00  0.00     0.316 HD
ENDROOT
BRANCH   1   3
HETATM    3  C   UNL     1     -41.457 -48.452  11.409  1.00  0.00     0.291 C 
BRANCH   3   4
HETATM    4  C   UNL     1     -41.585 -47.356  10.346  1.00  0.00     0.178 C 
BRANCH   4   5
HETATM    5  N   UNL     1     -42.828 -47.459   9.611  1.00  0.00    -0.302 N 
HETATM    6  N   UNL     1     -42.816 -47.918   8.347  1.00  0.00    -0.310 N 
HETATM    7  C   UNL     1     -44.108 -47.953   8.015  1.00  0.00     0.115 A 
ATOM      8  HN  UNL     1     -42.010 -48.177   7.777  1.00  0.00     0.186 HD
HETATM    9  C   UNL     1     -44.949 -47.502   9.056  1.00  0.00    -0.028 A 
HETATM   10  C   UNL     1     -46.423 -47.400   9.058  1.00  0.00     0.051 C 
HETATM   11  C   UNL     1     -44.080 -47.187  10.079  1.00  0.00     0.118 A 
ENDBRANCH   4   5
ENDBRANCH   3   4
ENDBRANCH   1   3
BRANCH   1  12
HETATM   12  C   UNL     1     -41.228 -50.849  11.765  1.00  0.00     0.372 C 
BRANCH  12  13
HETATM   13  C   UNL     1     -40.005 -51.499  12.417  1.00  0.00     0.248 C 
HETATM   14  O   UNL     1     -38.873 -51.116  12.107  1.00  0.00    -0.271 OA
HETATM   15  N   UNL     1     -40.213 -52.511  13.342  1.00  0.00    -0.347 N 
HETATM   16  C   UNL     1     -39.071 -52.973  14.132  1.00  0.00     0.152 C 
HETATM   17  C   UNL     1     -41.523 -52.871  13.895  1.00  0.00     0.152 C 
HETATM   18  C   UNL     1     -39.228 -54.434  14.563  1.00  0.00     0.187 C 
HETATM   19  O   UNL     1     -40.491 -54.657  15.207  1.00  0.00    -0.388 OA
HETATM   20  C   UNL     1     -41.567 -54.343  14.311  1.00  0.00     0.187 C 
ENDBRANCH  12  13
ENDBRANCH   1  12
TORSDOF 5
ENDMDL
MODEL 3
REMARK VINA RESULT:      -5.5      3.086      7.322
REMARK  5 active torsions:
REMARK  status: ('A' for Active; 'I' for Inactive)
REMARK    1  A    between atoms: N_6  and  C_7 
REMARK    2  A    between atoms: C_7  and  C_8 
REMARK    3  A    between atoms: C_8  and  N_9 
REMARK    4  A    between atoms: N_9  and  C_10 
REMARK    5  A    between atoms: C_10  and  C_11 
REMARK       I    between atoms: C_11  and  N_13 
ROOT
HETATM    1  N   UNL     1     -40.470 -51.086  11.373  1.00  0.00     0.093 N 
HETATM    2  H   UNL     1     -40.322 -51.047  10.364  1.00  0.00     0.316 HD
ENDROOT
BRANCH   1   3
HETATM    3  C   UNL     1     -41.054 -52.380  11.762  1.00  0.00     0.291 C 
BRANCH   3   4
HETATM    4  C   UNL     1     -41.659 -52.416  13.169  1.00  0.00     0.178 C 
BRANCH   4   5
HETATM    5  N   UNL     1     -42.998 -52.966  13.166  1.00  0.00    -0.302 N 
HETATM    6  N   UNL     1     -43.963 -52.362  12.449  1.00  0.00    -0.310 N 
HETATM    7  C   UNL     1     -45.019 -53.162  12.610  1.00  0.00     0.115 A 
ATOM      8  HN  UNL     1     -43.901 -51.498  11.910  1.00  0.00     0.186 HD
HETATM    9  C   UNL     1     -44.741 -54.269  13.442  1.00  0.00    -0.028 A 
HETATM   10  C   UNL     1     -45.654 -55.359  13.844  1.00  0.00     0.051 C 
HETATM   11  C   UNL     1     -43.416 -54.107  13.787  1.00  0.00     0.118 A 
ENDBRANCH   4   5
ENDBRANCH   3   4
ENDBRANCH   1   3
BRANCH   1  12
HETATM   12  C   UNL     1     -41.340 -49.962  11.765  1.00  0.00     0.372 C 
BRANCH  12  13
HETATM   13  C   UNL     1     -40.555 -48.647  11.757  1.00  0.00     0.248 C 
HETATM   14  O   UNL     1     -39.483 -48.575  12.366  1.00  0.00    -0.271 OA
HETATM   15  N   UNL     1     -41.083 -47.570  11.061  1.00  0.00    -0.347 N 
HETATM   16  C   UNL     1     -40.235 -46.394  10.860  1.00  0.00     0.152 C 
HETATM   17  C   UNL     1     -42.239 -47.651  10.163  1.00  0.00     0.152 C 
HETATM   18  C   UNL     1     -41.061 -45.112  10.728  1.00  0.00     0.187 C 
HETATM   19  O   UNL     1     -42.087 -45.249   9.734  1.00  0.00    -0.388 OA
HETATM   20  C   UNL     1     -42.981 -46.314  10.088  1.00  0.00     0.187 C 
ENDBRANCH  12  13
ENDBRANCH   1  12
TORSDOF 5
ENDMDL
MODEL 4
REMARK VINA RESULT:      -5.4      3.623      5.260
REMARK  5 active torsions:
REMARK  status: ('A' for Active; 'I' for Inactive)
REMARK    1  A    between atoms: N_6  and  C_7 
REMARK    2  A    between atoms: C_7  and  C_8 
REMARK    3  A    between atoms: C_8  and  N_9 
REMARK    4  A    between atoms: N_9  and  C_10 
REMARK    5  A    between atoms: C_10  and  C_11 
REMARK       I    between atoms: C_11  and  N_13 
ROOT
HETATM    1  N   UNL     1     -41.835 -50.320  12.335  1.00  0.00     0.093 N 
HETATM    2  H   UNL     1     -42.513 -51.007  12.002  1.00  0.00     0.316 HD
ENDROOT
BRANCH   1   3
HETATM    3  C   UNL     1     -42.327 -48.952  12.100  1.00  0.00     0.291 C 
BRANCH   3   4
HETATM    4  C   UNL     1     -41.836 -48.306  10.800  1.00  0.00     0.178 C 
BRANCH   4   5
HETATM    5  N   UNL     1     -42.936 -47.922   9.941  1.00  0.00    -0.302 N 
HETATM    6  N   UNL     1     -42.783 -47.969   8.605  1.00  0.00    -0.310 N 
HETATM    7  C   UNL     1     -43.988 -47.632   8.141  1.00  0.00     0.115 A 
ATOM      8  HN  UNL     1     -41.945 -48.206   8.074  1.00  0.00     0.186 HD
HETATM    9  C   UNL     1     -44.910 -47.352   9.173  1.00  0.00    -0.028 A 
HETATM   10  C   UNL     1     -46.326 -46.951   9.047  1.00  0.00     0.051 C 
HETATM   11  C   UNL     1     -44.189 -47.549  10.332  1.00  0.00     0.118 A 
ENDBRANCH   4   5
ENDBRANCH   3   4
ENDBRANCH   1   3
BRANCH   1  12
HETATM   12  C   UNL     1     -40.551 -50.556  11.651  1.00  0.00     0.372 C 
BRANCH  12  13
HETATM   13  C   UNL     1     -39.485 -51.011  12.652  1.00  0.00     0.248 C 
HETATM   14  O   UNL     1     -39.353 -52.214  12.895  1.00  0.00    -0.271 OA
HETATM   15  N   UNL     1     -38.699 -50.045  13.260  1.00  0.00    -0.347 N 
HETATM   16  C   UNL     1     -37.538 -50.485  14.035  1.00  0.00     0.152 C 
HETATM   17  C   UNL     1     -38.673 -48.632  12.870  1.00  0.00     0.152 C 
HETATM   18  C   UNL     1     -37.188 -49.497  15.151  1.00  0.00     0.187 C 
HETATM   19  O   UNL     1     -37.060 -48.159  14.645  1.00  0.00    -0.388 OA
HETATM   20  C   UNL     1     -38.294 -47.734  14.050  1.00  0.00     0.187 C 
ENDBRANCH  12  13
ENDBRANCH   1  12
TORSDOF 5
ENDMDL
MODEL 5
REMARK VINA RESULT:      -5.2      2.421      3.149
REMARK  5 active torsions:
REMARK  status: ('A' for Active; 'I' for Inactive)
REMARK    1  A    between atoms: N_6  and  C_7 
REMARK    2  A    between atoms: C_7  and  C_8 
REMARK    3  A    between atoms: C_8  and  N_9 
REMARK    4  A    between atoms: N_9  and  C_10 
REMARK    5  A    between atoms: C_10  and  C_11 
REMARK       I    between atoms: C_11  and  N_13 
ROOT
HETATM    1  N   UNL     1     -43.077 -52.799  11.784  1.00  0.00     0.093 N 
HETATM    2  H   UNL     1     -42.652 -53.240  10.967  1.00  0.00     0.316 HD
ENDROOT
BRANCH   1   3
HETATM    3  C   UNL     1     -42.040 -52.235  12.664  1.00  0.00     0.291 C 
BRANCH   3   4
HETATM    4  C   UNL     1     -40.933 -51.461  11.941  1.00  0.00     0.178 C 
BRANCH   4   5
HETATM    5  N   UNL     1     -41.318 -50.090  11.678  1.00  0.00    -0.302 N 
HETATM    6  N   UNL     1     -40.906 -49.491  10.546  1.00  0.00    -0.310 N 
HETATM    7  C   UNL     1     -41.495 -48.294  10.594  1.00  0.00     0.115 A 
ATOM      8  HN  UNL     1     -40.289 -49.863   9.823  1.00  0.00     0.186 HD
HETATM    9  C   UNL     1     -42.271 -48.116  11.761  1.00  0.00    -0.028 A 
HETATM   10  C   UNL     1     -43.062 -46.934  12.158  1.00  0.00     0.051 C 
HETATM   11  C   UNL     1     -42.130 -49.306  12.444  1.00  0.00     0.118 A 
ENDBRANCH   4   5
ENDBRANCH   3   4
ENDBRANCH   1   3
BRANCH   1  12
HETATM   12  C   UNL     1     -43.896 -53.802  12.489  1.00  0.00     0.372 C 
BRANCH  12  13
HETATM   13  C   UNL     1     -45.248 -53.206  12.889  1.00  0.00     0.248 C 
HETATM   14  O   UNL     1     -46.024 -52.813  12.012  1.00  0.00    -0.271 OA
HETATM   15  N   UNL     1     -45.557 -53.124  14.238  1.00  0.00    -0.347 N 
HETATM   16  C   UNL     1     -46.927 -52.772  14.614  1.00  0.00     0.152 C 
HETATM   17  C   UNL     1     -44.772 -53.749  15.307  1.00  0.00     0.152 C 
HETATM   18  C   UNL     1     -46.984 -52.070  15.973  1.00  0.00     0.187 C 
HETATM   19  O   UNL     1     -46.294 -52.823  16.982  1.00  0.00    -0.388 OA
HETATM   20  C   UNL     1     -44.913 -52.982  16.624  1.00  0.00     0.187 C 
ENDBRANCH  12  13
ENDBRANCH   1  12
TORSDOF 5
ENDMDL
MODEL 6
REMARK VINA RESULT:      -5.2      4.065      6.816
REMARK  5 active torsions:
REMARK  status: ('A' for Active; 'I' for Inactive)
REMARK    1  A    between atoms: N_6  and  C_7 
REMARK    2  A    between atoms: C_7  and  C_8 
REMARK    3  A    between atoms: C_8  and  N_9 
REMARK    4  A    between atoms: N_9  and  C_10 
REMARK    5  A    between atoms: C_10  and  C_11 
REMARK       I    between atoms: C_11  and  N_13 
ROOT
HETATM    1  N   UNL     1     -41.203 -51.759  11.458  1.00  0.00     0.093 N 
HETATM    2  H   UNL     1     -41.725 -51.920  10.595  1.00  0.00     0.316 HD
ENDROOT
BRANCH   1   3
HETATM    3  C   UNL     1     -42.069 -51.959  12.631  1.00  0.00     0.291 C 
BRANCH   3   4
HETATM    4  C   UNL     1     -43.189 -52.986  12.437  1.00  0.00     0.178 C 
BRANCH   4   5
HETATM    5  N   UNL     1     -44.468 -52.480  12.888  1.00  0.00    -0.302 N 
HETATM    6  N   UNL     1     -45.477 -52.346  12.008  1.00  0.00    -0.310 N 
HETATM    7  C   UNL     1     -46.499 -51.940  12.764  1.00  0.00     0.115 A 
ATOM      8  HN  UNL     1     -45.463 -52.514  11.002  1.00  0.00     0.186 HD
HETATM    9  C   UNL     1     -46.147 -51.797  14.124  1.00  0.00    -0.028 A 
HETATM   10  C   UNL     1     -47.005 -51.372  15.248  1.00  0.00     0.051 C 
HETATM   11  C   UNL     1     -44.815 -52.156  14.166  1.00  0.00     0.118 A 
ENDBRANCH   4   5
ENDBRANCH   3   4
ENDBRANCH   1   3
BRANCH   1  12
HETATM   12  C   UNL     1     -40.647 -50.394  11.423  1.00  0.00     0.372 C 
BRANCH  12  13
HETATM   13  C   UNL     1     -39.362 -50.317  12.252  1.00  0.00     0.248 C 
HETATM   14  O   UNL     1     -38.664 -51.326  12.389  1.00  0.00    -0.271 OA
HETATM   15  N   UNL     1     -39.023 -49.102  12.829  1.00  0.00    -0.347 N 
HETATM   16  C   UNL     1     -37.693 -48.965  13.423  1.00  0.00     0.152 C 
HETATM   17  C   UNL     1     -39.698 -47.832  12.542  1.00  0.00     0.152 C 
HETATM   18  C   UNL     1     -37.678 -47.936  14.557  1.00  0.00     0.187 C 
HETATM   19  O   UNL     1     -38.245 -46.686  14.138  1.00  0.00    -0.388 OA
HETATM   20  C   UNL     1     -39.607 -46.871  13.729  1.00  0.00     0.187 C 
ENDBRANCH  12  13
ENDBRANCH   1  12
TORSDOF 5
ENDMDL
MODEL 7
REMARK VINA RESULT:      -5.2      2.724      3.382
REMARK  5 active torsions:
REMARK  status: ('A' for Active; 'I' for Inactive)
REMARK    1  A    between atoms: N_6  and  C_7 
REMARK    2  A    between atoms: C_7  and  C_8 
REMARK    3  A    between atoms: C_8  and  N_9 
REMARK    4  A    between atoms: N_9  and  C_10 
REMARK    5  A    between atoms: C_10  and  C_11 
REMARK       I    between atoms: C_11  and  N_13 
ROOT
HETATM    1  N   UNL     1     -39.925 -51.300  13.923  1.00  0.00     0.093 N 
HETATM    2  H   UNL     1     -40.657 -50.678  13.575  1.00  0.00     0.316 HD
ENDROOT
BRANCH   1   3
HETATM    3  C   UNL     1     -38.599 -50.833  13.487  1.00  0.00     0.291 C 
BRANCH   3   4
HETATM    4  C   UNL     1     -38.489 -50.511  11.993  1.00  0.00     0.178 C 
BRANCH   4   5
HETATM    5  N   UNL     1     -39.447 -49.505  11.586  1.00  0.00    -0.302 N 
HETATM    6  N   UNL     1     -40.426 -49.831  10.724  1.00  0.00    -0.310 N 
HETATM    7  C   UNL     1     -41.150 -48.713  10.636  1.00  0.00     0.115 A 
ATOM      8  HN  UNL     1     -40.578 -50.721  10.249  1.00  0.00     0.186 HD
HETATM    9  C   UNL     1     -40.630 -47.665  11.426  1.00  0.00    -0.028 A 
HETATM   10  C   UNL     1     -41.156 -46.293  11.584  1.00  0.00     0.051 C 
HETATM   11  C   UNL     1     -39.519 -48.217  12.030  1.00  0.00     0.118 A 
ENDBRANCH   4   5
ENDBRANCH   3   4
ENDBRANCH   1   3
BRANCH   1  12
HETATM   12  C   UNL     1     -40.201 -52.666  13.441  1.00  0.00     0.372 C 
BRANCH  12  13
HETATM   13  C   UNL     1     -41.609 -52.751  12.847  1.00  0.00     0.248 C 
HETATM   14  O   UNL     1     -41.905 -52.047  11.877  1.00  0.00    -0.271 OA
HETATM   15  N   UNL     1     -42.516 -53.625  13.428  1.00  0.00    -0.347 N 
HETATM   16  C   UNL     1     -43.777 -53.879  12.730  1.00  0.00     0.152 C 
HETATM   17  C   UNL     1     -42.168 -54.623  14.445  1.00  0.00     0.152 C 
HETATM   18  C   UNL     1     -44.901 -54.253  13.700  1.00  0.00     0.187 C 
HETATM   19  O   UNL     1     -44.507 -55.325  14.570  1.00  0.00    -0.388 OA
HETATM   20  C   UNL     1     -43.364 -54.940  15.347  1.00  0.00     0.187 C 
ENDBRANCH  12  13
ENDBRANCH   1  12
TORSDOF 5
ENDMDL
MODEL 8
REMARK VINA RESULT:      -5.1      3.340      7.176
REMARK  5 active torsions:
REMARK  status: ('A' for Active; 'I' for Inactive)
REMARK    1  A    between atoms: N_6  and  C_7 
REMARK    2  A    between atoms: C_7  and  C_8 
REMARK    3  A    between atoms: C_8  and  N_9 
REMARK    4  A    between atoms: N_9  and  C_10 
REMARK    5  A    between atoms: C_10  and  C_11 
REMARK       I    between atoms: C_11  and  N_13 
ROOT
HETATM    1  N   UNL     1     -41.835 -50.222  11.625  1.00  0.00     0.093 N 
HETATM    2  H   UNL     1     -42.373 -50.627  10.858  1.00  0.00     0.316 HD
ENDROOT
BRANCH   1   3
HETATM    3  C   UNL     1     -41.854 -51.113  12.797  1.00  0.00     0.291 C 
BRANCH   3   4
HETATM    4  C   UNL     1     -42.637 -52.415  12.602  1.00  0.00     0.178 C 
BRANCH   4   5
HETATM    5  N   UNL     1     -44.034 -52.262  12.952  1.00  0.00    -0.302 N 
HETATM    6  N   UNL     1     -44.981 -52.769  12.143  1.00  0.00    -0.310 N 
HETATM    7  C   UNL     1     -46.117 -52.519  12.797  1.00  0.00     0.115 A 
ATOM      8  HN  UNL     1     -44.859 -53.234  11.243  1.00  0.00     0.186 HD
HETATM    9  C   UNL     1     -45.905 -51.839  14.016  1.00  0.00    -0.028 A 
HETATM   10  C   UNL     1     -46.913 -51.398  15.002  1.00  0.00     0.051 C 
HETATM   11  C   UNL     1     -44.535 -51.686  14.082  1.00  0.00     0.118 A 
ENDBRANCH   4   5
ENDBRANCH   3   4
ENDBRANCH   1   3
BRANCH   1  12
HETATM   12  C   UNL     1     -42.395 -48.897  11.946  1.00  0.00     0.372 C 
BRANCH  12  13
HETATM   13  C   UNL     1     -41.990 -47.871  10.884  1.00  0.00     0.248 C 
HETATM   14  O   UNL     1     -42.348 -48.034   9.713  1.00  0.00    -0.271 OA
HETATM   15  N   UNL     1     -41.225 -46.785  11.277  1.00  0.00    -0.347 N 
HETATM   16  C   UNL     1     -41.031 -45.692  10.322  1.00  0.00     0.152 C 
HETATM   17  C   UNL     1     -40.940 -46.434  12.672  1.00  0.00     0.152 C 
HETATM   18  C   UNL     1     -39.713 -44.952  10.562  1.00  0.00     0.187 C 
HETATM   19  O   UNL     1     -39.585 -44.539  11.931  1.00  0.00    -0.388 OA
HETATM   20  C   UNL     1     -39.613 -45.681  12.798  1.00  0.00     0.187 C 
ENDBRANCH  12  13
ENDBRANCH   1  12
TORSDOF 5
ENDMDL
MODEL 9
REMARK VINA RESULT:      -5.1      2.029      2.597
REMARK  5 active torsions:
REMARK  status: ('A' for Active; 'I' for Inactive)
REMARK    1  A    between atoms: N_6  and  C_7 
REMARK    2  A    between atoms: C_7  and  C_8 
REMARK    3  A    between atoms: C_8  and  N_9 
REMARK    4  A    between atoms: N_9  and  C_10 
REMARK    5  A    between atoms: C_10  and  C_11 
REMARK       I    between atoms: C_11  and  N_13 
ROOT
HETATM    1  N   UNL     1     -40.605 -51.290  11.453  1.00  0.00     0.093 N 
HETATM    2  H   UNL     1     -39.686 -51.533  11.826  1.00  0.00     0.316 HD
ENDROOT
BRANCH   1   3
HETATM    3  C   UNL     1     -41.116 -50.067  12.094  1.00  0.00     0.291 C 
BRANCH   3   4
HETATM    4  C   UNL     1     -40.795 -48.768  11.348  1.00  0.00     0.178 C 
BRANCH   4   5
HETATM    5  N   UNL     1     -41.988 -48.139  10.822  1.00  0.00    -0.302 N 
HETATM    6  N   UNL     1     -43.197 -48.563  11.231  1.00  0.00    -0.310 N 
HETATM    7  C   UNL     1     -44.043 -47.731  10.619  1.00  0.00     0.115 A 
ATOM      8  HN  UNL     1     -43.416 -49.337  11.859  1.00  0.00     0.186 HD
HETATM    9  C   UNL     1     -43.382 -46.785   9.806  1.00  0.00    -0.028 A 
HETATM   10  C   UNL     1     -43.981 -45.713   8.984  1.00  0.00     0.051 C 
HETATM   11  C   UNL     1     -42.045 -47.082   9.961  1.00  0.00     0.118 A 
ENDBRANCH   4   5
ENDBRANCH   3   4
ENDBRANCH   1   3
BRANCH   1  12
HETATM   12  C   UNL     1     -41.514 -52.430  11.666  1.00  0.00     0.372 C 
BRANCH  12  13
HETATM   13  C   UNL     1     -41.067 -53.256  12.875  1.00  0.00     0.248 C 
HETATM   14  O   UNL     1     -39.863 -53.441  13.074  1.00  0.00    -0.271 OA
HETATM   15  N   UNL     1     -42.042 -53.776  13.713  1.00  0.00    -0.347 N 
HETATM   16  C   UNL     1     -41.620 -54.365  14.984  1.00  0.00     0.152 C 
HETATM   17  C   UNL     1     -43.465 -53.429  13.643  1.00  0.00     0.152 C 
HETATM   18  C   UNL     1     -42.589 -55.449  15.461  1.00  0.00     0.187 C 
HETATM   19  O   UNL     1     -43.943 -54.972  15.478  1.00  0.00    -0.388 OA
HETATM   20  C   UNL     1     -44.343 -54.571  14.161  1.00  0.00     0.187 C 
ENDBRANCH  12  13
ENDBRANCH   1  12
TORSDOF 5
ENDMDL
