REMARK  7 active torsions:
REMARK  status: ('A' for Active; 'I' for Inactive)
REMARK    1  A    between atoms: C_2  and  N_3 
REMARK    2  A    between atoms: N_3  and  C_4 
REMARK    3  A    between atoms: C_7  and  O_8 
REMARK    4  A    between atoms: C_11  and  C_12 
REMARK    5  A    between atoms: C_12  and  C_13 
REMARK    6  A    between atoms: C_13  and  C_14 
REMARK    7  A    between atoms: C_14  and  N_15 
REMARK       I    between atoms: N_15  and  C_16 
ROOT
HETATM    1  C   UNL     1       4.313   0.794  -0.743  1.00  0.00     0.048 A 
HETATM    2  C   UNL     1       4.960  -0.448  -0.702  1.00  0.00     0.033 A 
HETATM    3  C   UNL     1       6.340  -0.546  -0.910  1.00  0.00     0.039 A 
HETATM    4  C   UNL     1       7.094   0.595  -1.166  1.00  0.00     0.069 A 
HETATM    5  C   UNL     1       6.459   1.842  -1.218  1.00  0.00     0.054 A 
HETATM    6  C   UNL     1       5.078   1.957  -0.991  1.00  0.00     0.039 A 
ENDROOT
BRANCH   6   7
HETATM    7  C   UNL     1       4.432   3.311  -0.982  1.00  0.00     0.163 C 
HETATM    8  O   UNL     1       3.247   3.406  -1.303  1.00  0.00    -0.292 OA
BRANCH   7   9
HETATM    9  C   UNL     1       5.246   4.529  -0.570  1.00  0.00     0.103 C 
BRANCH   9  10
HETATM   10  C   UNL     1       4.338   5.580   0.075  1.00  0.00     0.130 C 
BRANCH  10  11
HETATM   11  N   UNL     1       5.022   6.813   0.438  1.00  0.00    -0.361 N 
HETATM   12  C   UNL     1       5.868   6.879   1.521  1.00  0.00     0.213 C 
HETATM   13  C   UNL     1       6.314   8.272   1.890  1.00  0.00     0.117 C 
HETATM   14  O   UNL     1       6.247   5.892   2.143  1.00  0.00    -0.274 OA
HETATM   15  H   UNL     1       4.638   7.678   0.077  1.00  0.00     0.162 HD
ENDBRANCH  10  11
ENDBRANCH   9  10
ENDBRANCH   7   9
ENDBRANCH   6   7
BRANCH   1  16
HETATM   16  N   UNL     1       2.919   0.897  -0.556  1.00  0.00    -0.334 N 
HETATM   17  H   UNL     1       2.486   1.797  -0.778  1.00  0.00     0.168 HD
BRANCH  16  18
HETATM   18  C   UNL     1       2.055  -0.049  -0.096  1.00  0.00     0.353 C 
HETATM   19  O   UNL     1       0.845   0.128  -0.007  1.00  0.00    -0.283 OA
ENDBRANCH  16  18
ENDBRANCH   1  16
BRANCH   4  20
HETATM   20  O   UNL     1       8.444   0.626  -1.381  1.00  0.00    -0.356 OA
HETATM   21  C   UNL     1       9.158  -0.594  -1.209  1.00  0.00     0.210 C 
ENDBRANCH   4  20
TORSDOF 7
