REMARK  4 active torsions:
REMARK  status: ('A' for Active; 'I' for Inactive)
REMARK    1  A    between atoms: O_2  and  C_3 
REMARK    2  A    between atoms: C_9  and  C_10 
REMARK    3  A    between atoms: C_10  and  C_11 
REMARK    4  A    between atoms: C_11  and  N_12 
REMARK       I    between atoms: N_12  and  C_13 
ROOT
HETATM    1  C   UNL     1       3.082   0.270   1.256  1.00  0.00     0.069 A 
HETATM    2  C   UNL     1       4.172   1.135   1.068  1.00  0.00     0.051 A 
HETATM    3  C   UNL     1       4.903   1.607   2.181  1.00  0.00     0.001 A 
HETATM    4  C   UNL     1       4.513   1.171   3.448  1.00  0.00     0.043 A 
HETATM    5  N   UNL     1       5.362   1.751   4.357  1.00  0.00    -0.365 N 
HETATM    6  C   UNL     1       6.264   2.554   3.716  1.00  0.00     0.096 A 
HETATM    7  C   UNL     1       6.029   2.486   2.355  1.00  0.00    -0.029 A 
HETATM    8  C   UNL     1       3.444   0.294   3.658  1.00  0.00     0.033 A 
HETATM    9  C   UNL     1       2.735  -0.152   2.538  1.00  0.00     0.039 A 
HETATM   10  H   UNL     1       5.317   1.605   5.355  1.00  0.00     0.165 HD
ENDROOT
BRANCH   7  11
HETATM   11  C   UNL     1       6.787   3.210   1.273  1.00  0.00     0.060 C 
BRANCH  11  12
HETATM   12  C   UNL     1       8.272   3.419   1.606  1.00  0.00     0.127 C 
BRANCH  12  13
HETATM   13  N   UNL     1       9.012   4.181   0.614  1.00  0.00    -0.361 N 
HETATM   14  C   UNL     1       9.325   3.652  -0.617  1.00  0.00     0.213 C 
HETATM   15  C   UNL     1      10.234   4.515  -1.452  1.00  0.00     0.117 C 
HETATM   16  O   UNL     1       8.906   2.575  -1.022  1.00  0.00    -0.274 OA
HETATM   17  H   UNL     1       9.540   4.980   0.940  1.00  0.00     0.162 HD
ENDBRANCH  12  13
ENDBRANCH  11  12
ENDBRANCH   7  11
BRANCH   1  18
HETATM   18  O   UNL     1       2.454  -0.135   0.106  1.00  0.00    -0.356 OA
HETATM   19  C   UNL     1       1.083  -0.494   0.245  1.00  0.00     0.210 C 
ENDBRANCH   1  18
TORSDOF 4
