REMARK  4 active torsions:
REMARK  status: ('A' for Active; 'I' for Inactive)
REMARK    1  A    between atoms: C_6  and  O_7 
REMARK    2  A    between atoms: C_8  and  C_11 
REMARK    3  A    between atoms: C_11  and  C_12 
REMARK    4  A    between atoms: C_12  and  N_13 
ROOT
HETATM    1  C   UNL     1       1.525   1.310   0.012  1.00  0.00     0.039 A 
HETATM    2  C   UNL     1       0.181   1.688   0.018  1.00  0.00     0.033 A 
HETATM    3  C   UNL     1      -0.779   0.668   0.003  1.00  0.00     0.043 A 
HETATM    4  C   UNL     1      -0.446  -0.688  -0.020  1.00  0.00     0.001 A 
HETATM    5  C   UNL     1       0.920  -1.045  -0.024  1.00  0.00     0.050 A 
HETATM    6  C   UNL     1       1.882  -0.031  -0.006  1.00  0.00     0.066 A 
HETATM    7  C   UNL     1      -1.673  -1.430  -0.041  1.00  0.00    -0.029 A 
HETATM    8  C   UNL     1      -2.699  -0.504  -0.018  1.00  0.00     0.096 A 
HETATM    9  N   UNL     1      -2.151   0.749   0.008  1.00  0.00    -0.365 N 
HETATM   10  H   UNL     1      -2.673   1.613   0.027  1.00  0.00     0.165 HD
ENDROOT
BRANCH   7  11
HETATM   11  C   UNL     1      -1.837  -2.919  -0.086  1.00  0.00     0.070 C 
BRANCH  11  12
HETATM   12  C   UNL     1      -1.921  -3.444  -1.525  1.00  0.00     0.271 C 
BRANCH  12  13
HETATM   13  N   UNL     1      -2.109  -4.895  -1.567  1.00  0.00     0.078 N 
HETATM   14  H   UNL     1      -1.285  -5.359  -1.187  1.00  0.00     0.312 HD
HETATM   15  H   UNL     1      -2.178  -5.192  -2.540  1.00  0.00     0.312 HD
ENDBRANCH  12  13
ENDBRANCH  11  12
ENDBRANCH   7  11
BRANCH   6  16
HETATM   16  O   UNL     1       3.216  -0.325  -0.006  1.00  0.00    -0.361 OA
HETATM   17  H   UNL     1       3.317  -1.291  -0.000  1.00  0.00     0.217 HD
ENDBRANCH   6  16
TORSDOF 4
