REMARK  5 active torsions:
REMARK  status: ('A' for Active; 'I' for Inactive)
REMARK    1  A    between atoms: N_1  and  C_2 
REMARK    2  A    between atoms: C_7  and  C_8 
REMARK    3  A    between atoms: C_8  and  C_9 
REMARK    4  A    between atoms: C_9  and  C_10 
REMARK    5  A    between atoms: C_10  and  N_11 
ROOT
HETATM    1  C   UNL     1       0.996   0.032   0.005  1.00  0.00     0.019 A 
HETATM    2  C   UNL     1       0.355   1.277  -0.068  1.00  0.00     0.024 A 
HETATM    3  C   UNL     1      -1.036   1.371  -0.023  1.00  0.00     0.002 A 
HETATM    4  C   UNL     1      -1.809   0.216   0.050  1.00  0.00     0.001 A 
HETATM    5  C   UNL     1      -1.192  -1.038   0.081  1.00  0.00     0.017 A 
HETATM    6  C   UNL     1       0.208  -1.141   0.041  1.00  0.00     0.031 A 
ENDROOT
BRANCH   6   7
HETATM    7  C   UNL     1       0.873  -2.478   0.130  1.00  0.00     0.163 C 
HETATM    8  O   UNL     1       1.969  -2.568   0.695  1.00  0.00    -0.292 OA
BRANCH   7   9
HETATM    9  C   UNL     1       0.229  -3.692  -0.509  1.00  0.00     0.113 C 
BRANCH   9  10
HETATM   10  C   UNL     1       0.137  -4.873   0.453  1.00  0.00     0.274 C 
BRANCH  10  11
HETATM   11  N   UNL     1      -0.820  -4.637   1.535  1.00  0.00     0.078 N 
HETATM   12  H   UNL     1      -0.402  -3.987   2.204  1.00  0.00     0.312 HD
HETATM   13  H   UNL     1      -0.935  -5.506   2.061  1.00  0.00     0.312 HD
ENDBRANCH  10  11
ENDBRANCH   9  10
ENDBRANCH   7   9
ENDBRANCH   6   7
BRANCH   1  14
HETATM   14  N   UNL     1       2.392  -0.009  -0.199  1.00  0.00    -0.302 NA
HETATM   15  H   UNL     1       2.882   0.795   0.177  1.00  0.00     0.124 HD
HETATM   16  H   UNL     1       2.788  -0.889   0.156  1.00  0.00     0.124 HD
ENDBRANCH   1  14
TORSDOF 5
