REMARK  3 active torsions:
REMARK  status: ('A' for Active; 'I' for Inactive)
REMARK    1  A    between atoms: O_2  and  C_3 
REMARK    2  A    between atoms: N_9  and  C_10 
REMARK    3  A    between atoms: C_10  and  O_11 
ROOT
HETATM    1  C   UNL     1       3.104   0.225   1.298  1.00  0.00     0.079 A 
HETATM    2  C   UNL     1       2.722  -0.374   2.502  1.00  0.00     0.039 A 
HETATM    3  C   UNL     1       3.355  -0.025   3.690  1.00  0.00     0.021 A 
HETATM    4  C   UNL     1       4.380   0.927   3.686  1.00  0.00     0.044 A 
HETATM    5  C   UNL     1       4.995   1.318   4.972  1.00  0.00     0.263 A 
HETATM    6  O   UNL     1       4.581   0.799   6.006  1.00  0.00    -0.267 OA
HETATM    7  N   UNL     1       5.996   2.277   4.941  1.00  0.00    -0.258 N 
HETATM    8  C   UNL     1       6.473   2.864   3.765  1.00  0.00     0.263 A 
HETATM    9  O   UNL     1       7.369   3.703   3.745  1.00  0.00    -0.267 OA
HETATM   10  C   UNL     1       5.843   2.453   2.489  1.00  0.00     0.044 A 
HETATM   11  C   UNL     1       6.283   3.032   1.292  1.00  0.00     0.018 A 
HETATM   12  C   UNL     1       5.681   2.683   0.089  1.00  0.00     0.002 A 
HETATM   13  C   UNL     1       4.634   1.762   0.084  1.00  0.00     0.015 A 
HETATM   14  C   UNL     1       4.174   1.156   1.273  1.00  0.00     0.009 A 
HETATM   15  C   UNL     1       4.806   1.514   2.493  1.00  0.00     0.008 A 
ENDROOT
BRANCH   7  16
HETATM   16  C   UNL     1       6.619   2.790   6.153  1.00  0.00     0.302 C 
BRANCH  16  17
HETATM   17  O   UNL     1       6.178   2.199   7.363  1.00  0.00    -0.382 OA
HETATM   18  H   UNL     1       5.411   1.629   7.159  1.00  0.00     0.211 HD
ENDBRANCH  16  17
ENDBRANCH   7  16
BRANCH   1  19
HETATM   19  O   UNL     1       2.507  -0.076   0.097  1.00  0.00    -0.355 OA
HETATM   20  C   UNL     1       1.142  -0.485   0.167  1.00  0.00     0.210 C 
ENDBRANCH   1  19
TORSDOF 3
