REMARK  15 active torsions:
REMARK  status: ('A' for Active; 'I' for Inactive)
REMARK    1  A    between atoms: C_2  and  P_3 
REMARK    2  A    between atoms: P_3  and  AU_4 
REMARK    3  A    between atoms: P_3  and  C_29 
REMARK    4  A    between atoms: P_3  and  C_31 
REMARK    5  A    between atoms: AU_4  and  S_5 
REMARK    6  A    between atoms: S_5  and  C_6 
REMARK    7  A    between atoms: C_7  and  O_25 
REMARK    8  A    between atoms: C_8  and  O_21 
REMARK    9  A    between atoms: C_9  and  O_17 
REMARK   10  A    between atoms: C_10  and  C_12 
REMARK   11  A    between atoms: C_12  and  O_13 
REMARK   12  A    between atoms: O_13  and  C_14 
REMARK   13  A    between atoms: O_17  and  C_18 
REMARK   14  A    between atoms: O_21  and  C_22 
REMARK   15  A    between atoms: O_25  and  C_26 
ROOT
HETATM    1  C   UNL     1       4.839  -4.233   4.230  1.00  0.00     0.226 C 
HETATM    2  C   UNL     1       5.190  -4.786   2.814  1.00  0.00     0.203 C 
HETATM    3  C   UNL     1       4.351  -6.084   2.570  1.00  0.00     0.197 C 
HETATM    4  C   UNL     1       4.462  -7.064   3.762  1.00  0.00     0.195 C 
HETATM    5  C   UNL     1       4.198  -6.302   5.088  1.00  0.00     0.179 C 
HETATM    6  O   UNL     1       5.108  -5.200   5.222  1.00  0.00    -0.362 OA
ENDROOT
BRANCH   1   7
HETATM    7  S   UNL     1       5.568  -2.606   4.751  1.00  0.00    -0.060 SA
BRANCH   7   8
HETATM    8 AU   UNL     1       7.901  -2.877   5.017  1.00  0.00     0.000 Au
BRANCH   8   9
HETATM    9  P   UNL     1      10.028  -2.958   5.320  1.00  0.00    -0.118 P 
BRANCH   9  10
HETATM   10  C   UNL     1       9.893  -1.971   6.855  1.00  0.00     0.030 C 
HETATM   11  C   UNL     1       9.282  -0.559   6.826  1.00  0.00     0.010 C 
ENDBRANCH   9  10
BRANCH   9  12
HETATM   12  C   UNL     1      11.182  -1.640   4.593  1.00  0.00     0.030 C 
HETATM   13  C   UNL     1      10.837  -1.071   3.205  1.00  0.00     0.010 C 
ENDBRANCH   9  12
BRANCH   9  14
HETATM   14  C   UNL     1      10.164  -3.945   3.785  1.00  0.00     0.030 C 
HETATM   15  C   UNL     1      11.553  -4.504   3.470  1.00  0.00     0.010 C 
ENDBRANCH   9  14
ENDBRANCH   8   9
ENDBRANCH   7   8
ENDBRANCH   1   7
BRANCH   2  16
HETATM   16  O   UNL     1       4.867  -3.872   1.817  1.00  0.00    -0.310 OA
BRANCH  16  17
HETATM   17  C   UNL     1       5.567  -2.755   1.486  1.00  0.00     0.255 C 
HETATM   18  O   UNL     1       6.663  -2.534   1.976  1.00  0.00    -0.266 OA
HETATM   19  C   UNL     1       5.006  -1.794   0.484  1.00  0.00     0.126 C 
ENDBRANCH  16  17
ENDBRANCH   2  16
BRANCH   3  20
HETATM   20  O   UNL     1       4.769  -6.751   1.422  1.00  0.00    -0.311 OA
BRANCH  20  21
HETATM   21  C   UNL     1       4.560  -6.359   0.134  1.00  0.00     0.255 C 
HETATM   22  O   UNL     1       3.769  -5.467  -0.137  1.00  0.00    -0.266 OA
HETATM   23  C   UNL     1       5.296  -7.061  -0.970  1.00  0.00     0.126 C 
ENDBRANCH  20  21
ENDBRANCH   3  20
BRANCH   5  24
HETATM   24  C   UNL     1       4.417  -7.234   6.295  1.00  0.00     0.213 C 
BRANCH  24  25
HETATM   25  O   UNL     1       4.116  -6.585   7.479  1.00  0.00    -0.319 OA
BRANCH  25  26
HETATM   26  C   UNL     1       2.852  -6.329   7.913  1.00  0.00     0.254 C 
HETATM   27  O   UNL     1       1.881  -6.779   7.321  1.00  0.00    -0.266 OA
HETATM   28  C   UNL     1       2.641  -5.517   9.150  1.00  0.00     0.126 C 
ENDBRANCH  25  26
ENDBRANCH  24  25
ENDBRANCH   5  24
BRANCH   4  29
HETATM   29  O   UNL     1       3.493  -8.059   3.629  1.00  0.00    -0.311 OA
BRANCH  29  30
HETATM   30  C   UNL     1       3.689  -9.406   3.628  1.00  0.00     0.255 C 
HETATM   31  O   UNL     1       4.815  -9.878   3.680  1.00  0.00    -0.266 OA
HETATM   32  C   UNL     1       2.501 -10.327   3.620  1.00  0.00     0.126 C 
ENDBRANCH  29  30
ENDBRANCH   4  29
TORSDOF 15
