REMARK  1 active torsions:
REMARK  status: ('A' for Active; 'I' for Inactive)
REMARK    1  A    between atoms: C_4  and  N_7 
ROOT
HETATM    1  N   UNL     1      -3.424  -0.412  -0.706  1.00  0.00    -0.210 N 
HETATM    2  C   UNL     1      -4.595  -1.129  -0.506  1.00  0.00     0.278 C 
HETATM    3  O   UNL     1      -4.633  -2.212   0.042  1.00  0.00    -0.265 OA
HETATM    4  C   UNL     1      -5.746  -0.374  -0.831  1.00  0.00     0.045 A 
HETATM    5  C   UNL     1      -7.116  -0.660  -0.627  1.00  0.00     0.018 A 
HETATM    6  C   UNL     1      -8.060   0.371  -0.878  1.00  0.00     0.001 A 
HETATM    7  C   UNL     1      -7.640   1.640  -1.316  1.00  0.00     0.001 A 
HETATM    8  C   UNL     1      -6.299   1.874  -1.564  1.00  0.00     0.013 A 
HETATM    9  C   UNL     1      -5.400   0.860  -1.334  1.00  0.00    -0.009 A 
HETATM   10 SE   UNL     1      -3.703   1.086  -1.661  1.00  0.00     0.000 Se
ENDROOT
BRANCH   1  11
HETATM   11  C   UNL     1      -2.042  -0.608  -0.284  1.00  0.00     0.060 A 
HETATM   12  C   UNL     1      -1.393  -1.847  -0.087  1.00  0.00     0.031 A 
HETATM   13  C   UNL     1      -0.008  -1.860   0.212  1.00  0.00     0.002 A 
HETATM   14  C   UNL     1       0.714  -0.663   0.340  1.00  0.00     0.000 A 
HETATM   15  C   UNL     1       0.065   0.550   0.211  1.00  0.00     0.002 A 
HETATM   16  C   UNL     1      -1.277   0.572  -0.085  1.00  0.00     0.031 A 
ENDBRANCH   1  11
TORSDOF 1
