REMARK  0 active torsions:
REMARK  status: ('A' for Active; 'I' for Inactive)
ROOT
HETATM    1  O   UNL     1       0.908  -0.152  -0.075  1.00  0.00    -0.262 OA
HETATM    2  C   UNL     1       2.129  -0.091  -0.076  1.00  0.00     0.314 A 
HETATM    3  N   UNL     1       2.910  -1.223  -0.077  1.00  0.00    -0.316 N 
HETATM    4  C   UNL     1       4.308  -1.188  -0.078  1.00  0.00     0.078 A 
HETATM    5  C   UNL     1       5.046  -2.355  -0.080  1.00  0.00     0.120 A 
HETATM    6  N   UNL     1       6.396  -2.385  -0.081  1.00  0.00    -0.363 N 
ATOM      7  HN  UNL     1       6.898  -3.273  -0.082  1.00  0.00     0.165 HD
HETATM    8  C   UNL     1       7.062  -1.220  -0.080  1.00  0.00     0.044 A 
HETATM    9  C   UNL     1       8.450  -1.266  -0.081  1.00  0.00     0.032 A 
HETATM   10  C   UNL     1       9.228  -0.107  -0.079  1.00  0.00     0.026 A 
HETATM   11  C   UNL     1       8.604   1.130  -0.077  1.00  0.00     0.035 A 
HETATM   12 CL   UNL     1       9.546   2.568  -0.073  1.00  0.00    -0.084 Cl
HETATM   13  C   UNL     1       7.213   1.212  -0.076  1.00  0.00     0.040 A 
HETATM   14  C   UNL     1       6.415   0.039  -0.078  1.00  0.00     0.021 A 
HETATM   15  C   UNL     1       4.998   0.025  -0.077  1.00  0.00     0.076 A 
HETATM   16  N   UNL     1       4.251   1.217  -0.076  1.00  0.00    -0.316 N 
HETATM   17  C   UNL     1       2.874   1.263  -0.076  1.00  0.00     0.314 A 
HETATM   18  O   UNL     1       2.270   2.327  -0.075  1.00  0.00    -0.262 OA
HETATM   19  H   UNL     1       2.408  -2.101  -0.077  1.00  0.00     0.169 HD
HETATM   20  H   UNL     1       4.697   2.123  -0.076  1.00  0.00     0.169 HD
ENDROOT
TORSDOF 0
