REMARK  3 active torsions:
REMARK  status: ('A' for Active; 'I' for Inactive)
REMARK    1  A    between atoms: N_11  and  C_17 
REMARK    2  A    between atoms: C_13  and  C_14 
REMARK    3  A    between atoms: C_14  and  O_16 
ROOT
HETATM    1  O   UNL     1       0.968   0.050   0.075  1.00  0.00    -0.286 OA
HETATM    2  C   UNL     1       2.197   0.082   0.005  1.00  0.00     0.204 A 
HETATM    3  C   UNL     1       2.997  -1.156  -0.011  1.00  0.00     0.059 A 
HETATM    4  C   UNL     1       4.395  -1.082  -0.005  1.00  0.00     0.122 A 
HETATM    5  N   UNL     1       5.143  -2.212  -0.000  1.00  0.00    -0.345 N 
ATOM      6  HN  UNL     1       6.162  -2.158   0.011  1.00  0.00     0.167 HD
HETATM    7  C   UNL     1       4.517  -3.417  -0.010  1.00  0.00     0.007 A 
HETATM    8  C   UNL     1       3.134  -3.548  -0.043  1.00  0.00     0.025 A 
HETATM    9  C   UNL     1       2.360  -2.397  -0.036  1.00  0.00     0.021 A 
HETATM   10  C   UNL     1       5.381  -4.643   0.009  1.00  0.00     0.068 C 
HETATM   11  N   UNL     1       5.013   0.191  -0.006  1.00  0.00    -0.342 N 
HETATM   12  C   UNL     1       4.240   1.338  -0.075  1.00  0.00     0.115 A 
HETATM   13  C   UNL     1       2.898   1.380  -0.075  1.00  0.00     0.104 A 
ENDROOT
BRANCH  13  14
HETATM   14  C   UNL     1       2.198   2.678  -0.150  1.00  0.00     0.181 C 
HETATM   15  O   UNL     1       2.779   3.750  -0.246  1.00  0.00    -0.646 OA
BRANCH  14  16
HETATM   16  O   UNL     1       0.851   2.593  -0.109  1.00  0.00    -0.773 OA
HETATM   17  H   UNL     1       0.506   1.670  -0.021  1.00  0.00     0.167 HD
ENDBRANCH  14  16
ENDBRANCH  13  14
BRANCH  11  18
HETATM   18  C   UNL     1       6.482   0.207   0.005  1.00  0.00     0.125 C 
HETATM   19  C   UNL     1       7.047   0.184  -1.407  1.00  0.00     0.027 C 
ENDBRANCH  11  18
TORSDOF 3
