REMARK  4 active torsions:
REMARK  status: ('A' for Active; 'I' for Inactive)
REMARK       I    between atoms: C_2  and  N_4 
REMARK    1  A    between atoms: N_4  and  C_5 
REMARK    2  A    between atoms: C_5  and  C_6 
REMARK    3  A    between atoms: C_6  and  C_7 
REMARK    4  A    between atoms: C_13  and  O_16 
ROOT
HETATM    1  C   UNL     1       6.688   1.192  -2.547  1.00  0.00    -0.029 A 
HETATM    2  C   UNL     1       7.596   2.124  -2.080  1.00  0.00     0.096 A 
HETATM    3  N   UNL     1       8.862   1.678  -2.350  1.00  0.00    -0.365 N 
HETATM    4  C   UNL     1       8.808   0.456  -2.973  1.00  0.00     0.043 A 
HETATM    5  C   UNL     1       7.460   0.117  -3.104  1.00  0.00     0.001 A 
HETATM    6  C   UNL     1       7.133  -1.118  -3.706  1.00  0.00     0.050 A 
HETATM    7  C   UNL     1       8.168  -1.947  -4.149  1.00  0.00     0.066 A 
HETATM    8  C   UNL     1       9.501  -1.583  -4.013  1.00  0.00     0.039 A 
HETATM    9  C   UNL     1       9.849  -0.369  -3.418  1.00  0.00     0.033 A 
HETATM   10  H   UNL     1       9.713   2.167  -2.116  1.00  0.00     0.165 HD
ENDROOT
BRANCH   1  11
HETATM   11  C   UNL     1       5.192   1.267  -2.457  1.00  0.00     0.060 C 
BRANCH  11  12
HETATM   12  C   UNL     1       4.646   2.697  -2.536  1.00  0.00     0.127 C 
BRANCH  12  13
HETATM   13  N   UNL     1       3.199   2.752  -2.446  1.00  0.00    -0.361 N 
HETATM   14  C   UNL     1       2.560   2.829  -1.230  1.00  0.00     0.213 C 
HETATM   15  C   UNL     1       1.063   2.908  -1.343  1.00  0.00     0.117 C 
HETATM   16  O   UNL     1       3.140   2.838  -0.150  1.00  0.00    -0.274 OA
HETATM   17  H   UNL     1       2.654   2.701  -3.297  1.00  0.00     0.162 HD
ENDBRANCH  12  13
ENDBRANCH  11  12
ENDBRANCH   1  11
BRANCH   7  18
HETATM   18  O   UNL     1       7.902  -3.152  -4.734  1.00  0.00    -0.361 OA
HETATM   19  H   UNL     1       6.941  -3.287  -4.734  1.00  0.00     0.217 HD
ENDBRANCH   7  18
TORSDOF 4
