REMARK  27 active torsions:
REMARK  status: ('A' for Active; 'I' for Inactive)
REMARK       I    between atoms: C_2  and  N_4 
REMARK    1  A    between atoms: N_4  and  O_5 
REMARK    2  A    between atoms: N_4  and  C_6 
REMARK    3  A    between atoms: C_6  and  C_7 
REMARK    4  A    between atoms: C_7  and  C_8 
REMARK    5  A    between atoms: C_8  and  C_9 
REMARK    6  A    between atoms: C_9  and  C_10 
REMARK    7  A    between atoms: C_10  and  N_11 
REMARK       I    between atoms: N_11  and  C_12 
REMARK    8  A    between atoms: C_12  and  C_14 
REMARK    9  A    between atoms: C_14  and  C_15 
REMARK   10  A    between atoms: C_15  and  C_16 
REMARK       I    between atoms: C_16  and  N_18 
REMARK   11  A    between atoms: N_18  and  O_19 
REMARK   12  A    between atoms: N_18  and  C_20 
REMARK   13  A    between atoms: C_20  and  C_21 
REMARK   14  A    between atoms: C_21  and  C_22 
REMARK   15  A    between atoms: C_22  and  C_23 
REMARK   16  A    between atoms: C_23  and  C_24 
REMARK   17  A    between atoms: C_24  and  N_25 
REMARK       I    between atoms: N_25  and  C_26 
REMARK   18  A    between atoms: C_26  and  C_28 
REMARK   19  A    between atoms: C_28  and  C_29 
REMARK   20  A    between atoms: C_29  and  C_30 
REMARK       I    between atoms: C_30  and  N_32 
REMARK   21  A    between atoms: N_32  and  O_33 
REMARK   22  A    between atoms: N_32  and  C_34 
REMARK   23  A    between atoms: C_34  and  C_35 
REMARK   24  A    between atoms: C_35  and  C_36 
REMARK   25  A    between atoms: C_36  and  C_37 
REMARK   26  A    between atoms: C_37  and  C_38 
REMARK   27  A    between atoms: C_38  and  N_39 
ROOT
HETATM    1  C   UNL     1      15.196   7.951   6.567  1.00  0.00     0.159 C 
ENDROOT
BRANCH   1   2
HETATM    2  N   UNL     1      14.686   6.879   5.725  1.00  0.00    -0.229 N 
HETATM    3  C   UNL     1      14.385   5.624   6.193  1.00  0.00     0.243 C 
HETATM    4  O   UNL     1      14.584   5.291   7.364  1.00  0.00    -0.271 OA
BRANCH   3   5
HETATM    5  C   UNL     1      13.770   4.659   5.205  1.00  0.00     0.114 C 
BRANCH   5   6
HETATM    6  C   UNL     1      13.473   3.298   5.831  1.00  0.00     0.112 C 
BRANCH   6   7
HETATM    7  C   UNL     1      12.867   2.366   4.804  1.00  0.00     0.217 C 
HETATM    8  N   UNL     1      12.510   1.137   5.314  1.00  0.00    -0.361 N 
HETATM    9  H   UNL     1      12.842   0.875   6.234  1.00  0.00     0.162 HD
HETATM   10  O   UNL     1      12.705   2.681   3.636  1.00  0.00    -0.274 OA
BRANCH   8  11
HETATM   11  C   UNL     1      11.961   0.106   4.452  1.00  0.00     0.122 C 
BRANCH  11  12
HETATM   12  C   UNL     1      11.083  -0.886   5.212  1.00  0.00     0.020 C 
BRANCH  12  13
HETATM   13  C   UNL     1       9.891  -0.203   5.889  1.00  0.00     0.003 C 
BRANCH  13  14
HETATM   14  C   UNL     1       8.995  -1.204   6.623  1.00  0.00     0.022 C 
BRANCH  14  15
HETATM   15  C   UNL     1       7.832  -0.482   7.310  1.00  0.00     0.159 C 
BRANCH  15  16
HETATM   16  N   UNL     1       6.940  -1.402   8.006  1.00  0.00    -0.229 N 
HETATM   17  C   UNL     1       5.859  -1.996   7.409  1.00  0.00     0.239 C 
HETATM   18  C   UNL     1       5.012  -2.900   8.270  1.00  0.00     0.119 C 
HETATM   19  O   UNL     1       5.556  -1.803   6.232  1.00  0.00    -0.272 OA
BRANCH  16  20
HETATM   20  O   UNL     1       7.381  -1.666   9.312  1.00  0.00    -0.285 OA
HETATM   21  H   UNL     1       6.664  -2.152   9.750  1.00  0.00     0.245 HD
ENDBRANCH  16  20
ENDBRANCH  15  16
ENDBRANCH  14  15
ENDBRANCH  13  14
ENDBRANCH  12  13
ENDBRANCH  11  12
ENDBRANCH   8  11
ENDBRANCH   6   7
ENDBRANCH   5   6
ENDBRANCH   3   5
BRANCH   2  22
HETATM   22  O   UNL     1      14.519   7.306   4.399  1.00  0.00    -0.285 OA
HETATM   23  H   UNL     1      14.030   6.608   3.934  1.00  0.00     0.245 HD
ENDBRANCH   2  22
ENDBRANCH   1   2
BRANCH   1  24
HETATM   24  C   UNL     1      16.724   8.009   6.586  1.00  0.00     0.022 C 
BRANCH  24  25
HETATM   25  C   UNL     1      17.265   9.119   7.499  1.00  0.00     0.003 C 
BRANCH  25  26
HETATM   26  C   UNL     1      16.834  10.525   7.064  1.00  0.00     0.020 C 
BRANCH  26  27
HETATM   27  C   UNL     1      17.386  11.603   7.995  1.00  0.00     0.122 C 
BRANCH  27  28
HETATM   28  N   UNL     1      16.967  12.930   7.586  1.00  0.00    -0.361 N 
HETATM   29  C   UNL     1      17.685  13.668   6.672  1.00  0.00     0.217 C 
HETATM   30  O   UNL     1      18.727  13.276   6.153  1.00  0.00    -0.274 OA
HETATM   31  H   UNL     1      16.075  13.277   7.912  1.00  0.00     0.162 HD
BRANCH  29  32
HETATM   32  C   UNL     1      17.090  15.018   6.346  1.00  0.00     0.112 C 
BRANCH  32  33
HETATM   33  C   UNL     1      16.873  15.121   4.842  1.00  0.00     0.114 C 
BRANCH  33  34
HETATM   34  C   UNL     1      16.335  16.491   4.474  1.00  0.00     0.243 C 
HETATM   35  O   UNL     1      15.271  16.862   4.987  1.00  0.00    -0.271 OA
HETATM   36  N   UNL     1      17.010  17.247   3.546  1.00  0.00    -0.229 N 
BRANCH  36  37
HETATM   37  O   UNL     1      18.332  17.010   3.141  1.00  0.00    -0.285 OA
HETATM   38  H   UNL     1      18.442  16.048   3.117  1.00  0.00     0.245 HD
ENDBRANCH  36  37
BRANCH  36  39
HETATM   39  C   UNL     1      16.579  18.591   3.160  1.00  0.00     0.159 C 
BRANCH  39  40
HETATM   40  C   UNL     1      16.358  18.733   1.651  1.00  0.00     0.022 C 
BRANCH  40  41
HETATM   41  C   UNL     1      15.278  17.783   1.132  1.00  0.00     0.003 C 
BRANCH  41  42
HETATM   42  C   UNL     1      15.056  17.945  -0.375  1.00  0.00     0.030 C 
BRANCH  42  43
HETATM   43  C   UNL     1      13.990  16.988  -0.914  1.00  0.00     0.267 C 
BRANCH  43  44
HETATM   44  N   UNL     1      14.369  15.594  -0.711  1.00  0.00     0.078 N 
HETATM   45  H   UNL     1      15.245  15.403  -1.194  1.00  0.00     0.312 HD
HETATM   46  H   UNL     1      13.666  14.984  -1.125  1.00  0.00     0.312 HD
ENDBRANCH  43  44
ENDBRANCH  42  43
ENDBRANCH  41  42
ENDBRANCH  40  41
ENDBRANCH  39  40
ENDBRANCH  36  39
ENDBRANCH  33  34
ENDBRANCH  32  33
ENDBRANCH  29  32
ENDBRANCH  27  28
ENDBRANCH  26  27
ENDBRANCH  25  26
ENDBRANCH  24  25
ENDBRANCH   1  24
TORSDOF 27
