REMARK  4 active torsions:
REMARK  status: ('A' for Active; 'I' for Inactive)
REMARK    1  A    between atoms: C_3  and  N_4 
REMARK    2  A    between atoms: C_6  and  C_22 
REMARK    3  A    between atoms: C_12  and  N_15 
REMARK    4  A    between atoms: C_22  and  O_24 
ROOT
HETATM    1  N   UNL     1      -1.465  -0.793  -1.289  1.00  0.00    -0.350 N 
HETATM    2  C   UNL     1      -0.831  -1.029  -2.498  1.00  0.00     0.114 A 
HETATM    3  C   UNL     1      -1.434  -1.371  -3.648  1.00  0.00     0.104 A 
HETATM    4  C   UNL     1      -2.902  -1.530  -3.618  1.00  0.00     0.202 A 
HETATM    5  O   UNL     1      -3.520  -1.773  -4.652  1.00  0.00    -0.286 OA
HETATM    6  C   UNL     1      -3.590  -1.433  -2.315  1.00  0.00     0.045 A 
HETATM    7  C   UNL     1      -4.942  -1.759  -2.239  1.00  0.00     0.062 A 
HETATM    8  C   UNL     1      -5.569  -1.761  -1.000  1.00  0.00     0.143 A 
HETATM    9  C   UNL     1      -4.891  -1.416   0.184  1.00  0.00     0.071 A 
HETATM   10  C   UNL     1      -3.545  -1.021   0.056  1.00  0.00     0.063 A 
HETATM   11  C   UNL     1      -2.861  -1.061  -1.173  1.00  0.00     0.051 A 
HETATM   12  F   UNL     1      -6.868  -2.094  -0.966  1.00  0.00    -0.204 F 
ENDROOT
BRANCH   9  13
HETATM   13  N   UNL     1      -5.468  -1.509   1.437  1.00  0.00    -0.375 N 
HETATM   14  C   UNL     1      -6.429  -2.574   1.763  1.00  0.00     0.153 C 
HETATM   15  C   UNL     1      -7.784  -1.983   2.203  1.00  0.00     0.289 C 
HETATM   16  N   UNL     1      -7.658  -0.991   3.294  1.00  0.00     0.086 N 
HETATM   17  C   UNL     1      -6.739   0.080   2.849  1.00  0.00     0.289 C 
HETATM   18  H   UNL     1      -7.232  -1.459   4.094  1.00  0.00     0.316 HD
HETATM   19  C   UNL     1      -5.341  -0.430   2.425  1.00  0.00     0.153 C 
ENDBRANCH   9  13
BRANCH   1  20
HETATM   20  C   UNL     1      -0.664  -0.463  -0.091  1.00  0.00     0.090 A 
HETATM   21  C   UNL     1      -0.663   0.965   0.408  1.00  0.00     0.028 A 
HETATM   22  C   UNL     1       0.611   0.338  -0.064  1.00  0.00     0.028 A 
ENDBRANCH   1  20
BRANCH   3  23
HETATM   23  C   UNL     1      -0.628  -1.584  -4.868  1.00  0.00     0.181 C 
HETATM   24  O   UNL     1       0.593  -1.479  -4.891  1.00  0.00    -0.646 OA
BRANCH  23  25
HETATM   25  O   UNL     1      -1.341  -1.912  -5.965  1.00  0.00    -0.773 OA
HETATM   26  H   UNL     1      -2.318  -1.951  -5.819  1.00  0.00     0.167 HD
ENDBRANCH  23  25
ENDBRANCH   3  23
TORSDOF 4
