REMARK  6 active torsions:
REMARK  status: ('A' for Active; 'I' for Inactive)
REMARK    1  A    between atoms: C_3  and  N_23 
REMARK    2  A    between atoms: C_10  and  C_12 
REMARK    3  A    between atoms: C_13  and  O_20 
REMARK    4  A    between atoms: C_14  and  O_19 
REMARK    5  A    between atoms: C_15  and  C_17 
REMARK    6  A    between atoms: C_17  and  O_18 
ROOT
HETATM    1  C   UNL     1      -2.260  -2.479  -0.048  1.00  0.00     0.222 C 
HETATM    2  C   UNL     1      -1.810  -3.071   1.312  1.00  0.00     0.205 C 
HETATM    3  C   UNL     1      -1.715  -4.590   1.096  1.00  0.00     0.182 C 
HETATM    4  C   UNL     1      -2.276  -4.833  -0.294  1.00  0.00     0.179 C 
HETATM    5  O   UNL     1      -2.104  -3.585  -0.996  1.00  0.00    -0.347 OA
HETATM    6  C   UNL     1      -1.402  -1.336  -0.469  1.00  0.00     0.107 C 
HETATM    7  N   UNL     1      -0.751  -0.447  -0.834  1.00  0.00    -0.193 NA
ENDROOT
BRANCH   1   8
HETATM    8  C   UNL     1      -3.705  -2.068  -0.251  1.00  0.00     0.086 A 
HETATM    9  N   UNL     1      -4.594  -1.678   0.726  1.00  0.00    -0.252 N 
HETATM   10  C   UNL     1      -5.826  -1.497   0.164  1.00  0.00     0.100 A 
HETATM   11  N   UNL     1      -4.351  -1.520   2.034  1.00  0.00    -0.289 N 
HETATM   12  C   UNL     1      -5.731  -1.669  -1.197  1.00  0.00     0.038 A 
HETATM   13  C   UNL     1      -6.918  -1.180   1.021  1.00  0.00     0.129 A 
HETATM   14  C   UNL     1      -4.386  -1.978  -1.465  1.00  0.00     0.034 A 
HETATM   15  N   UNL     1      -6.678  -1.023   2.285  1.00  0.00    -0.336 N 
HETATM   16  C   UNL     1      -5.392  -1.190   2.737  1.00  0.00     0.199 A 
ATOM     17  HN  UNL     1      -7.429  -0.780   2.931  1.00  0.00     0.168 HD
ATOM     18  HN  UNL     1      -3.426  -1.648   2.444  1.00  0.00     0.188 HD
BRANCH  13  19
HETATM   19  N   UNL     1      -8.197  -1.028   0.572  1.00  0.00    -0.384 N 
HETATM   20  H   UNL     1      -8.315  -0.766  -0.397  1.00  0.00     0.157 HD
HETATM   21  H   UNL     1      -8.796  -0.526   1.217  1.00  0.00     0.157 HD
ENDBRANCH  13  19
ENDBRANCH   1   8
BRANCH   2  22
HETATM   22  O   UNL     1      -0.538  -2.567   1.768  1.00  0.00    -0.388 OA
HETATM   23  H   UNL     1       0.146  -3.198   1.465  1.00  0.00     0.210 HD
ENDBRANCH   2  22
BRANCH   3  24
HETATM   24  O   UNL     1      -0.339  -5.005   1.176  1.00  0.00    -0.390 OA
HETATM   25  H   UNL     1       0.036  -5.062   0.278  1.00  0.00     0.210 HD
ENDBRANCH   3  24
BRANCH   4  26
HETATM   26  C   UNL     1      -3.743  -5.288  -0.270  1.00  0.00     0.198 C 
BRANCH  26  27
HETATM   27  O   UNL     1      -4.236  -5.458  -1.595  1.00  0.00    -0.398 OA
HETATM   28  H   UNL     1      -4.159  -4.594  -2.038  1.00  0.00     0.209 HD
ENDBRANCH  26  27
ENDBRANCH   4  26
TORSDOF 6
