REMARK  4 active torsions:
REMARK  status: ('A' for Active; 'I' for Inactive)
REMARK    1  A    between atoms: C3*_2  and  O3*_17 
REMARK    2  A    between atoms: C4*_3  and  C5*_15 
REMARK    3  A    between atoms: C1*_5  and  N_6 
REMARK    4  A    between atoms: C5*_15  and  O5*_16 
ROOT
HETATM    1  C2* UNL     1      -0.006  -1.252   0.533  1.00  0.00     0.088 C 
HETATM    2  C3* UNL     1      -0.862  -0.005   0.512  1.00  0.00     0.153 C 
HETATM    3  C4* UNL     1       0.163   1.124   0.462  1.00  0.00     0.176 C 
HETATM    4  O4* UNL     1       1.352   0.580  -0.163  1.00  0.00    -0.356 OA
HETATM    5  C1* UNL     1       1.178  -0.840  -0.331  1.00  0.00     0.235 C 
ENDROOT
BRANCH   5   6
HETATM    6  N   UNL     1       2.415  -1.543  -0.014  1.00  0.00    -0.281 N 
HETATM    7  C   UNL     1       3.294  -1.053   0.937  1.00  0.00     0.128 A 
HETATM    8  C   UNL     1       4.458  -1.647   1.213  1.00  0.00     0.117 A 
HETATM    9  C   UNL     1       4.816  -2.881   0.474  1.00  0.00     0.272 A 
HETATM   10 CL   UNL     1       5.549  -1.016   2.376  1.00  0.00    -0.077 Cl
HETATM   11  O   UNL     1       5.887  -3.461   0.611  1.00  0.00    -0.266 OA
HETATM   12  N   UNL     1       3.857  -3.343  -0.389  1.00  0.00    -0.274 N 
HETATM   13  C   UNL     1       2.664  -2.734  -0.685  1.00  0.00     0.331 A 
HETATM   14  H   UNL     1       4.075  -4.186  -0.899  1.00  0.00     0.173 HD
HETATM   15  O   UNL     1       1.894  -3.237  -1.500  1.00  0.00    -0.246 OA
ENDBRANCH   5   6
BRANCH   2  16
HETATM   16  O3* UNL     1      -1.685  -0.014  -0.655  1.00  0.00    -0.393 OA
HETATM   17  H3* UNL     1      -1.145   0.181  -1.441  1.00  0.00     0.210 HD
ENDBRANCH   2  16
BRANCH   3  18
HETATM   18  C5* UNL     1       0.552   1.627   1.855  1.00  0.00     0.198 C 
BRANCH  18  19
HETATM   19  O5* UNL     1       1.559   2.632   1.753  1.00  0.00    -0.398 OA
HETATM   20  H5* UNL     1       2.221   2.303   1.116  1.00  0.00     0.209 HD
ENDBRANCH  18  19
ENDBRANCH   3  18
TORSDOF 4
