REMARK  3 active torsions:
REMARK  status: ('A' for Active; 'I' for Inactive)
REMARK    1  A    between atoms: N_8  and  C_9 
REMARK    2  A    between atoms: C_9  and  C_10 
REMARK    3  A    between atoms: N_22  and  O_23 
ROOT
HETATM    1  O   UNL     1       0.857   0.036   0.155  1.00  0.00    -0.264 OA
HETATM    2  C   UNL     1       2.069  -0.160   0.056  1.00  0.00     0.295 A 
HETATM    3  C   UNL     1       2.995  -0.107   1.159  1.00  0.00     0.102 A 
HETATM    4  S   UNL     1       2.508   0.162   2.763  1.00  0.00    -0.094 SA
HETATM    5  C   UNL     1       4.121   0.034   3.322  1.00  0.00     0.053 A 
HETATM    6  C   UNL     1       5.008  -0.189   2.288  1.00  0.00     0.038 A 
HETATM    7  C   UNL     1       4.356  -0.262   1.023  1.00  0.00     0.062 A 
HETATM    8  N   UNL     1       4.927  -0.470  -0.243  1.00  0.00    -0.294 N 
HETATM    9  C   UNL     1       4.090  -0.596  -1.360  1.00  0.00     0.356 A 
HETATM   10  O   UNL     1       4.523  -0.804  -2.499  1.00  0.00    -0.244 OA
HETATM   11  N   UNL     1       2.721  -0.448  -1.137  1.00  0.00    -0.133 N 
ENDROOT
BRANCH   8  12
HETATM   12  C   UNL     1       6.381  -0.552  -0.449  1.00  0.00     0.168 C 
BRANCH  12  13
HETATM   13  C   UNL     1       6.953  -1.982  -0.401  1.00  0.00     0.171 C 
HETATM   14  C   UNL     1       8.477  -1.940  -0.643  1.00  0.00     0.209 C 
HETATM   15  O   UNL     1       9.262  -2.992  -0.071  1.00  0.00    -0.346 OA
HETATM   16  C   UNL     1       8.530  -3.982   0.511  1.00  0.00     0.102 A 
HETATM   17  C   UNL     1       9.140  -5.224   0.662  1.00  0.00     0.039 A 
HETATM   18  C   UNL     1       7.224  -3.792   0.950  1.00  0.00     0.102 A 
HETATM   19  C   UNL     1       8.411  -6.294   1.182  1.00  0.00     0.003 A 
HETATM   20  C   UNL     1       7.087  -6.107   1.589  1.00  0.00     0.003 A 
HETATM   21  C   UNL     1       6.500  -4.844   1.499  1.00  0.00     0.039 A 
HETATM   22  O   UNL     1       6.625  -2.567   0.864  1.00  0.00    -0.339 OA
ENDBRANCH  12  13
ENDBRANCH   8  12
BRANCH  11  23
HETATM   23  O   UNL     1       1.905  -0.532  -2.291  1.00  0.00    -0.276 OA
HETATM   24  H   UNL     1       2.567  -0.647  -3.002  1.00  0.00     0.245 HD
ENDBRANCH  11  23
TORSDOF 3
