REMARK  6 active torsions:
REMARK  status: ('A' for Active; 'I' for Inactive)
REMARK    1  A    between atoms: N_1  and  C_2 
REMARK    2  A    between atoms: C_5  and  O_6 
REMARK    3  A    between atoms: C_9  and  C_10 
REMARK    4  A    between atoms: C_10  and  C_11 
REMARK    5  A    between atoms: C_11  and  C_12 
REMARK    6  A    between atoms: C_12  and  N_13 
REMARK       I    between atoms: N_13  and  C_14 
ROOT
HETATM    1  C   UNL     1       1.013   0.037  -0.029  1.00  0.00     0.020 A 
HETATM    2  C   UNL     1       0.359   1.279  -0.061  1.00  0.00     0.027 A 
HETATM    3  C   UNL     1      -1.035   1.370  -0.021  1.00  0.00     0.038 A 
HETATM    4  C   UNL     1      -1.797   0.205   0.008  1.00  0.00     0.069 A 
HETATM    5  C   UNL     1      -1.160  -1.047   0.002  1.00  0.00     0.053 A 
HETATM    6  C   UNL     1       0.240  -1.149  -0.032  1.00  0.00     0.033 A 
ENDROOT
BRANCH   6   7
HETATM    7  C   UNL     1       0.923  -2.490   0.036  1.00  0.00     0.163 C 
HETATM    8  O   UNL     1       2.046  -2.553   0.544  1.00  0.00    -0.292 OA
BRANCH   7   9
HETATM    9  C   UNL     1       0.275  -3.730  -0.572  1.00  0.00     0.103 C 
BRANCH   9  10
HETATM   10  C   UNL     1       0.749  -5.001   0.148  1.00  0.00     0.130 C 
BRANCH  10  11
HETATM   11  N   UNL     1       0.239  -6.246  -0.419  1.00  0.00    -0.361 N 
HETATM   12  C   UNL     1      -1.085  -6.605  -0.304  1.00  0.00     0.213 C 
HETATM   13  C   UNL     1      -1.415  -8.001  -0.764  1.00  0.00     0.117 C 
HETATM   14  O   UNL     1      -1.949  -5.856   0.137  1.00  0.00    -0.274 OA
HETATM   15  H   UNL     1       0.911  -6.982  -0.591  1.00  0.00     0.162 HD
ENDBRANCH  10  11
ENDBRANCH   9  10
ENDBRANCH   7   9
ENDBRANCH   6   7
BRANCH   1  16
HETATM   16  N   UNL     1       2.411   0.026  -0.228  1.00  0.00    -0.302 NA
HETATM   17  H   UNL     1       2.889   0.824   0.178  1.00  0.00     0.124 HD
HETATM   18  H   UNL     1       2.819  -0.859   0.096  1.00  0.00     0.124 HD
ENDBRANCH   1  16
BRANCH   4  19
HETATM   19  O   UNL     1      -3.164   0.143   0.042  1.00  0.00    -0.356 OA
HETATM   20  C   UNL     1      -3.882   1.372   0.035  1.00  0.00     0.210 C 
ENDBRANCH   4  19
TORSDOF 6
