REMARK  4 active torsions:
REMARK  status: ('A' for Active; 'I' for Inactive)
REMARK    1  A    between atoms: C_2  and  O_3 
REMARK    2  A    between atoms: C_2  and  C_4 
REMARK    3  A    between atoms: N_6  and  C_22 
REMARK    4  A    between atoms: C_9  and  N_16 
ROOT
HETATM    1  C   UNL     1       3.078  -1.210   0.246  1.00  0.00     0.104 A 
HETATM    2  C   UNL     1       2.754  -2.439  -0.186  1.00  0.00     0.113 A 
HETATM    3  N   UNL     1       3.459  -3.611   0.057  1.00  0.00    -0.355 N 
HETATM    4  C   UNL     1       4.622  -3.556   0.858  1.00  0.00     0.051 A 
HETATM    5  C   UNL     1       5.416  -4.676   1.155  1.00  0.00     0.063 A 
HETATM    6  C   UNL     1       6.600  -4.608   1.920  1.00  0.00     0.071 A 
HETATM    7  C   UNL     1       6.966  -3.353   2.424  1.00  0.00     0.143 A 
HETATM    8  F   UNL     1       8.064  -3.215   3.184  1.00  0.00    -0.204 F 
HETATM    9  C   UNL     1       6.204  -2.219   2.175  1.00  0.00     0.062 A 
HETATM   10  C   UNL     1       5.052  -2.323   1.386  1.00  0.00     0.045 A 
HETATM   11  C   UNL     1       4.289  -1.093   1.079  1.00  0.00     0.202 A 
HETATM   12  O   UNL     1       4.649   0.009   1.490  1.00  0.00    -0.286 OA
ENDROOT
BRANCH   6  13
HETATM   13  N   UNL     1       7.354  -5.766   2.057  1.00  0.00    -0.375 N 
HETATM   14  C   UNL     1       8.807  -5.698   2.273  1.00  0.00     0.153 C 
HETATM   15  C   UNL     1       9.445  -7.018   1.767  1.00  0.00     0.289 C 
HETATM   16  N   UNL     1       8.857  -8.242   2.361  1.00  0.00     0.086 N 
HETATM   17  C   UNL     1       7.390  -8.218   2.173  1.00  0.00     0.289 C 
HETATM   18  H   UNL     1       9.047  -8.223   3.364  1.00  0.00     0.316 HD
HETATM   19  C   UNL     1       6.720  -6.929   2.701  1.00  0.00     0.153 C 
ENDBRANCH   6  13
BRANCH   3  20
HETATM   20  C   UNL     1       3.030  -4.888  -0.549  1.00  0.00     0.124 C 
HETATM   21  C   UNL     1       2.150  -5.690   0.401  1.00  0.00     0.027 C 
ENDBRANCH   3  20
BRANCH   1  22
HETATM   22  C   UNL     1       2.240  -0.058  -0.143  1.00  0.00     0.181 C 
HETATM   23  O   UNL     1       1.234  -0.159  -0.831  1.00  0.00    -0.646 OA
BRANCH  22  24
HETATM   24  O   UNL     1       2.678   1.135   0.315  1.00  0.00    -0.773 OA
HETATM   25  H   UNL     1       3.504   1.078   0.856  1.00  0.00     0.167 HD
ENDBRANCH  22  24
ENDBRANCH   1  22
TORSDOF 4
