REMARK  6 active torsions:
REMARK  status: ('A' for Active; 'I' for Inactive)
REMARK    1  A    between atoms: N_9  and  C_10 
REMARK    2  A    between atoms: C_10  and  C_11 
REMARK    3  A    between atoms: C_14  and  C_15 
REMARK    4  A    between atoms: C_15  and  C_16 
REMARK    5  A    between atoms: C_16  and  C_17 
REMARK    6  A    between atoms: N_27  and  O_28 
ROOT
HETATM    1  C   UNL     1       6.466   0.149  -0.023  1.00  0.00     0.172 C 
ENDROOT
BRANCH   1   2
HETATM    2  N   UNL     1       5.171  -0.007  -0.699  1.00  0.00    -0.293 N 
HETATM    3  C   UNL     1       3.927   0.211  -0.023  1.00  0.00     0.055 A 
HETATM    4  C   UNL     1       2.718   0.063  -0.716  1.00  0.00     0.061 A 
HETATM    5  C   UNL     1       3.854   0.499   1.347  1.00  0.00     0.031 A 
HETATM    6  C   UNL     1       2.724  -0.241  -2.159  1.00  0.00     0.288 C 
HETATM    7  C   UNL     1       1.482   0.162  -0.054  1.00  0.00     0.019 A 
HETATM    8  O   UNL     1       1.665  -0.410  -2.753  1.00  0.00    -0.265 OA
HETATM    9  N   UNL     1       3.984  -0.355  -2.707  1.00  0.00    -0.133 N 
HETATM   10  C   UNL     1       5.189  -0.398  -2.039  1.00  0.00     0.356 C 
HETATM   11  O   UNL     1       6.208  -0.800  -2.615  1.00  0.00    -0.244 OA
HETATM   12  C   UNL     1       1.439   0.424   1.311  1.00  0.00     0.001 A 
HETATM   13  C   UNL     1       2.625   0.609   2.006  1.00  0.00     0.002 A 
BRANCH   9  14
HETATM   14  O   UNL     1       4.020  -0.778  -4.060  1.00  0.00    -0.276 OA
HETATM   15  H   UNL     1       4.897  -1.208  -4.109  1.00  0.00     0.245 HD
ENDBRANCH   9  14
ENDBRANCH   1   2
BRANCH   1  16
HETATM   16  C   UNL     1       6.976   1.575  -0.098  1.00  0.00    -0.040 A 
HETATM   17  C   UNL     1       6.637   2.510   0.883  1.00  0.00     0.009 A 
HETATM   18  C   UNL     1       6.928   3.862   0.717  1.00  0.00     0.007 A 
HETATM   19  C   UNL     1       7.608   4.318  -0.416  1.00  0.00    -0.058 A 
HETATM   20  C   UNL     1       8.041   3.368  -1.353  1.00  0.00     0.007 A 
HETATM   21  C   UNL     1       7.725   2.012  -1.198  1.00  0.00     0.009 A 
BRANCH  19  22
HETATM   22  C   UNL     1       7.769   5.795  -0.715  1.00  0.00     0.043 C 
BRANCH  22  23
HETATM   23  C   UNL     1       7.776   6.714   0.514  1.00  0.00     0.043 C 
BRANCH  23  24
HETATM   24  C   UNL     1       7.861   8.173   0.137  1.00  0.00    -0.058 A 
HETATM   25  C   UNL     1       6.693   8.910  -0.090  1.00  0.00     0.007 A 
HETATM   26  C   UNL     1       6.771  10.259  -0.447  1.00  0.00     0.001 A 
HETATM   27  C   UNL     1       8.015  10.868  -0.584  1.00  0.00     0.000 A 
HETATM   28  C   UNL     1       9.181  10.137  -0.359  1.00  0.00     0.001 A 
HETATM   29  C   UNL     1       9.106   8.792  -0.002  1.00  0.00     0.007 A 
ENDBRANCH  23  24
ENDBRANCH  22  23
ENDBRANCH  19  22
ENDBRANCH   1  16
TORSDOF 6
