REMARK  5 active torsions:
REMARK  status: ('A' for Active; 'I' for Inactive)
REMARK    1  A    between atoms: O_2  and  C_3 
REMARK    2  A    between atoms: C_4  and  O_18 
REMARK    3  A    between atoms: C_9  and  C_12 
REMARK    4  A    between atoms: C_12  and  C_13 
REMARK    5  A    between atoms: C_13  and  N_14 
REMARK       I    between atoms: N_14  and  C_15 
ROOT
HETATM    1  C   UNL     1       3.253   0.861  -0.832  1.00  0.00     0.102 A 
HETATM    2  C   UNL     1       2.897   2.168  -1.173  1.00  0.00     0.101 A 
HETATM    3  C   UNL     1       3.633   2.923  -2.080  1.00  0.00     0.069 A 
HETATM    4  C   UNL     1       4.770   2.320  -2.629  1.00  0.00     0.045 A 
HETATM    5  N   UNL     1       5.698   2.831  -3.502  1.00  0.00    -0.365 N 
HETATM    6  C   UNL     1       6.656   1.894  -3.774  1.00  0.00     0.096 A 
HETATM    7  C   UNL     1       6.360   0.741  -3.074  1.00  0.00    -0.029 A 
HETATM    8  C   UNL     1       5.154   1.009  -2.341  1.00  0.00     0.001 A 
HETATM    9  C   UNL     1       4.357   0.257  -1.450  1.00  0.00     0.054 A 
HETATM   10  H   UNL     1       5.677   3.770  -3.876  1.00  0.00     0.165 HD
ENDROOT
BRANCH   7  11
HETATM   11  C   UNL     1       7.143  -0.546  -3.092  1.00  0.00     0.060 C 
BRANCH  11  12
HETATM   12  C   UNL     1       8.657  -0.325  -3.221  1.00  0.00     0.127 C 
BRANCH  12  13
HETATM   13  N   UNL     1       9.426  -1.557  -3.269  1.00  0.00    -0.361 N 
HETATM   14  C   UNL     1       9.727  -2.169  -4.464  1.00  0.00     0.213 C 
HETATM   15  C   UNL     1      10.669  -3.338  -4.349  1.00  0.00     0.117 C 
HETATM   16  O   UNL     1       9.292  -1.794  -5.548  1.00  0.00    -0.274 OA
HETATM   17  H   UNL     1       9.828  -1.909  -2.409  1.00  0.00     0.162 HD
ENDBRANCH  12  13
ENDBRANCH  11  12
ENDBRANCH   7  11
BRANCH   1  18
HETATM   18  O   UNL     1       2.460   0.260   0.116  1.00  0.00    -0.353 OA
HETATM   19  C   UNL     1       3.086  -0.802   0.831  1.00  0.00     0.210 C 
ENDBRANCH   1  18
BRANCH   2  20
HETATM   20  O   UNL     1       1.809   2.762  -0.589  1.00  0.00    -0.358 OA
HETATM   21  H   UNL     1       1.446   2.086   0.015  1.00  0.00     0.217 HD
ENDBRANCH   2  20
TORSDOF 5
