REMARK  3 active torsions:
REMARK  status: ('A' for Active; 'I' for Inactive)
REMARK    1  A    between atoms: O_1  and  C_2 
REMARK    2  A    between atoms: C_7  and  C_8 
REMARK    3  A    between atoms: C_12  and  N_14 
ROOT
HETATM    1  C   UNL     1      -3.352   0.028   0.013  1.00  0.00     0.036 C 
HETATM    2  C   UNL     1      -4.140   0.056  -1.069  1.00  0.00     0.077 A 
HETATM    3  C   UNL     1      -5.627   0.065  -0.973  1.00  0.00     0.264 A 
HETATM    4  N   UNL     1      -6.174   0.038  -2.226  1.00  0.00    -0.303 N 
HETATM    5  C   UNL     1      -5.312  -0.006  -3.263  1.00  0.00     0.145 A 
HETATM    6  S   UNL     1      -3.665   0.043  -2.728  1.00  0.00    -0.049 SA
HETATM    7  O   UNL     1      -6.272   0.082   0.063  1.00  0.00    -0.267 OA
HETATM    8  H   UNL     1      -7.175   0.028  -2.328  1.00  0.00     0.171 HD
ENDROOT
BRANCH   1   9
HETATM    9  C   UNL     1      -1.886   0.014  -0.018  1.00  0.00    -0.035 A 
HETATM   10  C   UNL     1      -1.186  -1.199  -0.039  1.00  0.00     0.014 A 
HETATM   11  C   UNL     1       0.211  -1.209  -0.032  1.00  0.00     0.037 A 
HETATM   12  C   UNL     1       0.903  -0.003  -0.017  1.00  0.00     0.065 A 
HETATM   13  C   UNL     1       0.222   1.209  -0.013  1.00  0.00     0.037 A 
HETATM   14  C   UNL     1      -1.175   1.219  -0.015  1.00  0.00     0.014 A 
BRANCH  12  15
HETATM   15  O   UNL     1       2.266   0.034   0.000  1.00  0.00    -0.361 OA
HETATM   16  H   UNL     1       2.599  -0.878  -0.002  1.00  0.00     0.217 HD
ENDBRANCH  12  15
ENDBRANCH   1   9
BRANCH   5  17
HETATM   17  N   UNL     1      -5.666  -0.082  -4.491  1.00  0.00    -0.380 N 
HETATM   18  H   UNL     1      -6.682  -0.109  -4.574  1.00  0.00     0.158 HD
ATOM     19  HN  UNL     1      -5.019  -0.112  -5.279  1.00  0.00     0.158 HD
ENDBRANCH   5  17
TORSDOF 3
