REMARK  2 active torsions:
REMARK  status: ('A' for Active; 'I' for Inactive)
REMARK    1  A    between atoms: CA_2  and  C_9 
REMARK    2  A    between atoms: C_9  and  OXT_11 
ROOT
HETATM    1  C   UNL     1      -1.131  -0.548   0.003  1.00  0.00     0.217 A 
HETATM    2  CA  UNL     1      -0.249  -1.547   0.006  1.00  0.00     0.155 A 
HETATM    3  N   UNL     1       1.102  -1.272   0.005  1.00  0.00    -0.300 N 
HETATM    4  C   UNL     1       1.625  -0.011   0.002  1.00  0.00     0.327 A 
HETATM    5  O   UNL     1       2.832   0.198   0.003  1.00  0.00    -0.247 OA
HETATM    6  N   UNL     1       0.711   1.006  -0.003  1.00  0.00    -0.273 N 
HETATM    7  C   UNL     1      -0.650   0.850  -0.001  1.00  0.00     0.290 A 
HETATM    8  O   UNL     1      -1.423   1.800  -0.003  1.00  0.00    -0.265 OA
HETATM    9  F   UNL     1      -2.466  -0.736   0.005  1.00  0.00    -0.197 F 
HETATM   10  H   UNL     1       1.755  -2.054   0.008  1.00  0.00     0.171 HD
HETATM   11  H   UNL     1       1.073   1.948  -0.004  1.00  0.00     0.173 HD
ENDROOT
BRANCH   2  12
HETATM   12  C   UNL     1      -0.643  -2.978   0.013  1.00  0.00     0.197 C 
HETATM   13  O   UNL     1       0.207  -3.860   0.016  1.00  0.00    -0.645 OA
BRANCH  12  14
HETATM   14  OXT UNL     1      -1.961  -3.249   0.016  1.00  0.00    -0.772 OA
HETATM   15  HXT UNL     1      -2.571  -2.485   0.013  1.00  0.00     0.167 HD
ENDBRANCH  12  14
ENDBRANCH   2  12
TORSDOF 2
