MODEL 1
REMARK VINA RESULT:      -5.7      0.000      0.000
REMARK  4 active torsions:
REMARK  status: ('A' for Active; 'I' for Inactive)
REMARK       I    between atoms: C_6  and  N_7 
REMARK    1  A    between atoms: C_6  and  C_17 
REMARK    2  A    between atoms: N_7  and  C_8 
REMARK    3  A    between atoms: C_8  and  C_9 
REMARK    4  A    between atoms: C_9  and  C_10 
ROOT
HETATM    1  O   UNL     3     -44.201 -50.732  14.913  1.00  0.00    -0.273 OA
HETATM    2  C   UNL     3     -44.486 -50.901  13.738  1.00  0.00     0.221 C 
HETATM    3  N   UNL     3     -43.536 -50.695  12.772  1.00  0.00    -0.360 N 
HETATM    4  H   UNL     3     -43.797 -50.828  11.781  1.00  0.00     0.162 HD
ENDROOT
BRANCH   3   5
HETATM    5  C   UNL     3     -42.173 -50.278  13.075  1.00  0.00     0.128 C 
BRANCH   5   6
HETATM    6  C   UNL     3     -41.349 -50.068  11.789  1.00  0.00     0.076 C 
BRANCH   6   7
HETATM    7  C   UNL     3     -39.886 -50.354  12.014  1.00  0.00     0.010 A 
HETATM    8  C   UNL     3     -39.446 -51.048  13.153  1.00  0.00     0.025 A 
HETATM    9  C   UNL     3     -38.080 -51.286  13.328  1.00  0.00     0.003 A 
HETATM   10  C   UNL     3     -37.168 -50.829  12.379  1.00  0.00     0.017 A 
HETATM   11  C   UNL     3     -37.636 -50.136  11.259  1.00  0.00     0.088 A 
HETATM   12  N   UNL     3     -38.969 -49.914  11.103  1.00  0.00    -0.369 N 
ATOM     13  HN  UNL     3     -39.293 -49.403  10.282  1.00  0.00     0.165 HD
ENDBRANCH   6   7
ENDBRANCH   5   6
ENDBRANCH   3   5
BRANCH   2  14
HETATM   14  C   UNL     3     -45.899 -51.317  13.336  1.00  0.00     0.081 C 
HETATM   15  C   UNL     3     -46.901 -51.523  14.503  1.00  0.00     0.044 C 
HETATM   16  C   UNL     3     -46.638 -52.819  15.299  1.00  0.00     0.270 C 
HETATM   17  N   UNL     3     -46.569 -53.994  14.417  1.00  0.00     0.083 N 
HETATM   18  C   UNL     3     -45.547 -53.821  13.374  1.00  0.00     0.270 C 
HETATM   19  H   UNL     3     -47.501 -54.155  13.966  1.00  0.00     0.315 HD
HETATM   20  C   UNL     3     -45.882 -52.607  12.492  1.00  0.00     0.044 C 
ENDBRANCH   2  14
TORSDOF 4
ENDMDL
MODEL 2
REMARK VINA RESULT:      -5.5      1.811      2.669
REMARK  4 active torsions:
REMARK  status: ('A' for Active; 'I' for Inactive)
REMARK       I    between atoms: C_6  and  N_7 
REMARK    1  A    between atoms: C_6  and  C_17 
REMARK    2  A    between atoms: N_7  and  C_8 
REMARK    3  A    between atoms: C_8  and  C_9 
REMARK    4  A    between atoms: C_9  and  C_10 
ROOT
HETATM    1  O   UNL     3     -44.206 -50.526  14.796  1.00  0.00    -0.273 OA
HETATM    2  C   UNL     3     -44.394 -50.987  13.680  1.00  0.00     0.221 C 
HETATM    3  N   UNL     3     -43.336 -51.150  12.825  1.00  0.00    -0.360 N 
HETATM    4  H   UNL     3     -43.515 -51.527  11.880  1.00  0.00     0.162 HD
ENDROOT
BRANCH   3   5
HETATM    5  C   UNL     3     -41.967 -50.802  13.181  1.00  0.00     0.128 C 
BRANCH   5   6
HETATM    6  C   UNL     3     -41.092 -50.607  11.927  1.00  0.00     0.076 C 
BRANCH   6   7
HETATM    7  C   UNL     3     -41.121 -49.179  11.445  1.00  0.00     0.010 A 
HETATM    8  C   UNL     3     -40.106 -48.273  11.790  1.00  0.00     0.025 A 
HETATM    9  C   UNL     3     -40.174 -46.955  11.329  1.00  0.00     0.003 A 
HETATM   10  C   UNL     3     -41.250 -46.549  10.541  1.00  0.00     0.017 A 
HETATM   11  C   UNL     3     -42.248 -47.473  10.220  1.00  0.00     0.088 A 
HETATM   12  N   UNL     3     -42.166 -48.753  10.675  1.00  0.00    -0.369 N 
ATOM     13  HN  UNL     3     -42.905 -49.412  10.435  1.00  0.00     0.165 HD
ENDBRANCH   6   7
ENDBRANCH   5   6
ENDBRANCH   3   5
BRANCH   2  14
HETATM   14  C   UNL     3     -45.803 -51.357  13.223  1.00  0.00     0.081 C 
HETATM   15  C   UNL     3     -46.885 -51.402  14.336  1.00  0.00     0.044 C 
HETATM   16  C   UNL     3     -46.750 -52.634  15.256  1.00  0.00     0.270 C 
HETATM   17  N   UNL     3     -46.700 -53.886  14.483  1.00  0.00     0.083 N 
HETATM   18  C   UNL     3     -45.608 -53.863  13.499  1.00  0.00     0.270 C 
HETATM   19  H   UNL     3     -47.611 -54.034  13.988  1.00  0.00     0.315 HD
HETATM   20  C   UNL     3     -45.815 -52.717  12.496  1.00  0.00     0.044 C 
ENDBRANCH   2  14
TORSDOF 4
ENDMDL
MODEL 3
REMARK VINA RESULT:      -5.5      1.122      1.489
REMARK  4 active torsions:
REMARK  status: ('A' for Active; 'I' for Inactive)
REMARK       I    between atoms: C_6  and  N_7 
REMARK    1  A    between atoms: C_6  and  C_17 
REMARK    2  A    between atoms: N_7  and  C_8 
REMARK    3  A    between atoms: C_8  and  C_9 
REMARK    4  A    between atoms: C_9  and  C_10 
ROOT
HETATM    1  O   UNL     3     -42.444 -52.968  13.523  1.00  0.00    -0.273 OA
HETATM    2  C   UNL     3     -43.365 -52.448  12.913  1.00  0.00     0.221 C 
HETATM    3  N   UNL     3     -43.305 -51.117  12.597  1.00  0.00    -0.360 N 
HETATM    4  H   UNL     3     -44.100 -50.689  12.093  1.00  0.00     0.162 HD
ENDROOT
BRANCH   3   5
HETATM    5  C   UNL     3     -42.177 -50.266  12.954  1.00  0.00     0.128 C 
BRANCH   5   6
HETATM    6  C   UNL     3     -41.303 -49.945  11.724  1.00  0.00     0.076 C 
BRANCH   6   7
HETATM    7  C   UNL     3     -39.855 -50.283  11.969  1.00  0.00     0.010 A 
HETATM    8  C   UNL     3     -39.458 -51.005  13.106  1.00  0.00     0.025 A 
HETATM    9  C   UNL     3     -38.103 -51.291  13.300  1.00  0.00     0.003 A 
HETATM   10  C   UNL     3     -37.160 -50.854  12.371  1.00  0.00     0.017 A 
HETATM   11  C   UNL     3     -37.586 -50.133  11.253  1.00  0.00     0.088 A 
HETATM   12  N   UNL     3     -38.909 -49.863  11.079  1.00  0.00    -0.369 N 
ATOM     13  HN  UNL     3     -39.201 -49.332  10.259  1.00  0.00     0.165 HD
ENDBRANCH   6   7
ENDBRANCH   5   6
ENDBRANCH   3   5
BRANCH   2  14
HETATM   14  C   UNL     3     -44.593 -53.267  12.520  1.00  0.00     0.081 C 
HETATM   15  C   UNL     3     -45.937 -52.492  12.479  1.00  0.00     0.044 C 
HETATM   16  C   UNL     3     -46.482 -52.160  13.885  1.00  0.00     0.270 C 
HETATM   17  N   UNL     3     -46.562 -53.359  14.733  1.00  0.00     0.083 N 
HETATM   18  C   UNL     3     -45.257 -54.027  14.839  1.00  0.00     0.270 C 
HETATM   19  H   UNL     3     -47.264 -54.028  14.337  1.00  0.00     0.315 HD
HETATM   20  C   UNL     3     -44.775 -54.482  13.451  1.00  0.00     0.044 C 
ENDBRANCH   2  14
TORSDOF 4
ENDMDL
MODEL 4
REMARK VINA RESULT:      -5.4      1.709      2.160
REMARK  4 active torsions:
REMARK  status: ('A' for Active; 'I' for Inactive)
REMARK       I    between atoms: C_6  and  N_7 
REMARK    1  A    between atoms: C_6  and  C_17 
REMARK    2  A    between atoms: N_7  and  C_8 
REMARK    3  A    between atoms: C_8  and  C_9 
REMARK    4  A    between atoms: C_9  and  C_10 
ROOT
HETATM    1  O   UNL     3     -44.081 -50.979  14.894  1.00  0.00    -0.273 OA
HETATM    2  C   UNL     3     -44.523 -50.876  13.760  1.00  0.00     0.221 C 
HETATM    3  N   UNL     3     -43.740 -50.340  12.772  1.00  0.00    -0.360 N 
HETATM    4  H   UNL     3     -44.133 -50.246  11.821  1.00  0.00     0.162 HD
ENDROOT
BRANCH   3   5
HETATM    5  C   UNL     3     -42.376 -49.879  13.002  1.00  0.00     0.128 C 
BRANCH   5   6
HETATM    6  C   UNL     3     -41.374 -50.604  12.082  1.00  0.00     0.076 C 
BRANCH   6   7
HETATM    7  C   UNL     3     -40.849 -51.866  12.718  1.00  0.00     0.010 A 
HETATM    8  C   UNL     3     -41.520 -53.090  12.569  1.00  0.00     0.025 A 
HETATM    9  C   UNL     3     -41.005 -54.236  13.182  1.00  0.00     0.003 A 
HETATM   10  C   UNL     3     -39.836 -54.154  13.938  1.00  0.00     0.017 A 
HETATM   11  C   UNL     3     -39.195 -52.920  14.072  1.00  0.00     0.088 A 
HETATM   12  N   UNL     3     -39.709 -51.814  13.468  1.00  0.00    -0.369 N 
ATOM     13  HN  UNL     3     -39.230 -50.921  13.580  1.00  0.00     0.165 HD
ENDBRANCH   6   7
ENDBRANCH   5   6
ENDBRANCH   3   5
BRANCH   2  14
HETATM   14  C   UNL     3     -45.950 -51.317  13.441  1.00  0.00     0.081 C 
HETATM   15  C   UNL     3     -46.837 -51.669  14.665  1.00  0.00     0.044 C 
HETATM   16  C   UNL     3     -46.458 -53.017  15.314  1.00  0.00     0.270 C 
HETATM   17  N   UNL     3     -46.424 -54.106  14.324  1.00  0.00     0.083 N 
HETATM   18  C   UNL     3     -45.504 -53.796  13.220  1.00  0.00     0.270 C 
HETATM   19  H   UNL     3     -47.385 -54.267  13.941  1.00  0.00     0.315 HD
HETATM   20  C   UNL     3     -45.960 -52.525  12.484  1.00  0.00     0.044 C 
ENDBRANCH   2  14
TORSDOF 4
ENDMDL
MODEL 5
REMARK VINA RESULT:      -5.1      2.469      6.456
REMARK  4 active torsions:
REMARK  status: ('A' for Active; 'I' for Inactive)
REMARK       I    between atoms: C_6  and  N_7 
REMARK    1  A    between atoms: C_6  and  C_17 
REMARK    2  A    between atoms: N_7  and  C_8 
REMARK    3  A    between atoms: C_8  and  C_9 
REMARK    4  A    between atoms: C_9  and  C_10 
ROOT
HETATM    1  O   UNL     3     -42.971 -54.134  14.258  1.00  0.00    -0.273 OA
HETATM    2  C   UNL     3     -42.669 -53.774  13.131  1.00  0.00     0.221 C 
HETATM    3  N   UNL     3     -43.650 -53.403  12.250  1.00  0.00    -0.360 N 
HETATM    4  H   UNL     3     -43.379 -53.116  11.295  1.00  0.00     0.162 HD
ENDROOT
BRANCH   3   5
HETATM    5  C   UNL     3     -45.067 -53.410  12.591  1.00  0.00     0.128 C 
BRANCH   5   6
HETATM    6  C   UNL     3     -45.612 -51.978  12.761  1.00  0.00     0.076 C 
BRANCH   6   7
HETATM    7  C   UNL     3     -45.684 -51.581  14.213  1.00  0.00     0.010 A 
HETATM    8  C   UNL     3     -46.913 -51.508  14.889  1.00  0.00     0.025 A 
HETATM    9  C   UNL     3     -46.937 -51.127  16.233  1.00  0.00     0.003 A 
HETATM   10  C   UNL     3     -45.747 -50.818  16.890  1.00  0.00     0.017 A 
HETATM   11  C   UNL     3     -44.541 -50.895  16.189  1.00  0.00     0.088 A 
HETATM   12  N   UNL     3     -44.534 -51.267  14.880  1.00  0.00    -0.369 N 
ATOM     13  HN  UNL     3     -43.645 -51.314  14.383  1.00  0.00     0.165 HD
ENDBRANCH   6   7
ENDBRANCH   5   6
ENDBRANCH   3   5
BRANCH   2  14
HETATM   14  C   UNL     3     -41.207 -53.758  12.689  1.00  0.00     0.081 C 
HETATM   15  C   UNL     3     -40.172 -54.197  13.759  1.00  0.00     0.044 C 
HETATM   16  C   UNL     3     -39.956 -53.134  14.857  1.00  0.00     0.270 C 
HETATM   17  N   UNL     3     -39.634 -51.818  14.283  1.00  0.00     0.083 N 
HETATM   18  C   UNL     3     -40.674 -51.375  13.343  1.00  0.00     0.270 C 
HETATM   19  H   UNL     3     -38.713 -51.864  13.786  1.00  0.00     0.315 HD
HETATM   20  C   UNL     3     -40.795 -52.365  12.174  1.00  0.00     0.044 C 
ENDBRANCH   2  14
TORSDOF 4
ENDMDL
MODEL 6
REMARK VINA RESULT:      -5.1      3.481      5.173
REMARK  4 active torsions:
REMARK  status: ('A' for Active; 'I' for Inactive)
REMARK       I    between atoms: C_6  and  N_7 
REMARK    1  A    between atoms: C_6  and  C_17 
REMARK    2  A    between atoms: N_7  and  C_8 
REMARK    3  A    between atoms: C_8  and  C_9 
REMARK    4  A    between atoms: C_9  and  C_10 
ROOT
HETATM    1  O   UNL     3     -39.294 -51.775  12.623  1.00  0.00    -0.273 OA
HETATM    2  C   UNL     3     -40.418 -52.025  12.217  1.00  0.00     0.221 C 
HETATM    3  N   UNL     3     -41.074 -51.116  11.430  1.00  0.00    -0.360 N 
HETATM    4  H   UNL     3     -42.030 -51.336  11.106  1.00  0.00     0.162 HD
ENDROOT
BRANCH   3   5
HETATM    5  C   UNL     3     -40.491 -49.839  11.037  1.00  0.00     0.128 C 
BRANCH   5   6
HETATM    6  C   UNL     3     -41.152 -48.665  11.786  1.00  0.00     0.076 C 
BRANCH   6   7
HETATM    7  C   UNL     3     -41.924 -47.772  10.848  1.00  0.00     0.010 A 
HETATM    8  C   UNL     3     -42.046 -46.395  11.088  1.00  0.00     0.025 A 
HETATM    9  C   UNL     3     -42.778 -45.603  10.199  1.00  0.00     0.003 A 
HETATM   10  C   UNL     3     -43.385 -46.186   9.087  1.00  0.00     0.017 A 
HETATM   11  C   UNL     3     -43.250 -47.561   8.879  1.00  0.00     0.088 A 
HETATM   12  N   UNL     3     -42.534 -48.317   9.754  1.00  0.00    -0.369 N 
ATOM     13  HN  UNL     3     -42.449 -49.320   9.589  1.00  0.00     0.165 HD
ENDBRANCH   6   7
ENDBRANCH   5   6
ENDBRANCH   3   5
BRANCH   2  14
HETATM   14  C   UNL     3     -41.107 -53.333  12.601  1.00  0.00     0.081 C 
HETATM   15  C   UNL     3     -42.629 -53.236  12.885  1.00  0.00     0.044 C 
HETATM   16  C   UNL     3     -42.947 -52.556  14.234  1.00  0.00     0.270 C 
HETATM   17  N   UNL     3     -42.216 -53.186  15.345  1.00  0.00     0.083 N 
HETATM   18  C   UNL     3     -40.766 -53.182  15.102  1.00  0.00     0.270 C 
HETATM   19  H   UNL     3     -42.544 -54.173  15.471  1.00  0.00     0.315 HD
HETATM   20  C   UNL     3     -40.435 -53.978  13.829  1.00  0.00     0.044 C 
ENDBRANCH   2  14
TORSDOF 4
ENDMDL
MODEL 7
REMARK VINA RESULT:      -5.1      2.215      6.868
REMARK  4 active torsions:
REMARK  status: ('A' for Active; 'I' for Inactive)
REMARK       I    between atoms: C_6  and  N_7 
REMARK    1  A    between atoms: C_6  and  C_17 
REMARK    2  A    between atoms: N_7  and  C_8 
REMARK    3  A    between atoms: C_8  and  C_9 
REMARK    4  A    between atoms: C_9  and  C_10 
ROOT
HETATM    1  O   UNL     3     -41.515 -53.441  15.640  1.00  0.00    -0.273 OA
HETATM    2  C   UNL     3     -41.500 -53.753  14.460  1.00  0.00     0.221 C 
HETATM    3  N   UNL     3     -42.489 -54.556  13.957  1.00  0.00    -0.360 N 
HETATM    4  H   UNL     3     -42.453 -54.824  12.959  1.00  0.00     0.162 HD
ENDROOT
BRANCH   3   5
HETATM    5  C   UNL     3     -43.586 -55.067  14.768  1.00  0.00     0.128 C 
BRANCH   5   6
HETATM    6  C   UNL     3     -44.920 -55.034  13.996  1.00  0.00     0.076 C 
BRANCH   6   7
HETATM    7  C   UNL     3     -45.632 -53.716  14.175  1.00  0.00     0.010 A 
HETATM    8  C   UNL     3     -45.785 -52.821  13.105  1.00  0.00     0.025 A 
HETATM    9  C   UNL     3     -46.444 -51.606  13.314  1.00  0.00     0.003 A 
HETATM   10  C   UNL     3     -46.937 -51.291  14.580  1.00  0.00     0.017 A 
HETATM   11  C   UNL     3     -46.763 -52.201  15.626  1.00  0.00     0.088 A 
HETATM   12  N   UNL     3     -46.120 -53.380  15.405  1.00  0.00    -0.369 N 
ATOM     13  HN  UNL     3     -45.998 -54.030  16.181  1.00  0.00     0.165 HD
ENDBRANCH   6   7
ENDBRANCH   5   6
ENDBRANCH   3   5
BRANCH   2  14
HETATM   14  C   UNL     3     -40.373 -53.275  13.547  1.00  0.00     0.081 C 
HETATM   15  C   UNL     3     -39.522 -52.094  14.085  1.00  0.00     0.044 C 
HETATM   16  C   UNL     3     -40.269 -50.744  14.037  1.00  0.00     0.270 C 
HETATM   17  N   UNL     3     -40.809 -50.470  12.695  1.00  0.00     0.083 N 
HETATM   18  C   UNL     3     -41.690 -51.557  12.242  1.00  0.00     0.270 C 
HETATM   19  H   UNL     3     -40.023 -50.353  12.014  1.00  0.00     0.315 HD
HETATM   20  C   UNL     3     -40.910 -52.878  12.158  1.00  0.00     0.044 C 
ENDBRANCH   2  14
TORSDOF 4
ENDMDL
MODEL 8
REMARK VINA RESULT:      -5.1      2.635      6.882
REMARK  4 active torsions:
REMARK  status: ('A' for Active; 'I' for Inactive)
REMARK       I    between atoms: C_6  and  N_7 
REMARK    1  A    between atoms: C_6  and  C_17 
REMARK    2  A    between atoms: N_7  and  C_8 
REMARK    3  A    between atoms: C_8  and  C_9 
REMARK    4  A    between atoms: C_9  and  C_10 
ROOT
HETATM    1  O   UNL     3     -40.322 -49.362  12.744  1.00  0.00    -0.273 OA
HETATM    2  C   UNL     3     -41.177 -49.344  11.873  1.00  0.00     0.221 C 
HETATM    3  N   UNL     3     -42.156 -50.302  11.863  1.00  0.00    -0.360 N 
HETATM    4  H   UNL     3     -42.864 -50.283  11.111  1.00  0.00     0.162 HD
ENDROOT
BRANCH   3   5
HETATM    5  C   UNL     3     -42.238 -51.364  12.858  1.00  0.00     0.128 C 
BRANCH   5   6
HETATM    6  C   UNL     3     -43.142 -52.517  12.378  1.00  0.00     0.076 C 
BRANCH   6   7
HETATM    7  C   UNL     3     -44.447 -52.550  13.132  1.00  0.00     0.010 A 
HETATM    8  C   UNL     3     -45.216 -51.389  13.308  1.00  0.00     0.025 A 
HETATM    9  C   UNL     3     -46.417 -51.460  14.020  1.00  0.00     0.003 A 
HETATM   10  C   UNL     3     -46.838 -52.677  14.553  1.00  0.00     0.017 A 
HETATM   11  C   UNL     3     -46.047 -53.814  14.366  1.00  0.00     0.088 A 
HETATM   12  N   UNL     3     -44.881 -53.728  13.670  1.00  0.00    -0.369 N 
ATOM     13  HN  UNL     3     -44.315 -54.567  13.546  1.00  0.00     0.165 HD
ENDBRANCH   6   7
ENDBRANCH   5   6
ENDBRANCH   3   5
BRANCH   2  14
HETATM   14  C   UNL     3     -41.150 -48.277  10.782  1.00  0.00     0.081 C 
HETATM   15  C   UNL     3     -40.526 -46.914  11.185  1.00  0.00     0.044 C 
HETATM   16  C   UNL     3     -41.439 -46.085  12.112  1.00  0.00     0.270 C 
HETATM   17  N   UNL     3     -42.789 -45.929  11.547  1.00  0.00     0.083 N 
HETATM   18  C   UNL     3     -43.403 -47.234  11.261  1.00  0.00     0.270 C 
HETATM   19  H   UNL     3     -42.741 -45.366  10.665  1.00  0.00     0.315 HD
HETATM   20  C   UNL     3     -42.563 -48.006  10.230  1.00  0.00     0.044 C 
ENDBRANCH   2  14
TORSDOF 4
ENDMDL
MODEL 9
REMARK VINA RESULT:      -5.0      2.124      7.270
REMARK  4 active torsions:
REMARK  status: ('A' for Active; 'I' for Inactive)
REMARK       I    between atoms: C_6  and  N_7 
REMARK    1  A    between atoms: C_6  and  C_17 
REMARK    2  A    between atoms: N_7  and  C_8 
REMARK    3  A    between atoms: C_8  and  C_9 
REMARK    4  A    between atoms: C_9  and  C_10 
ROOT
HETATM    1  O   UNL     3     -39.603 -51.851  12.627  1.00  0.00    -0.273 OA
HETATM    2  C   UNL     3     -40.215 -50.964  12.052  1.00  0.00     0.221 C 
HETATM    3  N   UNL     3     -41.578 -51.044  11.937  1.00  0.00    -0.360 N 
HETATM    4  H   UNL     3     -42.079 -50.293  11.434  1.00  0.00     0.162 HD
ENDROOT
BRANCH   3   5
HETATM    5  C   UNL     3     -42.357 -52.151  12.476  1.00  0.00     0.128 C 
BRANCH   5   6
HETATM    6  C   UNL     3     -42.741 -51.904  13.949  1.00  0.00     0.076 C 
BRANCH   6   7
HETATM    7  C   UNL     3     -44.211 -52.140  14.186  1.00  0.00     0.010 A 
HETATM    8  C   UNL     3     -45.177 -51.219  13.749  1.00  0.00     0.025 A 
HETATM    9  C   UNL     3     -46.529 -51.471  13.995  1.00  0.00     0.003 A 
HETATM   10  C   UNL     3     -46.908 -52.627  14.676  1.00  0.00     0.017 A 
HETATM   11  C   UNL     3     -45.923 -53.522  15.103  1.00  0.00     0.088 A 
HETATM   12  N   UNL     3     -44.611 -53.261  14.855  1.00  0.00    -0.369 N 
ATOM     13  HN  UNL     3     -43.905 -53.924  15.177  1.00  0.00     0.165 HD
ENDBRANCH   6   7
ENDBRANCH   5   6
ENDBRANCH   3   5
BRANCH   2  14
HETATM   14  C   UNL     3     -39.470 -49.780  11.440  1.00  0.00     0.081 C 
HETATM   15  C   UNL     3     -38.009 -49.578  11.924  1.00  0.00     0.044 C 
HETATM   16  C   UNL     3     -37.924 -49.019  13.360  1.00  0.00     0.270 C 
HETATM   17  N   UNL     3     -38.732 -47.799  13.517  1.00  0.00     0.083 N 
HETATM   18  C   UNL     3     -40.134 -48.035  13.145  1.00  0.00     0.270 C 
HETATM   19  H   UNL     3     -38.338 -47.034  12.920  1.00  0.00     0.315 HD
HETATM   20  C   UNL     3     -40.233 -48.461  11.671  1.00  0.00     0.044 C 
ENDBRANCH   2  14
TORSDOF 4
ENDMDL
