MODEL 1
REMARK VINA RESULT:      -6.3      0.000      0.000
REMARK  5 active torsions:
REMARK  status: ('A' for Active; 'I' for Inactive)
REMARK       I    between atoms: N_2  and  C_3 
REMARK       I    between atoms: C_3  and  N_5 
REMARK       I    between atoms: N_5  and  C_6 
REMARK    1  A    between atoms: C_6  and  C_8 
REMARK    2  A    between atoms: C_8  and  N_9 
REMARK    3  A    between atoms: C_12  and  C_13 
REMARK    4  A    between atoms: C_13  and  N_14 
REMARK    5  A    between atoms: N_18  and  C_19 
ROOT
HETATM    1  N   UNL     1     -44.888 -53.825  14.623  1.00  0.00    -0.256 N 
HETATM    2  C   UNL     1     -45.353 -53.416  13.384  1.00  0.00     0.273 A 
HETATM    3  O   UNL     1     -45.001 -53.952  12.335  1.00  0.00    -0.266 OA
HETATM    4  C   UNL     1     -46.343 -52.321  13.382  1.00  0.00     0.110 A 
HETATM    5  C   UNL     1     -46.820 -51.885  14.552  1.00  0.00     0.123 A 
HETATM    6  N   UNL     1     -46.361 -52.369  15.759  1.00  0.00    -0.303 N 
HETATM    7  C   UNL     1     -45.346 -53.330  15.849  1.00  0.00     0.332 A 
HETATM    8  O   UNL     1     -44.901 -53.731  16.922  1.00  0.00    -0.246 OA
ENDROOT
BRANCH   1   9
HETATM    9  C   UNL     1     -43.954 -54.943  14.661  1.00  0.00     0.240 C 
BRANCH   9  10
HETATM   10  C   UNL     1     -42.537 -54.373  14.694  1.00  0.00     0.244 C 
HETATM   11  N   UNL     1     -42.058 -53.930  13.473  1.00  0.00    -0.278 N 
HETATM   12  C   UNL     1     -40.798 -53.455  13.192  1.00  0.00     0.322 C 
HETATM   13  H   UNL     1     -42.660 -53.960  12.658  1.00  0.00     0.173 HD
HETATM   14  N   UNL     1     -39.921 -53.435  14.235  1.00  0.00    -0.347 N 
HETATM   15  O   UNL     1     -40.515 -53.089  12.055  1.00  0.00    -0.247 OA
HETATM   16  C   UNL     1     -38.559 -52.996  14.115  1.00  0.00     0.151 C 
HETATM   17  H   UNL     1     -40.259 -53.768  15.138  1.00  0.00     0.163 HD
HETATM   18  O   UNL     1     -41.846 -54.414  15.711  1.00  0.00    -0.271 OA
ENDBRANCH   9  10
ENDBRANCH   1   9
BRANCH   4  19
HETATM   19  C   UNL     1     -46.842 -51.765  12.058  1.00  0.00    -0.030 C 
BRANCH  19  20
HETATM   20  N   UNL     1     -47.256 -51.304  10.960  1.00  0.00    -0.365 N 
ATOM     21  HN2 UNL     1     -46.927 -51.681  11.848  1.00  0.00     0.165 HD
ATOM     22  HN1 UNL     1     -47.590 -50.931  10.071  1.00  0.00     0.165 HD
ENDBRANCH  19  20
ENDBRANCH   4  19
BRANCH   6  23
HETATM   23  C   UNL     1     -47.094 -51.994  16.953  1.00  0.00     0.094 A 
HETATM   24  C   UNL     1     -48.121 -50.890  16.970  1.00  0.00     0.028 A 
HETATM   25  C   UNL     1     -46.830 -50.716  17.709  1.00  0.00     0.028 A 
ENDBRANCH   6  23
TORSDOF 5
ENDMDL
MODEL 2
REMARK VINA RESULT:      -6.3      2.002      5.600
REMARK  5 active torsions:
REMARK  status: ('A' for Active; 'I' for Inactive)
REMARK       I    between atoms: N_2  and  C_3 
REMARK       I    between atoms: C_3  and  N_5 
REMARK       I    between atoms: N_5  and  C_6 
REMARK    1  A    between atoms: C_6  and  C_8 
REMARK    2  A    between atoms: C_8  and  N_9 
REMARK    3  A    between atoms: C_12  and  C_13 
REMARK    4  A    between atoms: C_13  and  N_14 
REMARK    5  A    between atoms: N_18  and  C_19 
ROOT
HETATM    1  N   UNL     1     -43.560 -54.761  14.063  1.00  0.00    -0.256 N 
HETATM    2  C   UNL     1     -43.213 -53.825  13.103  1.00  0.00     0.273 A 
HETATM    3  O   UNL     1     -44.010 -53.408  12.265  1.00  0.00    -0.266 OA
HETATM    4  C   UNL     1     -41.831 -53.306  13.160  1.00  0.00     0.110 A 
HETATM    5  C   UNL     1     -41.054 -53.663  14.187  1.00  0.00     0.123 A 
HETATM    6  N   UNL     1     -41.472 -54.557  15.150  1.00  0.00    -0.303 N 
HETATM    7  C   UNL     1     -42.728 -55.177  15.108  1.00  0.00     0.332 A 
HETATM    8  O   UNL     1     -43.088 -56.010  15.937  1.00  0.00    -0.246 OA
ENDROOT
BRANCH   1   9
HETATM    9  C   UNL     1     -44.934 -55.248  14.069  1.00  0.00     0.240 C 
BRANCH   9  10
HETATM   10  C   UNL     1     -45.765 -54.305  14.936  1.00  0.00     0.244 C 
HETATM   11  N   UNL     1     -46.131 -53.118  14.323  1.00  0.00    -0.278 N 
HETATM   12  C   UNL     1     -46.800 -52.057  14.888  1.00  0.00     0.322 C 
HETATM   13  H   UNL     1     -45.882 -52.957  13.354  1.00  0.00     0.173 HD
HETATM   14  N   UNL     1     -47.121 -52.187  16.206  1.00  0.00    -0.347 N 
HETATM   15  O   UNL     1     -47.064 -51.064  14.216  1.00  0.00    -0.247 OA
HETATM   16  C   UNL     1     -47.795 -51.168  16.961  1.00  0.00     0.151 C 
HETATM   17  H   UNL     1     -46.848 -53.053  16.672  1.00  0.00     0.163 HD
HETATM   18  O   UNL     1     -45.989 -54.544  16.122  1.00  0.00    -0.271 OA
ENDBRANCH   9  10
ENDBRANCH   1   9
BRANCH   4  19
HETATM   19  C   UNL     1     -41.352 -52.335  12.093  1.00  0.00    -0.030 C 
BRANCH  19  20
HETATM   20  N   UNL     1     -40.954 -51.529  11.209  1.00  0.00    -0.365 N 
ATOM     21  HN2 UNL     1     -41.282 -52.180  11.922  1.00  0.00     0.165 HD
ATOM     22  HN1 UNL     1     -40.632 -50.878  10.493  1.00  0.00     0.165 HD
ENDBRANCH  19  20
ENDBRANCH   4  19
BRANCH   6  23
HETATM   23  C   UNL     1     -40.645 -54.705  16.331  1.00  0.00     0.094 A 
HETATM   24  C   UNL     1     -40.679 -53.730  17.481  1.00  0.00     0.028 A 
HETATM   25  C   UNL     1     -39.459 -53.820  16.617  1.00  0.00     0.028 A 
ENDBRANCH   6  23
TORSDOF 5
ENDMDL
MODEL 3
REMARK VINA RESULT:      -6.3      3.698      6.200
REMARK  5 active torsions:
REMARK  status: ('A' for Active; 'I' for Inactive)
REMARK       I    between atoms: N_2  and  C_3 
REMARK       I    between atoms: C_3  and  N_5 
REMARK       I    between atoms: N_5  and  C_6 
REMARK    1  A    between atoms: C_6  and  C_8 
REMARK    2  A    between atoms: C_8  and  N_9 
REMARK    3  A    between atoms: C_12  and  C_13 
REMARK    4  A    between atoms: C_13  and  N_14 
REMARK    5  A    between atoms: N_18  and  C_19 
ROOT
HETATM    1  N   UNL     1     -42.122 -50.985  13.222  1.00  0.00    -0.256 N 
HETATM    2  C   UNL     1     -40.984 -51.754  13.404  1.00  0.00     0.273 A 
HETATM    3  O   UNL     1     -39.870 -51.261  13.567  1.00  0.00    -0.266 OA
HETATM    4  C   UNL     1     -41.180 -53.218  13.440  1.00  0.00     0.110 A 
HETATM    5  C   UNL     1     -42.426 -53.699  13.426  1.00  0.00     0.123 A 
HETATM    6  N   UNL     1     -43.529 -52.881  13.300  1.00  0.00    -0.303 N 
HETATM    7  C   UNL     1     -43.424 -51.492  13.151  1.00  0.00     0.332 A 
HETATM    8  O   UNL     1     -44.400 -50.763  12.991  1.00  0.00    -0.246 OA
ENDROOT
BRANCH   1   9
HETATM    9  C   UNL     1     -41.970 -49.535  13.240  1.00  0.00     0.240 C 
BRANCH   9  10
HETATM   10  C   UNL     1     -42.091 -49.031  11.804  1.00  0.00     0.244 C 
HETATM   11  N   UNL     1     -43.277 -48.378  11.512  1.00  0.00    -0.278 N 
HETATM   12  C   UNL     1     -43.690 -47.901  10.290  1.00  0.00     0.322 C 
HETATM   13  H   UNL     1     -43.961 -48.230  12.246  1.00  0.00     0.173 HD
HETATM   14  N   UNL     1     -42.839 -48.112   9.248  1.00  0.00    -0.347 N 
HETATM   15  O   UNL     1     -44.773 -47.333  10.182  1.00  0.00    -0.247 OA
HETATM   16  C   UNL     1     -43.121 -47.704   7.900  1.00  0.00     0.151 C 
HETATM   17  H   UNL     1     -41.965 -48.600   9.447  1.00  0.00     0.163 HD
HETATM   18  O   UNL     1     -41.241 -49.290  10.952  1.00  0.00    -0.271 OA
ENDBRANCH   9  10
ENDBRANCH   1   9
BRANCH   4  19
HETATM   19  C   UNL     1     -39.970 -54.131  13.559  1.00  0.00    -0.030 C 
BRANCH  19  20
HETATM   20  N   UNL     1     -38.968 -54.889  13.658  1.00  0.00    -0.365 N 
ATOM     21  HN2 UNL     1     -39.777 -54.274  13.572  1.00  0.00     0.165 HD
ATOM     22  HN1 UNL     1     -38.156 -55.502  13.738  1.00  0.00     0.165 HD
ENDBRANCH  19  20
ENDBRANCH   4  19
BRANCH   6  23
HETATM   23  C   UNL     1     -44.833 -53.476  13.517  1.00  0.00     0.094 A 
HETATM   24  C   UNL     1     -45.355 -53.827  14.888  1.00  0.00     0.028 A 
HETATM   25  C   UNL     1     -45.020 -54.918  13.918  1.00  0.00     0.028 A 
ENDBRANCH   6  23
TORSDOF 5
ENDMDL
MODEL 4
REMARK VINA RESULT:      -5.9      7.713      9.134
REMARK  5 active torsions:
REMARK  status: ('A' for Active; 'I' for Inactive)
REMARK       I    between atoms: N_2  and  C_3 
REMARK       I    between atoms: C_3  and  N_5 
REMARK       I    between atoms: N_5  and  C_6 
REMARK    1  A    between atoms: C_6  and  C_8 
REMARK    2  A    between atoms: C_8  and  N_9 
REMARK    3  A    between atoms: C_12  and  C_13 
REMARK    4  A    between atoms: C_13  and  N_14 
REMARK    5  A    between atoms: N_18  and  C_19 
ROOT
HETATM    1  N   UNL     1     -41.078 -46.405  10.687  1.00  0.00    -0.256 N 
HETATM    2  C   UNL     1     -42.321 -46.336  10.080  1.00  0.00     0.273 A 
HETATM    3  O   UNL     1     -42.590 -45.508   9.211  1.00  0.00    -0.266 OA
HETATM    4  C   UNL     1     -43.313 -47.347  10.497  1.00  0.00     0.110 A 
HETATM    5  C   UNL     1     -42.924 -48.326  11.320  1.00  0.00     0.123 A 
HETATM    6  N   UNL     1     -41.652 -48.378  11.851  1.00  0.00    -0.303 N 
HETATM    7  C   UNL     1     -40.686 -47.398  11.590  1.00  0.00     0.332 A 
HETATM    8  O   UNL     1     -39.567 -47.414  12.098  1.00  0.00    -0.246 OA
ENDROOT
BRANCH   1   9
HETATM    9  C   UNL     1     -40.059 -45.456  10.253  1.00  0.00     0.240 C 
BRANCH   9  10
HETATM   10  C   UNL     1     -40.204 -44.191  11.096  1.00  0.00     0.244 C 
HETATM   11  N   UNL     1     -39.828 -44.325  12.421  1.00  0.00    -0.278 N 
HETATM   12  C   UNL     1     -39.933 -43.385  13.420  1.00  0.00     0.322 C 
HETATM   13  H   UNL     1     -39.446 -45.206  12.747  1.00  0.00     0.173 HD
HETATM   14  N   UNL     1     -40.486 -42.192  13.061  1.00  0.00    -0.347 N 
HETATM   15  O   UNL     1     -39.551 -43.645  14.557  1.00  0.00    -0.247 OA
HETATM   16  C   UNL     1     -40.696 -41.109  13.980  1.00  0.00     0.151 C 
HETATM   17  H   UNL     1     -40.776 -42.083  12.088  1.00  0.00     0.163 HD
HETATM   18  O   UNL     1     -40.722 -43.169  10.645  1.00  0.00    -0.271 OA
ENDBRANCH   9  10
ENDBRANCH   1   9
BRANCH   4  19
HETATM   19  C   UNL     1     -44.724 -47.289   9.934  1.00  0.00    -0.030 C 
BRANCH  19  20
HETATM   20  N   UNL     1     -45.894 -47.241   9.467  1.00  0.00    -0.365 N 
ATOM     21  HN2 UNL     1     -44.945 -47.278   9.839  1.00  0.00     0.165 HD
ATOM     22  HN1 UNL     1     -46.841 -47.201   9.089  1.00  0.00     0.165 HD
ENDBRANCH  19  20
ENDBRANCH   4  19
BRANCH   6  23
HETATM   23  C   UNL     1     -41.267 -49.590  12.547  1.00  0.00     0.094 A 
HETATM   24  C   UNL     1     -40.770 -50.822  11.833  1.00  0.00     0.028 A 
HETATM   25  C   UNL     1     -42.098 -50.848  12.526  1.00  0.00     0.028 A 
ENDBRANCH   6  23
TORSDOF 5
ENDMDL
MODEL 5
REMARK VINA RESULT:      -5.9      2.926      7.147
REMARK  5 active torsions:
REMARK  status: ('A' for Active; 'I' for Inactive)
REMARK       I    between atoms: N_2  and  C_3 
REMARK       I    between atoms: C_3  and  N_5 
REMARK       I    between atoms: N_5  and  C_6 
REMARK    1  A    between atoms: C_6  and  C_8 
REMARK    2  A    between atoms: C_8  and  N_9 
REMARK    3  A    between atoms: C_12  and  C_13 
REMARK    4  A    between atoms: C_13  and  N_14 
REMARK    5  A    between atoms: N_18  and  C_19 
ROOT
HETATM    1  N   UNL     1     -40.050 -52.248  13.582  1.00  0.00    -0.256 N 
HETATM    2  C   UNL     1     -39.899 -53.531  14.081  1.00  0.00     0.273 A 
HETATM    3  O   UNL     1     -40.252 -54.531  13.457  1.00  0.00    -0.266 OA
HETATM    4  C   UNL     1     -39.241 -53.651  15.397  1.00  0.00     0.110 A 
HETATM    5  C   UNL     1     -38.726 -52.554  15.959  1.00  0.00     0.123 A 
HETATM    6  N   UNL     1     -38.856 -51.305  15.389  1.00  0.00    -0.303 N 
HETATM    7  C   UNL     1     -39.559 -51.091  14.196  1.00  0.00     0.332 A 
HETATM    8  O   UNL     1     -39.719 -49.975  13.708  1.00  0.00    -0.246 OA
ENDROOT
BRANCH   1   9
HETATM    9  C   UNL     1     -40.644 -52.101  12.258  1.00  0.00     0.240 C 
BRANCH   9  10
HETATM   10  C   UNL     1     -42.153 -51.953  12.432  1.00  0.00     0.244 C 
HETATM   11  N   UNL     1     -42.867 -53.138  12.376  1.00  0.00    -0.278 N 
HETATM   12  C   UNL     1     -44.233 -53.295  12.414  1.00  0.00     0.322 C 
HETATM   13  H   UNL     1     -42.371 -54.017  12.273  1.00  0.00     0.173 HD
HETATM   14  N   UNL     1     -44.963 -52.148  12.501  1.00  0.00    -0.347 N 
HETATM   15  O   UNL     1     -44.728 -54.417  12.360  1.00  0.00    -0.247 OA
HETATM   16  C   UNL     1     -46.399 -52.123  12.526  1.00  0.00     0.151 C 
HETATM   17  H   UNL     1     -44.449 -51.266  12.534  1.00  0.00     0.163 HD
HETATM   18  O   UNL     1     -42.692 -50.849  12.504  1.00  0.00    -0.271 OA
ENDBRANCH   9  10
ENDBRANCH   1   9
BRANCH   4  19
HETATM   19  C   UNL     1     -39.109 -55.020  16.046  1.00  0.00    -0.030 C 
BRANCH  19  20
HETATM   20  N   UNL     1     -38.999 -56.155  16.584  1.00  0.00    -0.365 N 
ATOM     21  HN2 UNL     1     -39.082 -55.235  16.152  1.00  0.00     0.165 HD
ATOM     22  HN1 UNL     1     -38.910 -57.073  17.019  1.00  0.00     0.165 HD
ENDBRANCH  19  20
ENDBRANCH   4  19
BRANCH   6  23
HETATM   23  C   UNL     1     -38.077 -50.224  15.959  1.00  0.00     0.094 A 
HETATM   24  C   UNL     1     -36.657 -49.929  15.542  1.00  0.00     0.028 A 
HETATM   25  C   UNL     1     -36.936 -50.452  16.918  1.00  0.00     0.028 A 
ENDBRANCH   6  23
TORSDOF 5
ENDMDL
MODEL 6
REMARK VINA RESULT:      -5.8      3.696      7.139
REMARK  5 active torsions:
REMARK  status: ('A' for Active; 'I' for Inactive)
REMARK       I    between atoms: N_2  and  C_3 
REMARK       I    between atoms: C_3  and  N_5 
REMARK       I    between atoms: N_5  and  C_6 
REMARK    1  A    between atoms: C_6  and  C_8 
REMARK    2  A    between atoms: C_8  and  N_9 
REMARK    3  A    between atoms: C_12  and  C_13 
REMARK    4  A    between atoms: C_13  and  N_14 
REMARK    5  A    between atoms: N_18  and  C_19 
ROOT
HETATM    1  N   UNL     1     -40.399 -51.088  12.579  1.00  0.00    -0.256 N 
HETATM    2  C   UNL     1     -39.235 -51.230  13.316  1.00  0.00     0.273 A 
HETATM    3  O   UNL     1     -38.636 -52.300  13.409  1.00  0.00    -0.266 OA
HETATM    4  C   UNL     1     -38.711 -50.008  13.958  1.00  0.00     0.110 A 
HETATM    5  C   UNL     1     -39.302 -48.840  13.693  1.00  0.00     0.123 A 
HETATM    6  N   UNL     1     -40.429 -48.748  12.902  1.00  0.00    -0.303 N 
HETATM    7  C   UNL     1     -41.051 -49.873  12.345  1.00  0.00     0.332 A 
HETATM    8  O   UNL     1     -42.082 -49.803  11.679  1.00  0.00    -0.246 OA
ENDROOT
BRANCH   1   9
HETATM    9  C   UNL     1     -40.910 -52.265  11.885  1.00  0.00     0.240 C 
BRANCH   9  10
HETATM   10  C   UNL     1     -42.040 -52.854  12.725  1.00  0.00     0.244 C 
HETATM   11  N   UNL     1     -43.294 -52.795  12.141  1.00  0.00    -0.278 N 
HETATM   12  C   UNL     1     -44.495 -53.168  12.699  1.00  0.00     0.322 C 
HETATM   13  H   UNL     1     -43.393 -52.423  11.203  1.00  0.00     0.173 HD
HETATM   14  N   UNL     1     -44.440 -53.632  13.979  1.00  0.00    -0.347 N 
HETATM   15  O   UNL     1     -45.535 -53.064  12.055  1.00  0.00    -0.247 OA
HETATM   16  C   UNL     1     -45.599 -54.040  14.723  1.00  0.00     0.151 C 
HETATM   17  H   UNL     1     -43.523 -53.672  14.425  1.00  0.00     0.163 HD
HETATM   18  O   UNL     1     -41.855 -53.246  13.877  1.00  0.00    -0.271 OA
ENDBRANCH   9  10
ENDBRANCH   1   9
BRANCH   4  19
HETATM   19  C   UNL     1     -37.481 -50.099  14.847  1.00  0.00    -0.030 C 
BRANCH  19  20
HETATM   20  N   UNL     1     -36.461 -50.174  15.584  1.00  0.00    -0.365 N 
ATOM     21  HN2 UNL     1     -37.289 -50.119  14.991  1.00  0.00     0.165 HD
ATOM     22  HN1 UNL     1     -35.636 -50.234  16.181  1.00  0.00     0.165 HD
ENDBRANCH  19  20
ENDBRANCH   4  19
BRANCH   6  23
HETATM   23  C   UNL     1     -40.858 -47.424  12.497  1.00  0.00     0.094 A 
HETATM   24  C   UNL     1     -40.344 -46.742  11.255  1.00  0.00     0.028 A 
HETATM   25  C   UNL     1     -39.973 -46.208  12.604  1.00  0.00     0.028 A 
ENDBRANCH   6  23
TORSDOF 5
ENDMDL
MODEL 7
REMARK VINA RESULT:      -5.8      2.321      7.096
REMARK  5 active torsions:
REMARK  status: ('A' for Active; 'I' for Inactive)
REMARK       I    between atoms: N_2  and  C_3 
REMARK       I    between atoms: C_3  and  N_5 
REMARK       I    between atoms: N_5  and  C_6 
REMARK    1  A    between atoms: C_6  and  C_8 
REMARK    2  A    between atoms: C_8  and  N_9 
REMARK    3  A    between atoms: C_12  and  C_13 
REMARK    4  A    between atoms: C_13  and  N_14 
REMARK    5  A    between atoms: N_18  and  C_19 
ROOT
HETATM    1  N   UNL     1     -40.430 -53.163  13.581  1.00  0.00    -0.256 N 
HETATM    2  C   UNL     1     -39.758 -53.304  14.784  1.00  0.00     0.273 A 
HETATM    3  O   UNL     1     -39.740 -54.360  15.413  1.00  0.00    -0.266 OA
HETATM    4  C   UNL     1     -39.013 -52.123  15.262  1.00  0.00     0.110 A 
HETATM    5  C   UNL     1     -38.925 -51.053  14.465  1.00  0.00     0.123 A 
HETATM    6  N   UNL     1     -39.569 -50.988  13.248  1.00  0.00    -0.303 N 
HETATM    7  C   UNL     1     -40.384 -52.024  12.771  1.00  0.00     0.332 A 
HETATM    8  O   UNL     1     -40.998 -51.952  11.708  1.00  0.00    -0.246 OA
ENDROOT
BRANCH   1   9
HETATM    9  C   UNL     1     -41.127 -54.330  13.053  1.00  0.00     0.240 C 
BRANCH   9  10
HETATM   10  C   UNL     1     -42.564 -54.293  13.567  1.00  0.00     0.244 C 
HETATM   11  N   UNL     1     -43.484 -53.742  12.691  1.00  0.00    -0.278 N 
HETATM   12  C   UNL     1     -44.819 -53.504  12.922  1.00  0.00     0.322 C 
HETATM   13  H   UNL     1     -43.183 -53.444  11.770  1.00  0.00     0.173 HD
HETATM   14  N   UNL     1     -45.280 -53.836  14.160  1.00  0.00    -0.347 N 
HETATM   15  O   UNL     1     -45.520 -53.011  12.042  1.00  0.00    -0.247 OA
HETATM   16  C   UNL     1     -46.638 -53.632  14.580  1.00  0.00     0.151 C 
HETATM   17  H   UNL     1     -44.610 -54.235  14.819  1.00  0.00     0.163 HD
HETATM   18  O   UNL     1     -42.850 -54.628  14.717  1.00  0.00    -0.271 OA
ENDBRANCH   9  10
ENDBRANCH   1   9
BRANCH   4  19
HETATM   19  C   UNL     1     -38.314 -52.174  16.611  1.00  0.00    -0.030 C 
BRANCH  19  20
HETATM   20  N   UNL     1     -37.734 -52.217  17.730  1.00  0.00    -0.365 N 
ATOM     21  HN2 UNL     1     -38.198 -52.186  16.822  1.00  0.00     0.165 HD
ATOM     22  HN1 UNL     1     -37.266 -52.252  18.636  1.00  0.00     0.165 HD
ENDBRANCH  19  20
ENDBRANCH   4  19
BRANCH   6  23
HETATM   23  C   UNL     1     -39.232 -49.886  12.369  1.00  0.00     0.094 A 
HETATM   24  C   UNL     1     -37.983 -49.865  11.525  1.00  0.00     0.028 A 
HETATM   25  C   UNL     1     -38.124 -48.909  12.669  1.00  0.00     0.028 A 
ENDBRANCH   6  23
TORSDOF 5
ENDMDL
MODEL 8
REMARK VINA RESULT:      -5.7      2.633      6.032
REMARK  5 active torsions:
REMARK  status: ('A' for Active; 'I' for Inactive)
REMARK       I    between atoms: N_2  and  C_3 
REMARK       I    between atoms: C_3  and  N_5 
REMARK       I    between atoms: N_5  and  C_6 
REMARK    1  A    between atoms: C_6  and  C_8 
REMARK    2  A    between atoms: C_8  and  N_9 
REMARK    3  A    between atoms: C_12  and  C_13 
REMARK    4  A    between atoms: C_13  and  N_14 
REMARK    5  A    between atoms: N_18  and  C_19 
ROOT
HETATM    1  N   UNL     1     -40.146 -52.877  13.245  1.00  0.00    -0.256 N 
HETATM    2  C   UNL     1     -40.665 -52.023  12.286  1.00  0.00     0.273 A 
HETATM    3  O   UNL     1     -41.476 -52.392  11.439  1.00  0.00    -0.266 OA
HETATM    4  C   UNL     1     -40.227 -50.614  12.355  1.00  0.00     0.110 A 
HETATM    5  C   UNL     1     -39.478 -50.225  13.391  1.00  0.00     0.123 A 
HETATM    6  N   UNL     1     -39.036 -51.110  14.352  1.00  0.00    -0.303 N 
HETATM    7  C   UNL     1     -39.316 -52.482  14.300  1.00  0.00     0.332 A 
HETATM    8  O   UNL     1     -38.886 -53.282  15.128  1.00  0.00    -0.246 OA
ENDROOT
BRANCH   1   9
HETATM    9  C   UNL     1     -40.604 -54.261  13.239  1.00  0.00     0.240 C 
BRANCH   9  10
HETATM   10  C   UNL     1     -41.966 -54.310  13.929  1.00  0.00     0.244 C 
HETATM   11  N   UNL     1     -43.055 -54.260  13.076  1.00  0.00    -0.278 N 
HETATM   12  C   UNL     1     -44.385 -54.201  13.422  1.00  0.00     0.322 C 
HETATM   13  H   UNL     1     -42.906 -54.241  12.074  1.00  0.00     0.173 HD
HETATM   14  N   UNL     1     -44.655 -54.172  14.757  1.00  0.00    -0.347 N 
HETATM   15  O   UNL     1     -45.249 -54.167  12.550  1.00  0.00    -0.247 OA
HETATM   16  C   UNL     1     -45.984 -54.085  15.295  1.00  0.00     0.151 C 
HETATM   17  H   UNL     1     -43.860 -54.199  15.397  1.00  0.00     0.163 HD
HETATM   18  O   UNL     1     -42.071 -54.283  15.155  1.00  0.00    -0.271 OA
ENDBRANCH   9  10
ENDBRANCH   1   9
BRANCH   4  19
HETATM   19  C   UNL     1     -40.691 -49.633  11.291  1.00  0.00    -0.030 C 
BRANCH  19  20
HETATM   20  N   UNL     1     -41.076 -48.820  10.408  1.00  0.00    -0.365 N 
ATOM     21  HN2 UNL     1     -40.769 -49.475  11.127  1.00  0.00     0.165 HD
ATOM     22  HN1 UNL     1     -41.388 -48.162   9.693  1.00  0.00     0.165 HD
ENDBRANCH  19  20
ENDBRANCH   4  19
BRANCH   6  23
HETATM   23  C   UNL     1     -38.422 -50.555  15.542  1.00  0.00     0.094 A 
HETATM   24  C   UNL     1     -39.208 -49.836  16.610  1.00  0.00     0.028 A 
HETATM   25  C   UNL     1     -38.242 -49.073  15.757  1.00  0.00     0.028 A 
ENDBRANCH   6  23
TORSDOF 5
ENDMDL
MODEL 9
REMARK VINA RESULT:      -5.7      3.089      4.898
REMARK  5 active torsions:
REMARK  status: ('A' for Active; 'I' for Inactive)
REMARK       I    between atoms: N_2  and  C_3 
REMARK       I    between atoms: C_3  and  N_5 
REMARK       I    between atoms: N_5  and  C_6 
REMARK    1  A    between atoms: C_6  and  C_8 
REMARK    2  A    between atoms: C_8  and  N_9 
REMARK    3  A    between atoms: C_12  and  C_13 
REMARK    4  A    between atoms: C_13  and  N_14 
REMARK    5  A    between atoms: N_18  and  C_19 
ROOT
HETATM    1  N   UNL     1     -42.079 -53.600  13.189  1.00  0.00    -0.256 N 
HETATM    2  C   UNL     1     -43.433 -53.889  13.134  1.00  0.00     0.273 A 
HETATM    3  O   UNL     1     -44.091 -53.784  12.101  1.00  0.00    -0.266 OA
HETATM    4  C   UNL     1     -44.052 -54.379  14.382  1.00  0.00     0.110 A 
HETATM    5  C   UNL     1     -43.265 -54.634  15.431  1.00  0.00     0.123 A 
HETATM    6  N   UNL     1     -41.909 -54.382  15.412  1.00  0.00    -0.303 N 
HETATM    7  C   UNL     1     -41.264 -53.815  14.305  1.00  0.00     0.332 A 
HETATM    8  O   UNL     1     -40.065 -53.544  14.300  1.00  0.00    -0.246 OA
ENDROOT
BRANCH   1   9
HETATM    9  C   UNL     1     -41.427 -53.170  11.959  1.00  0.00     0.240 C 
BRANCH   9  10
HETATM   10  C   UNL     1     -41.200 -51.662  12.048  1.00  0.00     0.244 C 
HETATM   11  N   UNL     1     -39.879 -51.263  11.934  1.00  0.00    -0.278 N 
HETATM   12  C   UNL     1     -39.377 -49.989  12.063  1.00  0.00     0.322 C 
HETATM   13  H   UNL     1     -39.160 -51.955  11.757  1.00  0.00     0.173 HD
HETATM   14  N   UNL     1     -40.285 -49.015  12.352  1.00  0.00    -0.347 N 
HETATM   15  O   UNL     1     -38.174 -49.782  11.929  1.00  0.00    -0.247 OA
HETATM   16  C   UNL     1     -39.933 -47.636  12.546  1.00  0.00     0.151 C 
HETATM   17  H   UNL     1     -41.261 -49.298  12.448  1.00  0.00     0.163 HD
HETATM   18  O   UNL     1     -42.116 -50.884  12.314  1.00  0.00    -0.271 OA
ENDBRANCH   9  10
ENDBRANCH   1   9
BRANCH   4  19
HETATM   19  C   UNL     1     -45.548 -54.643  14.422  1.00  0.00    -0.030 C 
BRANCH  19  20
HETATM   20  N   UNL     1     -46.790 -54.862  14.454  1.00  0.00    -0.365 N 
ATOM     21  HN2 UNL     1     -45.785 -54.691  14.424  1.00  0.00     0.165 HD
ATOM     22  HN1 UNL     1     -47.794 -55.038  14.481  1.00  0.00     0.165 HD
ENDBRANCH  19  20
ENDBRANCH   4  19
BRANCH   6  23
HETATM   23  C   UNL     1     -41.116 -54.896  16.511  1.00  0.00     0.094 A 
HETATM   24  C   UNL     1     -40.602 -56.314  16.557  1.00  0.00     0.028 A 
HETATM   25  C   UNL     1     -41.657 -55.873  17.525  1.00  0.00     0.028 A 
ENDBRANCH   6  23
TORSDOF 5
ENDMDL
