MODEL 1
REMARK VINA RESULT:      -5.5      0.000      0.000
REMARK  4 active torsions:
REMARK  status: ('A' for Active; 'I' for Inactive)
REMARK    1  A    between atoms: C_2  and  S_3 
REMARK    2  A    between atoms: S_3  and  C_4 
REMARK    3  A    between atoms: C_8  and  N_9 
REMARK       I    between atoms: N_9  and  C_10 
REMARK       I    between atoms: C_10  and  N_12 
REMARK    4  A    between atoms: N_12  and  C_13 
ROOT
HETATM    1  N   UNL     1     -42.801 -51.642  12.911  1.00  0.00    -0.337 N 
HETATM    2  C   UNL     1     -41.847 -50.802  12.395  1.00  0.00     0.321 C 
HETATM    3  O   UNL     1     -40.948 -51.157  11.655  1.00  0.00    -0.247 OA
HETATM    4  N   UNL     1     -42.123 -49.481  12.700  1.00  0.00    -0.308 N 
HETATM    5  H   UNL     1     -43.060 -51.405  13.859  1.00  0.00     0.164 HD
HETATM    6  H   UNL     1     -43.097 -49.305  12.899  1.00  0.00     0.170 HD
ENDROOT
BRANCH   1   7
HETATM    7  C   UNL     1     -42.955 -53.056  12.554  1.00  0.00     0.100 C 
HETATM    8  C   UNL     1     -44.319 -53.716  12.817  1.00  0.00     0.070 C 
HETATM    9  C   UNL     1     -44.221 -54.292  14.231  1.00  0.00     0.017 C 
HETATM   10  C   UNL     1     -42.738 -54.601  14.452  1.00  0.00     0.003 C 
HETATM   11  C   UNL     1     -41.981 -54.011  13.258  1.00  0.00     0.026 C 
BRANCH   8  12
HETATM   12  S   UNL     1     -45.799 -52.671  12.592  1.00  0.00    -0.163 SA
BRANCH  12  13
HETATM   13  C   UNL     1     -46.536 -52.816  14.248  1.00  0.00     0.070 C 
HETATM   14  C   UNL     1     -46.817 -51.429  14.802  1.00  0.00     0.016 C 
ENDBRANCH  12  13
ENDBRANCH   8  12
ENDBRANCH   1   7
BRANCH   4  15
HETATM   15  C   UNL     1     -41.418 -48.448  12.037  1.00  0.00     0.051 A 
HETATM   16  C   UNL     1     -40.377 -47.805  12.704  1.00  0.00     0.032 A 
HETATM   17  C   UNL     1     -39.801 -46.676  12.124  1.00  0.00     0.019 A 
HETATM   18  C   UNL     1     -40.236 -46.278  10.866  1.00  0.00     0.088 A 
HETATM   19  N   UNL     1     -41.187 -46.925  10.159  1.00  0.00    -0.373 N 
HETATM   20  C   UNL     1     -41.769 -47.988  10.767  1.00  0.00     0.117 A 
ATOM     21  HN  UNL     1     -41.453 -46.630   9.219  1.00  0.00     0.164 HD
ENDBRANCH   4  15
TORSDOF 4
ENDMDL
MODEL 2
REMARK VINA RESULT:      -5.4      2.347      6.922
REMARK  4 active torsions:
REMARK  status: ('A' for Active; 'I' for Inactive)
REMARK    1  A    between atoms: C_2  and  S_3 
REMARK    2  A    between atoms: S_3  and  C_4 
REMARK    3  A    between atoms: C_8  and  N_9 
REMARK       I    between atoms: N_9  and  C_10 
REMARK       I    between atoms: C_10  and  N_12 
REMARK    4  A    between atoms: N_12  and  C_13 
ROOT
HETATM    1  N   UNL     1     -42.473 -49.633  12.125  1.00  0.00    -0.337 N 
HETATM    2  C   UNL     1     -42.983 -50.569  12.989  1.00  0.00     0.321 C 
HETATM    3  O   UNL     1     -43.247 -50.352  14.159  1.00  0.00    -0.247 OA
HETATM    4  N   UNL     1     -43.298 -51.744  12.329  1.00  0.00    -0.308 N 
HETATM    5  H   UNL     1     -41.802 -50.024  11.478  1.00  0.00     0.164 HD
HETATM    6  H   UNL     1     -43.462 -51.623  11.341  1.00  0.00     0.170 HD
ENDROOT
BRANCH   1   7
HETATM    7  C   UNL     1     -42.288 -48.214  12.441  1.00  0.00     0.100 C 
HETATM    8  C   UNL     1     -42.632 -47.187  11.348  1.00  0.00     0.070 C 
HETATM    9  C   UNL     1     -41.332 -46.976  10.571  1.00  0.00     0.017 C 
HETATM   10  C   UNL     1     -40.202 -47.253  11.568  1.00  0.00     0.003 C 
HETATM   11  C   UNL     1     -40.857 -47.818  12.832  1.00  0.00     0.026 C 
BRANCH   8  12
HETATM   12  S   UNL     1     -44.039 -47.585  10.255  1.00  0.00    -0.163 SA
BRANCH  12  13
HETATM   13  C   UNL     1     -43.437 -46.861   8.699  1.00  0.00     0.070 C 
HETATM   14  C   UNL     1     -43.482 -47.909   7.600  1.00  0.00     0.016 C 
ENDBRANCH  12  13
ENDBRANCH   8  12
ENDBRANCH   1   7
BRANCH   4  15
HETATM   15  C   UNL     1     -44.080 -52.725  12.984  1.00  0.00     0.051 A 
HETATM   16  C   UNL     1     -43.439 -53.760  13.661  1.00  0.00     0.032 A 
HETATM   17  C   UNL     1     -44.200 -54.819  14.152  1.00  0.00     0.019 A 
HETATM   18  C   UNL     1     -45.581 -54.766  14.013  1.00  0.00     0.088 A 
HETATM   19  N   UNL     1     -46.241 -53.741  13.433  1.00  0.00    -0.373 N 
HETATM   20  C   UNL     1     -45.474 -52.749  12.915  1.00  0.00     0.117 A 
ATOM     21  HN  UNL     1     -47.259 -53.714  13.385  1.00  0.00     0.164 HD
ENDBRANCH   4  15
TORSDOF 4
ENDMDL
MODEL 3
REMARK VINA RESULT:      -5.3      1.760      3.009
REMARK  4 active torsions:
REMARK  status: ('A' for Active; 'I' for Inactive)
REMARK    1  A    between atoms: C_2  and  S_3 
REMARK    2  A    between atoms: S_3  and  C_4 
REMARK    3  A    between atoms: C_8  and  N_9 
REMARK       I    between atoms: N_9  and  C_10 
REMARK       I    between atoms: C_10  and  N_12 
REMARK    4  A    between atoms: N_12  and  C_13 
ROOT
HETATM    1  N   UNL     1     -44.017 -50.675  12.749  1.00  0.00    -0.337 N 
HETATM    2  C   UNL     1     -43.348 -49.477  12.754  1.00  0.00     0.321 C 
HETATM    3  O   UNL     1     -43.092 -48.837  13.759  1.00  0.00    -0.247 OA
HETATM    4  N   UNL     1     -42.871 -49.162  11.493  1.00  0.00    -0.308 N 
HETATM    5  H   UNL     1     -44.635 -50.774  11.955  1.00  0.00     0.164 HD
HETATM    6  H   UNL     1     -42.751 -49.964  10.893  1.00  0.00     0.170 HD
ENDROOT
BRANCH   1   7
HETATM    7  C   UNL     1     -44.411 -51.419  13.948  1.00  0.00     0.100 C 
HETATM    8  C   UNL     1     -44.188 -52.942  13.950  1.00  0.00     0.070 C 
HETATM    9  C   UNL     1     -45.483 -53.539  13.400  1.00  0.00     0.017 C 
HETATM   10  C   UNL     1     -46.588 -52.543  13.764  1.00  0.00     0.003 C 
HETATM   11  C   UNL     1     -45.894 -51.299  14.328  1.00  0.00     0.026 C 
BRANCH   8  12
HETATM   12  S   UNL     1     -42.709 -53.560  13.077  1.00  0.00    -0.163 SA
BRANCH  12  13
HETATM   13  C   UNL     1     -41.837 -54.349  14.464  1.00  0.00     0.070 C 
HETATM   14  C   UNL     1     -42.823 -55.154  15.293  1.00  0.00     0.016 C 
ENDBRANCH  12  13
ENDBRANCH   8  12
ENDBRANCH   1   7
BRANCH   4  15
HETATM   15  C   UNL     1     -41.931 -48.114  11.343  1.00  0.00     0.051 A 
HETATM   16  C   UNL     1     -42.386 -46.842  11.003  1.00  0.00     0.032 A 
HETATM   17  C   UNL     1     -41.454 -45.857  10.682  1.00  0.00     0.019 A 
HETATM   18  C   UNL     1     -40.102 -46.159  10.786  1.00  0.00     0.088 A 
HETATM   19  N   UNL     1     -39.628 -47.357  11.189  1.00  0.00    -0.373 N 
HETATM   20  C   UNL     1     -40.553 -48.316  11.444  1.00  0.00     0.117 A 
ATOM     21  HN  UNL     1     -38.629 -47.533  11.295  1.00  0.00     0.164 HD
ENDBRANCH   4  15
TORSDOF 4
ENDMDL
MODEL 4
REMARK VINA RESULT:      -5.2      2.136      3.467
REMARK  4 active torsions:
REMARK  status: ('A' for Active; 'I' for Inactive)
REMARK    1  A    between atoms: C_2  and  S_3 
REMARK    2  A    between atoms: S_3  and  C_4 
REMARK    3  A    between atoms: C_8  and  N_9 
REMARK       I    between atoms: N_9  and  C_10 
REMARK       I    between atoms: C_10  and  N_12 
REMARK    4  A    between atoms: N_12  and  C_13 
ROOT
HETATM    1  N   UNL     1     -44.161 -51.344  13.343  1.00  0.00    -0.337 N 
HETATM    2  C   UNL     1     -43.021 -50.598  13.179  1.00  0.00     0.321 C 
HETATM    3  O   UNL     1     -42.629 -49.759  13.971  1.00  0.00    -0.247 OA
HETATM    4  N   UNL     1     -42.296 -51.022  12.079  1.00  0.00    -0.308 N 
HETATM    5  H   UNL     1     -44.648 -51.510  12.473  1.00  0.00     0.164 HD
HETATM    6  H   UNL     1     -42.485 -51.977  11.812  1.00  0.00     0.170 HD
ENDROOT
BRANCH   1   7
HETATM    7  C   UNL     1     -45.003 -51.334  14.543  1.00  0.00     0.100 C 
HETATM    8  C   UNL     1     -44.775 -52.442  15.586  1.00  0.00     0.070 C 
HETATM    9  C   UNL     1     -45.717 -53.576  15.180  1.00  0.00     0.017 C 
HETATM   10  C   UNL     1     -46.890 -52.906  14.459  1.00  0.00     0.003 C 
HETATM   11  C   UNL     1     -46.512 -51.433  14.276  1.00  0.00     0.026 C 
BRANCH   8  12
HETATM   12  S   UNL     1     -43.058 -53.013  15.822  1.00  0.00    -0.163 SA
BRANCH  12  13
HETATM   13  C   UNL     1     -43.064 -54.471  14.735  1.00  0.00     0.070 C 
HETATM   14  C   UNL     1     -42.033 -54.289  13.633  1.00  0.00     0.016 C 
ENDBRANCH  12  13
ENDBRANCH   8  12
ENDBRANCH   1   7
BRANCH   4  15
HETATM   15  C   UNL     1     -40.969 -50.567  11.899  1.00  0.00     0.051 A 
HETATM   16  C   UNL     1     -39.923 -51.286  12.472  1.00  0.00     0.032 A 
HETATM   17  C   UNL     1     -38.639 -50.746  12.447  1.00  0.00     0.019 A 
HETATM   18  C   UNL     1     -38.435 -49.543  11.784  1.00  0.00     0.088 A 
HETATM   19  N   UNL     1     -39.412 -48.859  11.150  1.00  0.00    -0.373 N 
HETATM   20  C   UNL     1     -40.662 -49.377  11.235  1.00  0.00     0.117 A 
ATOM     21  HN  UNL     1     -39.220 -47.999  10.636  1.00  0.00     0.164 HD
ENDBRANCH   4  15
TORSDOF 4
ENDMDL
MODEL 5
REMARK VINA RESULT:      -5.2      2.625      6.454
REMARK  4 active torsions:
REMARK  status: ('A' for Active; 'I' for Inactive)
REMARK    1  A    between atoms: C_2  and  S_3 
REMARK    2  A    between atoms: S_3  and  C_4 
REMARK    3  A    between atoms: C_8  and  N_9 
REMARK       I    between atoms: N_9  and  C_10 
REMARK       I    between atoms: C_10  and  N_12 
REMARK    4  A    between atoms: N_12  and  C_13 
ROOT
HETATM    1  N   UNL     1     -41.031 -51.117  12.715  1.00  0.00    -0.337 N 
HETATM    2  C   UNL     1     -42.099 -51.700  13.350  1.00  0.00     0.321 C 
HETATM    3  O   UNL     1     -42.165 -51.886  14.552  1.00  0.00    -0.247 OA
HETATM    4  N   UNL     1     -43.149 -51.913  12.474  1.00  0.00    -0.308 N 
HETATM    5  H   UNL     1     -40.838 -51.532  11.814  1.00  0.00     0.164 HD
HETATM    6  H   UNL     1     -43.131 -51.310  11.664  1.00  0.00     0.170 HD
ENDROOT
BRANCH   1   7
HETATM    7  C   UNL     1     -39.876 -50.522  13.394  1.00  0.00     0.100 C 
HETATM    8  C   UNL     1     -39.582 -49.034  13.134  1.00  0.00     0.070 C 
HETATM    9  C   UNL     1     -38.632 -49.015  11.935  1.00  0.00     0.017 C 
HETATM   10  C   UNL     1     -37.868 -50.341  11.988  1.00  0.00     0.003 C 
HETATM   11  C   UNL     1     -38.528 -51.188  13.082  1.00  0.00     0.026 C 
BRANCH   8  12
HETATM   12  S   UNL     1     -41.021 -47.937  12.899  1.00  0.00    -0.163 SA
BRANCH  12  13
HETATM   13  C   UNL     1     -40.783 -47.481  11.155  1.00  0.00     0.070 C 
HETATM   14  C   UNL     1     -41.918 -48.049  10.321  1.00  0.00     0.016 C 
ENDBRANCH  12  13
ENDBRANCH   8  12
ENDBRANCH   1   7
BRANCH   4  15
HETATM   15  C   UNL     1     -44.426 -52.251  12.982  1.00  0.00     0.051 A 
HETATM   16  C   UNL     1     -45.247 -51.238  13.474  1.00  0.00     0.032 A 
HETATM   17  C   UNL     1     -46.424 -51.586  14.135  1.00  0.00     0.019 A 
HETATM   18  C   UNL     1     -46.772 -52.928  14.213  1.00  0.00     0.088 A 
HETATM   19  N   UNL     1     -46.039 -53.928  13.679  1.00  0.00    -0.373 N 
HETATM   20  C   UNL     1     -44.872 -53.569  13.089  1.00  0.00     0.117 A 
ATOM     21  HN  UNL     1     -46.345 -54.900  13.718  1.00  0.00     0.164 HD
ENDBRANCH   4  15
TORSDOF 4
ENDMDL
MODEL 6
REMARK VINA RESULT:      -5.2      3.060      4.302
REMARK  4 active torsions:
REMARK  status: ('A' for Active; 'I' for Inactive)
REMARK    1  A    between atoms: C_2  and  S_3 
REMARK    2  A    between atoms: S_3  and  C_4 
REMARK    3  A    between atoms: C_8  and  N_9 
REMARK       I    between atoms: N_9  and  C_10 
REMARK       I    between atoms: C_10  and  N_12 
REMARK    4  A    between atoms: N_12  and  C_13 
ROOT
HETATM    1  N   UNL     1     -41.078 -51.342  12.337  1.00  0.00    -0.337 N 
HETATM    2  C   UNL     1     -41.662 -50.124  12.095  1.00  0.00     0.321 C 
HETATM    3  O   UNL     1     -42.374 -49.534  12.887  1.00  0.00    -0.247 OA
HETATM    4  N   UNL     1     -41.221 -49.585  10.899  1.00  0.00    -0.308 N 
HETATM    5  H   UNL     1     -41.049 -51.932  11.517  1.00  0.00     0.164 HD
HETATM    6  H   UNL     1     -40.325 -49.941  10.599  1.00  0.00     0.170 HD
ENDROOT
BRANCH   1   7
HETATM    7  C   UNL     1     -41.120 -52.050  13.620  1.00  0.00     0.100 C 
HETATM    8  C   UNL     1     -39.842 -52.054  14.477  1.00  0.00     0.070 C 
HETATM    9  C   UNL     1     -39.070 -53.300  14.043  1.00  0.00     0.017 C 
HETATM   10  C   UNL     1     -40.127 -54.297  13.560  1.00  0.00     0.003 C 
HETATM   11  C   UNL     1     -41.461 -53.544  13.524  1.00  0.00     0.026 C 
BRANCH   8  12
HETATM   12  S   UNL     1     -38.814 -50.546  14.431  1.00  0.00    -0.163 SA
BRANCH  12  13
HETATM   13  C   UNL     1     -37.603 -51.036  13.166  1.00  0.00     0.070 C 
HETATM   14  C   UNL     1     -37.689 -50.084  11.985  1.00  0.00     0.016 C 
ENDBRANCH  12  13
ENDBRANCH   8  12
ENDBRANCH   1   7
BRANCH   4  15
HETATM   15  C   UNL     1     -41.493 -48.228  10.602  1.00  0.00     0.051 A 
HETATM   16  C   UNL     1     -40.635 -47.244  11.089  1.00  0.00     0.032 A 
HETATM   17  C   UNL     1     -40.996 -45.905  10.951  1.00  0.00     0.019 A 
HETATM   18  C   UNL     1     -42.163 -45.598  10.264  1.00  0.00     0.088 A 
HETATM   19  N   UNL     1     -42.977 -46.523   9.711  1.00  0.00    -0.373 N 
HETATM   20  C   UNL     1     -42.632 -47.820   9.906  1.00  0.00     0.117 A 
ATOM     21  HN  UNL     1     -43.805 -46.261   9.176  1.00  0.00     0.164 HD
ENDBRANCH   4  15
TORSDOF 4
ENDMDL
MODEL 7
REMARK VINA RESULT:      -5.0      1.962      2.680
REMARK  4 active torsions:
REMARK  status: ('A' for Active; 'I' for Inactive)
REMARK    1  A    between atoms: C_2  and  S_3 
REMARK    2  A    between atoms: S_3  and  C_4 
REMARK    3  A    between atoms: C_8  and  N_9 
REMARK       I    between atoms: N_9  and  C_10 
REMARK       I    between atoms: C_10  and  N_12 
REMARK    4  A    between atoms: N_12  and  C_13 
ROOT
HETATM    1  N   UNL     1     -40.508 -52.336  13.679  1.00  0.00    -0.337 N 
HETATM    2  C   UNL     1     -40.853 -51.518  12.633  1.00  0.00     0.321 C 
HETATM    3  O   UNL     1     -41.219 -51.916  11.542  1.00  0.00    -0.247 OA
HETATM    4  N   UNL     1     -40.878 -50.190  13.021  1.00  0.00    -0.308 N 
HETATM    5  H   UNL     1     -39.736 -51.972  14.221  1.00  0.00     0.164 HD
HETATM    6  H   UNL     1     -41.011 -50.059  14.013  1.00  0.00     0.170 HD
ENDROOT
BRANCH   1   7
HETATM    7  C   UNL     1     -40.644 -53.796  13.681  1.00  0.00     0.100 C 
HETATM    8  C   UNL     1     -41.748 -54.409  14.561  1.00  0.00     0.070 C 
HETATM    9  C   UNL     1     -41.086 -54.670  15.914  1.00  0.00     0.017 C 
HETATM   10  C   UNL     1     -39.602 -54.899  15.614  1.00  0.00     0.003 C 
HETATM   11  C   UNL     1     -39.393 -54.563  14.134  1.00  0.00     0.026 C 
BRANCH   8  12
HETATM   12  S   UNL     1     -43.301 -53.462  14.716  1.00  0.00    -0.163 SA
BRANCH  12  13
HETATM   13  C   UNL     1     -44.215 -54.130  13.293  1.00  0.00     0.070 C 
HETATM   14  C   UNL     1     -45.341 -55.022  13.786  1.00  0.00     0.016 C 
ENDBRANCH  12  13
ENDBRANCH   8  12
ENDBRANCH   1   7
BRANCH   4  15
HETATM   15  C   UNL     1     -41.468 -49.224  12.171  1.00  0.00     0.051 A 
HETATM   16  C   UNL     1     -42.816 -48.913  12.335  1.00  0.00     0.032 A 
HETATM   17  C   UNL     1     -43.440 -48.100  11.391  1.00  0.00     0.019 A 
HETATM   18  C   UNL     1     -42.676 -47.568  10.361  1.00  0.00     0.088 A 
HETATM   19  N   UNL     1     -41.351 -47.786  10.217  1.00  0.00    -0.373 N 
HETATM   20  C   UNL     1     -40.778 -48.623  11.117  1.00  0.00     0.117 A 
ATOM     21  HN  UNL     1     -40.811 -47.345   9.472  1.00  0.00     0.164 HD
ENDBRANCH   4  15
TORSDOF 4
ENDMDL
MODEL 8
REMARK VINA RESULT:      -4.9      2.049      2.852
REMARK  4 active torsions:
REMARK  status: ('A' for Active; 'I' for Inactive)
REMARK    1  A    between atoms: C_2  and  S_3 
REMARK    2  A    between atoms: S_3  and  C_4 
REMARK    3  A    between atoms: C_8  and  N_9 
REMARK       I    between atoms: N_9  and  C_10 
REMARK       I    between atoms: C_10  and  N_12 
REMARK    4  A    between atoms: N_12  and  C_13 
ROOT
HETATM    1  N   UNL     1     -42.382 -50.773  12.577  1.00  0.00    -0.337 N 
HETATM    2  C   UNL     1     -42.213 -49.608  11.874  1.00  0.00     0.321 C 
HETATM    3  O   UNL     1     -41.305 -49.406  11.087  1.00  0.00    -0.247 OA
HETATM    4  N   UNL     1     -43.283 -48.750  12.058  1.00  0.00    -0.308 N 
HETATM    5  H   UNL     1     -42.726 -50.618  13.515  1.00  0.00     0.164 HD
HETATM    6  H   UNL     1     -44.134 -49.216  12.338  1.00  0.00     0.170 HD
ENDROOT
BRANCH   1   7
HETATM    7  C   UNL     1     -41.576 -51.985  12.397  1.00  0.00     0.100 C 
HETATM    8  C   UNL     1     -42.193 -53.325  12.834  1.00  0.00     0.070 C 
HETATM    9  C   UNL     1     -41.771 -53.505  14.293  1.00  0.00     0.017 C 
HETATM   10  C   UNL     1     -40.445 -52.753  14.439  1.00  0.00     0.003 C 
HETATM   11  C   UNL     1     -40.228 -51.982  13.132  1.00  0.00     0.026 C 
BRANCH   8  12
HETATM   12  S   UNL     1     -43.992 -53.521  12.601  1.00  0.00    -0.163 SA
BRANCH  12  13
HETATM   13  C   UNL     1     -44.387 -54.527  14.064  1.00  0.00     0.070 C 
HETATM   14  C   UNL     1     -45.582 -55.415  13.762  1.00  0.00     0.016 C 
ENDBRANCH  12  13
ENDBRANCH   8  12
ENDBRANCH   1   7
BRANCH   4  15
HETATM   15  C   UNL     1     -43.429 -47.623  11.215  1.00  0.00     0.051 A 
HETATM   16  C   UNL     1     -44.161 -47.750  10.037  1.00  0.00     0.032 A 
HETATM   17  C   UNL     1     -44.156 -46.698   9.123  1.00  0.00     0.019 A 
HETATM   18  C   UNL     1     -43.482 -45.530   9.455  1.00  0.00     0.088 A 
HETATM   19  N   UNL     1     -42.828 -45.345  10.621  1.00  0.00    -0.373 N 
HETATM   20  C   UNL     1     -42.802 -46.402  11.471  1.00  0.00     0.117 A 
ATOM     21  HN  UNL     1     -42.379 -44.459  10.852  1.00  0.00     0.164 HD
ENDBRANCH   4  15
TORSDOF 4
ENDMDL
MODEL 9
REMARK VINA RESULT:      -4.8      3.432      6.815
REMARK  4 active torsions:
REMARK  status: ('A' for Active; 'I' for Inactive)
REMARK    1  A    between atoms: C_2  and  S_3 
REMARK    2  A    between atoms: S_3  and  C_4 
REMARK    3  A    between atoms: C_8  and  N_9 
REMARK       I    between atoms: N_9  and  C_10 
REMARK       I    between atoms: C_10  and  N_12 
REMARK    4  A    between atoms: N_12  and  C_13 
ROOT
HETATM    1  N   UNL     1     -40.000 -48.075  12.321  1.00  0.00    -0.337 N 
HETATM    2  C   UNL     1     -40.309 -49.252  12.954  1.00  0.00     0.321 C 
HETATM    3  O   UNL     1     -41.212 -49.382  13.761  1.00  0.00    -0.247 OA
HETATM    4  N   UNL     1     -39.563 -50.304  12.451  1.00  0.00    -0.308 N 
HETATM    5  H   UNL     1     -39.005 -47.949  12.192  1.00  0.00     0.164 HD
HETATM    6  H   UNL     1     -39.219 -50.147  11.515  1.00  0.00     0.170 HD
ENDROOT
BRANCH   1   7
HETATM    7  C   UNL     1     -40.781 -46.839  12.423  1.00  0.00     0.100 C 
HETATM    8  C   UNL     1     -41.602 -46.407  11.195  1.00  0.00     0.070 C 
HETATM    9  C   UNL     1     -40.667 -45.511  10.382  1.00  0.00     0.017 C 
HETATM   10  C   UNL     1     -39.706 -44.883  11.395  1.00  0.00     0.003 C 
HETATM   11  C   UNL     1     -39.961 -45.578  12.736  1.00  0.00     0.026 C 
BRANCH   8  12
HETATM   12  S   UNL     1     -42.342 -47.738  10.189  1.00  0.00    -0.163 SA
BRANCH  12  13
HETATM   13  C   UNL     1     -43.460 -46.752   9.147  1.00  0.00     0.070 C 
HETATM   14  C   UNL     1     -44.863 -47.333   9.215  1.00  0.00     0.016 C 
ENDBRANCH  12  13
ENDBRANCH   8  12
ENDBRANCH   1   7
BRANCH   4  15
HETATM   15  C   UNL     1     -39.921 -51.633  12.777  1.00  0.00     0.051 A 
HETATM   16  C   UNL     1     -39.311 -52.250  13.867  1.00  0.00     0.032 A 
HETATM   17  C   UNL     1     -39.529 -53.610  14.081  1.00  0.00     0.019 A 
HETATM   18  C   UNL     1     -40.407 -54.284  13.244  1.00  0.00     0.088 A 
HETATM   19  N   UNL     1     -41.076 -53.699  12.227  1.00  0.00    -0.373 N 
HETATM   20  C   UNL     1     -40.806 -52.388  12.005  1.00  0.00     0.117 A 
ATOM     21  HN  UNL     1     -41.747 -54.214  11.657  1.00  0.00     0.164 HD
ENDBRANCH   4  15
TORSDOF 4
ENDMDL
