MODEL 1
REMARK VINA RESULT:      -5.7      0.000      0.000
REMARK  7 active torsions:
REMARK  status: ('A' for Active; 'I' for Inactive)
REMARK    1  A    between atoms: N_5  and  C_6 
REMARK    2  A    between atoms: C_6  and  C_7 
REMARK    3  A    between atoms: C_7  and  O_8 
REMARK    4  A    between atoms: C_7  and  C_9 
REMARK    5  A    between atoms: C_9  and  O_10 
REMARK    6  A    between atoms: O_10  and  C_11 
REMARK    7  A    between atoms: C_11  and  C_12 
ROOT
HETATM    1  C   UNL     1     -41.111 -50.918  12.328  1.00  0.00     0.160 C 
ENDROOT
BRANCH   1   2
HETATM    2  C   UNL     1     -40.808 -52.412  12.102  1.00  0.00     0.168 C 
BRANCH   2   3
HETATM    3  N   UNL     1     -41.263 -53.257  13.179  1.00  0.00    -0.295 N 
HETATM    4  C   UNL     1     -40.456 -53.717  14.239  1.00  0.00     0.329 A 
HETATM    5  N   UNL     1     -41.274 -54.554  15.024  1.00  0.00    -0.302 N 
HETATM    6  O   UNL     1     -39.277 -53.449  14.415  1.00  0.00    -0.246 OA
HETATM    7  C   UNL     1     -40.856 -55.287  16.182  1.00  0.00     0.161 C 
HETATM    8  C   UNL     1     -42.560 -54.589  14.468  1.00  0.00     0.065 A 
HETATM    9  C   UNL     1     -42.557 -53.779  13.327  1.00  0.00     0.066 A 
HETATM   10  C   UNL     1     -43.691 -55.267  14.873  1.00  0.00     0.032 A 
HETATM   11  C   UNL     1     -43.682 -53.611  12.553  1.00  0.00     0.032 A 
HETATM   12  C   UNL     1     -44.841 -54.287  12.952  1.00  0.00     0.002 A 
HETATM   13  C   UNL     1     -44.845 -55.108  14.099  1.00  0.00     0.002 A 
ENDBRANCH   2   3
ENDBRANCH   1   2
BRANCH   1  14
HETATM   14  O   UNL     1     -42.372 -50.528  11.774  1.00  0.00    -0.392 OA
HETATM   15  H   UNL     1     -42.740 -49.805  12.315  1.00  0.00     0.210 HD
ENDBRANCH   1  14
BRANCH   1  16
HETATM   16  C   UNL     1     -41.117 -50.596  13.826  1.00  0.00     0.201 C 
BRANCH  16  17
HETATM   17  O   UNL     1     -42.436 -50.239  14.229  1.00  0.00    -0.384 OA
BRANCH  17  18
HETATM   18  C   UNL     1     -42.804 -50.848  15.466  1.00  0.00     0.209 C 
BRANCH  18  19
HETATM   19  C   UNL     1     -44.238 -51.299  15.400  1.00  0.00     0.004 A 
HETATM   20  C   UNL     1     -45.095 -50.907  14.360  1.00  0.00     0.012 A 
HETATM   21  C   UNL     1     -46.432 -51.315  14.348  1.00  0.00     0.001 A 
HETATM   22  C   UNL     1     -46.931 -52.108  15.380  1.00  0.00     0.003 A 
HETATM   23  C   UNL     1     -46.093 -52.492  16.425  1.00  0.00     0.043 A 
HETATM   24  C   UNL     1     -44.763 -52.083  16.429  1.00  0.00     0.124 A 
HETATM   25  F   UNL     1     -43.978 -52.451  17.453  1.00  0.00    -0.205 F 
ENDBRANCH  18  19
ENDBRANCH  17  18
ENDBRANCH  16  17
ENDBRANCH   1  16
TORSDOF 7
ENDMDL
MODEL 2
REMARK VINA RESULT:      -5.5      2.329      4.445
REMARK  7 active torsions:
REMARK  status: ('A' for Active; 'I' for Inactive)
REMARK    1  A    between atoms: N_5  and  C_6 
REMARK    2  A    between atoms: C_6  and  C_7 
REMARK    3  A    between atoms: C_7  and  O_8 
REMARK    4  A    between atoms: C_7  and  C_9 
REMARK    5  A    between atoms: C_9  and  O_10 
REMARK    6  A    between atoms: O_10  and  C_11 
REMARK    7  A    between atoms: C_11  and  C_12 
ROOT
HETATM    1  C   UNL     1     -40.772 -53.883  13.641  1.00  0.00     0.160 C 
ENDROOT
BRANCH   1   2
HETATM    2  C   UNL     1     -40.253 -52.620  14.355  1.00  0.00     0.168 C 
BRANCH   2   3
HETATM    3  N   UNL     1     -40.182 -51.466  13.493  1.00  0.00    -0.295 N 
HETATM    4  C   UNL     1     -39.013 -51.008  12.851  1.00  0.00     0.329 A 
HETATM    5  N   UNL     1     -39.373 -49.831  12.165  1.00  0.00    -0.302 N 
HETATM    6  O   UNL     1     -37.911 -51.532  12.906  1.00  0.00    -0.246 OA
HETATM    7  C   UNL     1     -38.485 -48.993  11.415  1.00  0.00     0.161 C 
HETATM    8  C   UNL     1     -40.737 -49.584  12.367  1.00  0.00     0.065 A 
HETATM    9  C   UNL     1     -41.243 -50.601  13.184  1.00  0.00     0.066 A 
HETATM   10  C   UNL     1     -41.537 -48.558  11.907  1.00  0.00     0.032 A 
HETATM   11  C   UNL     1     -42.564 -50.636  13.567  1.00  0.00     0.032 A 
HETATM   12  C   UNL     1     -43.392 -49.605  13.106  1.00  0.00     0.002 A 
HETATM   13  C   UNL     1     -42.884 -48.577  12.286  1.00  0.00     0.002 A 
ENDBRANCH   2   3
ENDBRANCH   1   2
BRANCH   1  14
HETATM   14  O   UNL     1     -39.709 -54.726  13.183  1.00  0.00    -0.392 OA
HETATM   15  H   UNL     1     -38.928 -54.171  13.003  1.00  0.00     0.210 HD
ENDBRANCH   1  14
BRANCH   1  16
HETATM   16  C   UNL     1     -41.667 -54.698  14.583  1.00  0.00     0.201 C 
BRANCH  16  17
HETATM   17  O   UNL     1     -42.624 -53.836  15.190  1.00  0.00    -0.384 OA
BRANCH  17  18
HETATM   18  C   UNL     1     -43.948 -54.364  15.115  1.00  0.00     0.209 C 
BRANCH  18  19
HETATM   19  C   UNL     1     -44.858 -53.353  14.472  1.00  0.00     0.004 A 
HETATM   20  C   UNL     1     -45.603 -52.434  15.228  1.00  0.00     0.012 A 
HETATM   21  C   UNL     1     -46.466 -51.531  14.601  1.00  0.00     0.001 A 
HETATM   22  C   UNL     1     -46.606 -51.544  13.214  1.00  0.00     0.003 A 
HETATM   23  C   UNL     1     -45.884 -52.462  12.454  1.00  0.00     0.043 A 
HETATM   24  C   UNL     1     -45.024 -53.357  13.086  1.00  0.00     0.124 A 
HETATM   25  F   UNL     1     -44.351 -54.242  12.336  1.00  0.00    -0.205 F 
ENDBRANCH  18  19
ENDBRANCH  17  18
ENDBRANCH  16  17
ENDBRANCH   1  16
TORSDOF 7
ENDMDL
MODEL 3
REMARK VINA RESULT:      -5.5      2.337      4.540
REMARK  7 active torsions:
REMARK  status: ('A' for Active; 'I' for Inactive)
REMARK    1  A    between atoms: N_5  and  C_6 
REMARK    2  A    between atoms: C_6  and  C_7 
REMARK    3  A    between atoms: C_7  and  O_8 
REMARK    4  A    between atoms: C_7  and  C_9 
REMARK    5  A    between atoms: C_9  and  O_10 
REMARK    6  A    between atoms: O_10  and  C_11 
REMARK    7  A    between atoms: C_11  and  C_12 
ROOT
HETATM    1  C   UNL     1     -41.988 -53.438  12.893  1.00  0.00     0.160 C 
ENDROOT
BRANCH   1   2
HETATM    2  C   UNL     1     -41.501 -52.261  13.760  1.00  0.00     0.168 C 
BRANCH   2   3
HETATM    3  N   UNL     1     -40.831 -51.232  13.003  1.00  0.00    -0.295 N 
HETATM    4  C   UNL     1     -39.463 -51.239  12.666  1.00  0.00     0.329 A 
HETATM    5  N   UNL     1     -39.217 -50.030  11.985  1.00  0.00    -0.302 N 
HETATM    6  O   UNL     1     -38.660 -52.119  12.935  1.00  0.00    -0.246 OA
HETATM    7  C   UNL     1     -37.944 -49.584  11.501  1.00  0.00     0.161 C 
HETATM    8  C   UNL     1     -40.413 -49.307  11.890  1.00  0.00     0.065 A 
HETATM    9  C   UNL     1     -41.418 -50.054  12.515  1.00  0.00     0.066 A 
HETATM   10  C   UNL     1     -40.672 -48.076  11.323  1.00  0.00     0.032 A 
HETATM   11  C   UNL     1     -42.716 -49.605  12.591  1.00  0.00     0.032 A 
HETATM   12  C   UNL     1     -42.998 -48.360  12.016  1.00  0.00     0.002 A 
HETATM   13  C   UNL     1     -41.986 -47.603  11.390  1.00  0.00     0.002 A 
ENDBRANCH   2   3
ENDBRANCH   1   2
BRANCH   1  14
HETATM   14  O   UNL     1     -40.909 -54.263  12.439  1.00  0.00    -0.392 OA
HETATM   15  H   UNL     1     -40.314 -54.438  13.191  1.00  0.00     0.210 HD
ENDBRANCH   1  14
BRANCH   1  16
HETATM   16  C   UNL     1     -42.970 -54.311  13.682  1.00  0.00     0.201 C 
BRANCH  16  17
HETATM   17  O   UNL     1     -44.133 -54.546  12.895  1.00  0.00    -0.384 OA
BRANCH  17  18
HETATM   18  C   UNL     1     -45.265 -54.886  13.695  1.00  0.00     0.209 C 
BRANCH  18  19
HETATM   19  C   UNL     1     -45.903 -53.631  14.225  1.00  0.00     0.004 A 
HETATM   20  C   UNL     1     -46.180 -52.529  13.401  1.00  0.00     0.012 A 
HETATM   21  C   UNL     1     -46.741 -51.365  13.933  1.00  0.00     0.001 A 
HETATM   22  C   UNL     1     -47.021 -51.283  15.296  1.00  0.00     0.003 A 
HETATM   23  C   UNL     1     -46.737 -52.365  16.128  1.00  0.00     0.043 A 
HETATM   24  C   UNL     1     -46.179 -53.521  15.590  1.00  0.00     0.124 A 
HETATM   25  F   UNL     1     -45.900 -54.544  16.411  1.00  0.00    -0.205 F 
ENDBRANCH  18  19
ENDBRANCH  17  18
ENDBRANCH  16  17
ENDBRANCH   1  16
TORSDOF 7
ENDMDL
MODEL 4
REMARK VINA RESULT:      -5.4      2.170      3.315
REMARK  7 active torsions:
REMARK  status: ('A' for Active; 'I' for Inactive)
REMARK    1  A    between atoms: N_5  and  C_6 
REMARK    2  A    between atoms: C_6  and  C_7 
REMARK    3  A    between atoms: C_7  and  O_8 
REMARK    4  A    between atoms: C_7  and  C_9 
REMARK    5  A    between atoms: C_9  and  O_10 
REMARK    6  A    between atoms: O_10  and  C_11 
REMARK    7  A    between atoms: C_11  and  C_12 
ROOT
HETATM    1  C   UNL     1     -41.213 -52.442  13.230  1.00  0.00     0.160 C 
ENDROOT
BRANCH   1   2
HETATM    2  C   UNL     1     -41.801 -53.863  13.122  1.00  0.00     0.168 C 
BRANCH   2   3
HETATM    3  N   UNL     1     -42.942 -54.076  13.979  1.00  0.00    -0.295 N 
HETATM    4  C   UNL     1     -44.247 -54.361  13.529  1.00  0.00     0.329 A 
HETATM    5  N   UNL     1     -45.055 -54.434  14.681  1.00  0.00    -0.302 N 
HETATM    6  O   UNL     1     -44.593 -54.498  12.366  1.00  0.00    -0.246 OA
HETATM    7  C   UNL     1     -46.471 -54.652  14.699  1.00  0.00     0.161 C 
HETATM    8  C   UNL     1     -44.258 -54.216  15.813  1.00  0.00     0.065 A 
HETATM    9  C   UNL     1     -42.945 -54.002  15.380  1.00  0.00     0.066 A 
HETATM   10  C   UNL     1     -44.595 -54.184  17.151  1.00  0.00     0.032 A 
HETATM   11  C   UNL     1     -41.920 -53.753  16.264  1.00  0.00     0.032 A 
HETATM   12  C   UNL     1     -42.242 -53.723  17.626  1.00  0.00     0.002 A 
HETATM   13  C   UNL     1     -43.566 -53.934  18.065  1.00  0.00     0.002 A 
ENDBRANCH   2   3
ENDBRANCH   1   2
BRANCH   1  14
HETATM   14  O   UNL     1     -39.907 -52.348  12.652  1.00  0.00    -0.392 OA
HETATM   15  H   UNL     1     -39.264 -52.169  13.362  1.00  0.00     0.210 HD
ENDBRANCH   1  14
BRANCH   1  16
HETATM   16  C   UNL     1     -42.129 -51.431  12.532  1.00  0.00     0.201 C 
BRANCH  16  17
HETATM   17  O   UNL     1     -42.848 -50.688  13.512  1.00  0.00    -0.384 OA
BRANCH  17  18
HETATM   18  C   UNL     1     -44.260 -50.792  13.337  1.00  0.00     0.209 C 
BRANCH  18  19
HETATM   19  C   UNL     1     -44.936 -50.792  14.681  1.00  0.00     0.004 A 
HETATM   20  C   UNL     1     -44.241 -50.502  15.866  1.00  0.00     0.012 A 
HETATM   21  C   UNL     1     -44.892 -50.546  17.102  1.00  0.00     0.001 A 
HETATM   22  C   UNL     1     -46.240 -50.892  17.172  1.00  0.00     0.003 A 
HETATM   23  C   UNL     1     -46.938 -51.196  16.004  1.00  0.00     0.043 A 
HETATM   24  C   UNL     1     -46.283 -51.149  14.776  1.00  0.00     0.124 A 
HETATM   25  F   UNL     1     -46.969 -51.461  13.667  1.00  0.00    -0.205 F 
ENDBRANCH  18  19
ENDBRANCH  17  18
ENDBRANCH  16  17
ENDBRANCH   1  16
TORSDOF 7
ENDMDL
MODEL 5
REMARK VINA RESULT:      -5.3      3.957      6.097
REMARK  7 active torsions:
REMARK  status: ('A' for Active; 'I' for Inactive)
REMARK    1  A    between atoms: N_5  and  C_6 
REMARK    2  A    between atoms: C_6  and  C_7 
REMARK    3  A    between atoms: C_7  and  O_8 
REMARK    4  A    between atoms: C_7  and  C_9 
REMARK    5  A    between atoms: C_9  and  O_10 
REMARK    6  A    between atoms: O_10  and  C_11 
REMARK    7  A    between atoms: C_11  and  C_12 
ROOT
HETATM    1  C   UNL     1     -41.473 -50.586  11.817  1.00  0.00     0.160 C 
ENDROOT
BRANCH   1   2
HETATM    2  C   UNL     1     -41.589 -49.246  12.568  1.00  0.00     0.168 C 
BRANCH   2   3
HETATM    3  N   UNL     1     -41.500 -48.095  11.702  1.00  0.00    -0.295 N 
HETATM    4  C   UNL     1     -40.367 -47.268  11.572  1.00  0.00     0.329 A 
HETATM    5  N   UNL     1     -40.728 -46.240  10.679  1.00  0.00    -0.302 N 
HETATM    6  O   UNL     1     -39.298 -47.418  12.144  1.00  0.00    -0.246 OA
HETATM    7  C   UNL     1     -39.900 -45.135  10.293  1.00  0.00     0.161 C 
HETATM    8  C   UNL     1     -42.048 -46.444  10.256  1.00  0.00     0.065 A 
HETATM    9  C   UNL     1     -42.527 -47.599  10.884  1.00  0.00     0.066 A 
HETATM   10  C   UNL     1     -42.836 -45.707   9.396  1.00  0.00     0.032 A 
HETATM   11  C   UNL     1     -43.804 -48.065  10.672  1.00  0.00     0.032 A 
HETATM   12  C   UNL     1     -44.616 -47.332   9.798  1.00  0.00     0.002 A 
HETATM   13  C   UNL     1     -44.137 -46.164   9.168  1.00  0.00     0.002 A 
ENDBRANCH   2   3
ENDBRANCH   1   2
BRANCH   1  14
HETATM   14  O   UNL     1     -40.589 -50.506  10.693  1.00  0.00    -0.392 OA
HETATM   15  H   UNL     1     -40.978 -49.902  10.034  1.00  0.00     0.210 HD
ENDBRANCH   1  14
BRANCH   1  16
HETATM   16  C   UNL     1     -40.964 -51.683  12.759  1.00  0.00     0.201 C 
BRANCH  16  17
HETATM   17  O   UNL     1     -42.062 -52.240  13.474  1.00  0.00    -0.384 OA
BRANCH  17  18
HETATM   18  C   UNL     1     -43.087 -52.715  12.601  1.00  0.00     0.209 C 
BRANCH  18  19
HETATM   19  C   UNL     1     -44.406 -52.716  13.325  1.00  0.00     0.004 A 
HETATM   20  C   UNL     1     -44.985 -53.896  13.818  1.00  0.00     0.012 A 
HETATM   21  C   UNL     1     -46.229 -53.866  14.455  1.00  0.00     0.001 A 
HETATM   22  C   UNL     1     -46.915 -52.660  14.595  1.00  0.00     0.003 A 
HETATM   23  C   UNL     1     -46.357 -51.484  14.096  1.00  0.00     0.043 A 
HETATM   24  C   UNL     1     -45.117 -51.522  13.464  1.00  0.00     0.124 A 
HETATM   25  F   UNL     1     -44.606 -50.382  12.978  1.00  0.00    -0.205 F 
ENDBRANCH  18  19
ENDBRANCH  17  18
ENDBRANCH  16  17
ENDBRANCH   1  16
TORSDOF 7
ENDMDL
MODEL 6
REMARK VINA RESULT:      -5.3      2.253      4.028
REMARK  7 active torsions:
REMARK  status: ('A' for Active; 'I' for Inactive)
REMARK    1  A    between atoms: N_5  and  C_6 
REMARK    2  A    between atoms: C_6  and  C_7 
REMARK    3  A    between atoms: C_7  and  O_8 
REMARK    4  A    between atoms: C_7  and  C_9 
REMARK    5  A    between atoms: C_9  and  O_10 
REMARK    6  A    between atoms: O_10  and  C_11 
REMARK    7  A    between atoms: C_11  and  C_12 
ROOT
HETATM    1  C   UNL     1     -40.829 -54.146  12.946  1.00  0.00     0.160 C 
ENDROOT
BRANCH   1   2
HETATM    2  C   UNL     1     -40.821 -52.874  12.076  1.00  0.00     0.168 C 
BRANCH   2   3
HETATM    3  N   UNL     1     -40.517 -51.676  12.818  1.00  0.00    -0.295 N 
HETATM    4  C   UNL     1     -39.240 -51.331  13.306  1.00  0.00     0.329 A 
HETATM    5  N   UNL     1     -39.401 -50.125  14.017  1.00  0.00    -0.302 N 
HETATM    6  O   UNL     1     -38.213 -51.973  13.150  1.00  0.00    -0.246 OA
HETATM    7  C   UNL     1     -38.372 -49.430  14.733  1.00  0.00     0.161 C 
HETATM    8  C   UNL     1     -40.744 -49.730  13.949  1.00  0.00     0.065 A 
HETATM    9  C   UNL     1     -41.436 -50.686  13.199  1.00  0.00     0.066 A 
HETATM   10  C   UNL     1     -41.381 -48.632  14.490  1.00  0.00     0.032 A 
HETATM   11  C   UNL     1     -42.786 -50.580  12.956  1.00  0.00     0.032 A 
HETATM   12  C   UNL     1     -43.449 -49.469  13.492  1.00  0.00     0.002 A 
HETATM   13  C   UNL     1     -42.753 -48.506  14.252  1.00  0.00     0.002 A 
ENDBRANCH   2   3
ENDBRANCH   1   2
BRANCH   1  14
HETATM   14  O   UNL     1     -39.508 -54.592  13.271  1.00  0.00    -0.392 OA
HETATM   15  H   UNL     1     -39.297 -55.367  12.719  1.00  0.00     0.210 HD
ENDBRANCH   1  14
BRANCH   1  16
HETATM   16  C   UNL     1     -41.593 -53.895  14.251  1.00  0.00     0.201 C 
BRANCH  16  17
HETATM   17  O   UNL     1     -42.795 -54.659  14.251  1.00  0.00    -0.384 OA
BRANCH  17  18
HETATM   18  C   UNL     1     -43.617 -54.370  15.382  1.00  0.00     0.209 C 
BRANCH  18  19
HETATM   19  C   UNL     1     -44.623 -53.314  15.017  1.00  0.00     0.004 A 
HETATM   20  C   UNL     1     -44.804 -52.156  15.791  1.00  0.00     0.012 A 
HETATM   21  C   UNL     1     -45.773 -51.212  15.443  1.00  0.00     0.001 A 
HETATM   22  C   UNL     1     -46.582 -51.417  14.326  1.00  0.00     0.003 A 
HETATM   23  C   UNL     1     -46.423 -52.569  13.559  1.00  0.00     0.043 A 
HETATM   24  C   UNL     1     -45.454 -53.505  13.911  1.00  0.00     0.124 A 
HETATM   25  F   UNL     1     -45.329 -54.614  13.167  1.00  0.00    -0.205 F 
ENDBRANCH  18  19
ENDBRANCH  17  18
ENDBRANCH  16  17
ENDBRANCH   1  16
TORSDOF 7
ENDMDL
MODEL 7
REMARK VINA RESULT:      -5.2      2.356      5.004
REMARK  7 active torsions:
REMARK  status: ('A' for Active; 'I' for Inactive)
REMARK    1  A    between atoms: N_5  and  C_6 
REMARK    2  A    between atoms: C_6  and  C_7 
REMARK    3  A    between atoms: C_7  and  O_8 
REMARK    4  A    between atoms: C_7  and  C_9 
REMARK    5  A    between atoms: C_9  and  O_10 
REMARK    6  A    between atoms: O_10  and  C_11 
REMARK    7  A    between atoms: C_11  and  C_12 
ROOT
HETATM    1  C   UNL     1     -40.846 -53.947  14.427  1.00  0.00     0.160 C 
ENDROOT
BRANCH   1   2
HETATM    2  C   UNL     1     -40.758 -52.520  15.002  1.00  0.00     0.168 C 
BRANCH   2   3
HETATM    3  N   UNL     1     -40.657 -51.500  13.987  1.00  0.00    -0.295 N 
HETATM    4  C   UNL     1     -41.742 -50.757  13.479  1.00  0.00     0.329 A 
HETATM    5  N   UNL     1     -41.214 -49.924  12.473  1.00  0.00    -0.302 N 
HETATM    6  O   UNL     1     -42.906 -50.844  13.840  1.00  0.00    -0.246 OA
HETATM    7  C   UNL     1     -41.967 -49.029  11.645  1.00  0.00     0.161 C 
HETATM    8  C   UNL     1     -39.833 -50.139  12.380  1.00  0.00     0.065 A 
HETATM    9  C   UNL     1     -39.484 -51.111  13.324  1.00  0.00     0.066 A 
HETATM   10  C   UNL     1     -38.893 -49.567  11.546  1.00  0.00     0.032 A 
HETATM   11  C   UNL     1     -38.187 -51.544  13.474  1.00  0.00     0.032 A 
HETATM   12  C   UNL     1     -37.219 -50.972  12.640  1.00  0.00     0.002 A 
HETATM   13  C   UNL     1     -37.569 -49.995  11.685  1.00  0.00     0.002 A 
ENDBRANCH   2   3
ENDBRANCH   1   2
BRANCH   1  14
HETATM   14  O   UNL     1     -39.645 -54.696  14.643  1.00  0.00    -0.392 OA
HETATM   15  H   UNL     1     -39.852 -55.460  15.213  1.00  0.00     0.210 HD
ENDBRANCH   1  14
BRANCH   1  16
HETATM   16  C   UNL     1     -42.015 -54.708  15.064  1.00  0.00     0.201 C 
BRANCH  16  17
HETATM   17  O   UNL     1     -42.954 -53.777  15.592  1.00  0.00    -0.384 OA
BRANCH  17  18
HETATM   18  C   UNL     1     -44.298 -54.246  15.478  1.00  0.00     0.209 C 
BRANCH  18  19
HETATM   19  C   UNL     1     -45.095 -53.291  14.632  1.00  0.00     0.004 A 
HETATM   20  C   UNL     1     -45.855 -52.253  15.193  1.00  0.00     0.012 A 
HETATM   21  C   UNL     1     -46.613 -51.406  14.380  1.00  0.00     0.001 A 
HETATM   22  C   UNL     1     -46.632 -51.594  12.999  1.00  0.00     0.003 A 
HETATM   23  C   UNL     1     -45.894 -52.631  12.431  1.00  0.00     0.043 A 
HETATM   24  C   UNL     1     -45.140 -53.469  13.248  1.00  0.00     0.124 A 
HETATM   25  F   UNL     1     -44.449 -54.470  12.681  1.00  0.00    -0.205 F 
ENDBRANCH  18  19
ENDBRANCH  17  18
ENDBRANCH  16  17
ENDBRANCH   1  16
TORSDOF 7
ENDMDL
MODEL 8
REMARK VINA RESULT:      -5.2      2.254      4.020
REMARK  7 active torsions:
REMARK  status: ('A' for Active; 'I' for Inactive)
REMARK    1  A    between atoms: N_5  and  C_6 
REMARK    2  A    between atoms: C_6  and  C_7 
REMARK    3  A    between atoms: C_7  and  O_8 
REMARK    4  A    between atoms: C_7  and  C_9 
REMARK    5  A    between atoms: C_9  and  O_10 
REMARK    6  A    between atoms: O_10  and  C_11 
REMARK    7  A    between atoms: C_11  and  C_12 
ROOT
HETATM    1  C   UNL     1     -45.513 -53.049  13.036  1.00  0.00     0.160 C 
ENDROOT
BRANCH   1   2
HETATM    2  C   UNL     1     -44.582 -54.261  12.841  1.00  0.00     0.168 C 
BRANCH   2   3
HETATM    3  N   UNL     1     -43.317 -54.126  13.523  1.00  0.00    -0.295 N 
HETATM    4  C   UNL     1     -42.945 -54.838  14.681  1.00  0.00     0.329 A 
HETATM    5  N   UNL     1     -41.670 -54.362  15.045  1.00  0.00    -0.302 N 
HETATM    6  O   UNL     1     -43.617 -55.683  15.253  1.00  0.00    -0.246 OA
HETATM    7  C   UNL     1     -40.922 -54.767  16.199  1.00  0.00     0.161 C 
HETATM    8  C   UNL     1     -41.262 -53.394  14.118  1.00  0.00     0.065 A 
HETATM    9  C   UNL     1     -42.279 -53.251  13.169  1.00  0.00     0.066 A 
HETATM   10  C   UNL     1     -40.104 -52.647  14.058  1.00  0.00     0.032 A 
HETATM   11  C   UNL     1     -42.177 -52.364  12.122  1.00  0.00     0.032 A 
HETATM   12  C   UNL     1     -41.006 -51.601  12.041  1.00  0.00     0.002 A 
HETATM   13  C   UNL     1     -39.981 -51.740  13.000  1.00  0.00     0.002 A 
ENDBRANCH   2   3
ENDBRANCH   1   2
BRANCH   1  14
HETATM   14  O   UNL     1     -46.518 -52.965  12.020  1.00  0.00    -0.392 OA
HETATM   15  H   UNL     1     -46.693 -53.862  11.681  1.00  0.00     0.210 HD
ENDBRANCH   1  14
BRANCH   1  16
HETATM   16  C   UNL     1     -46.206 -53.123  14.401  1.00  0.00     0.201 C 
BRANCH  16  17
HETATM   17  O   UNL     1     -45.580 -52.214  15.301  1.00  0.00    -0.384 OA
BRANCH  17  18
HETATM   18  C   UNL     1     -45.116 -51.037  14.640  1.00  0.00     0.209 C 
BRANCH  18  19
HETATM   19  C   UNL     1     -43.761 -50.659  15.174  1.00  0.00     0.004 A 
HETATM   20  C   UNL     1     -43.236 -51.228  16.345  1.00  0.00     0.012 A 
HETATM   21  C   UNL     1     -41.989 -50.828  16.832  1.00  0.00     0.001 A 
HETATM   22  C   UNL     1     -41.257 -49.847  16.164  1.00  0.00     0.003 A 
HETATM   23  C   UNL     1     -41.775 -49.264  15.008  1.00  0.00     0.043 A 
HETATM   24  C   UNL     1     -43.018 -49.669  14.528  1.00  0.00     0.124 A 
HETATM   25  F   UNL     1     -43.504 -49.083  13.424  1.00  0.00    -0.205 F 
ENDBRANCH  18  19
ENDBRANCH  17  18
ENDBRANCH  16  17
ENDBRANCH   1  16
TORSDOF 7
ENDMDL
MODEL 9
REMARK VINA RESULT:      -5.1      1.877      3.133
REMARK  7 active torsions:
REMARK  status: ('A' for Active; 'I' for Inactive)
REMARK    1  A    between atoms: N_5  and  C_6 
REMARK    2  A    between atoms: C_6  and  C_7 
REMARK    3  A    between atoms: C_7  and  O_8 
REMARK    4  A    between atoms: C_7  and  C_9 
REMARK    5  A    between atoms: C_9  and  O_10 
REMARK    6  A    between atoms: O_10  and  C_11 
REMARK    7  A    between atoms: C_11  and  C_12 
ROOT
HETATM    1  C   UNL     1     -41.235 -52.472  12.273  1.00  0.00     0.160 C 
ENDROOT
BRANCH   1   2
HETATM    2  C   UNL     1     -42.755 -52.724  12.268  1.00  0.00     0.168 C 
BRANCH   2   3
HETATM    3  N   UNL     1     -43.296 -52.985  13.579  1.00  0.00    -0.295 N 
HETATM    4  C   UNL     1     -42.702 -53.823  14.545  1.00  0.00     0.329 A 
HETATM    5  N   UNL     1     -43.582 -53.844  15.645  1.00  0.00    -0.302 N 
HETATM    6  O   UNL     1     -41.642 -54.419  14.427  1.00  0.00    -0.246 OA
HETATM    7  C   UNL     1     -43.410 -54.613  16.842  1.00  0.00     0.161 C 
HETATM    8  C   UNL     1     -44.682 -53.022  15.366  1.00  0.00     0.065 A 
HETATM    9  C   UNL     1     -44.502 -52.482  14.088  1.00  0.00     0.066 A 
HETATM   10  C   UNL     1     -45.796 -52.732  16.126  1.00  0.00     0.032 A 
HETATM   11  C   UNL     1     -45.424 -51.629  13.524  1.00  0.00     0.032 A 
HETATM   12  C   UNL     1     -46.559 -51.319  14.283  1.00  0.00     0.002 A 
HETATM   13  C   UNL     1     -46.744 -51.866  15.570  1.00  0.00     0.002 A 
ENDBRANCH   2   3
ENDBRANCH   1   2
BRANCH   1  14
HETATM   14  O   UNL     1     -40.526 -53.402  11.447  1.00  0.00    -0.392 OA
HETATM   15  H   UNL     1     -39.578 -53.173  11.463  1.00  0.00     0.210 HD
ENDBRANCH   1  14
BRANCH   1  16
HETATM   16  C   UNL     1     -40.928 -51.053  11.781  1.00  0.00     0.201 C 
BRANCH  16  17
HETATM   17  O   UNL     1     -41.918 -50.156  12.275  1.00  0.00    -0.384 OA
BRANCH  17  18
HETATM   18  C   UNL     1     -41.407 -49.299  13.295  1.00  0.00     0.209 C 
BRANCH  18  19
HETATM   19  C   UNL     1     -42.052 -49.640  14.611  1.00  0.00     0.004 A 
HETATM   20  C   UNL     1     -43.267 -49.067  15.016  1.00  0.00     0.012 A 
HETATM   21  C   UNL     1     -43.821 -49.380  16.261  1.00  0.00     0.001 A 
HETATM   22  C   UNL     1     -43.162 -50.257  17.121  1.00  0.00     0.003 A 
HETATM   23  C   UNL     1     -41.946 -50.821  16.736  1.00  0.00     0.043 A 
HETATM   24  C   UNL     1     -41.402 -50.506  15.494  1.00  0.00     0.124 A 
HETATM   25  F   UNL     1     -40.224 -51.047  15.150  1.00  0.00    -0.205 F 
ENDBRANCH  18  19
ENDBRANCH  17  18
ENDBRANCH  16  17
ENDBRANCH   1  16
TORSDOF 7
ENDMDL
