MODEL 1
REMARK VINA RESULT:      -6.6      0.000      0.000
REMARK  6 active torsions:
REMARK  status: ('A' for Active; 'I' for Inactive)
REMARK    1  A    between atoms: C_7  and  O_8 
REMARK    2  A    between atoms: O_8  and  C_9 
REMARK    3  A    between atoms: C_9  and  C_10 
REMARK    4  A    between atoms: C_10  and  N_11 
REMARK    5  A    between atoms: N_11  and  C_12 
REMARK    6  A    between atoms: C_15  and  C_19 
REMARK       I    between atoms: C_19  and  N_21 
ROOT
HETATM    1  C   UNL     1     -40.938 -49.466  11.213  1.00  0.00     0.079 A 
HETATM    2  C   UNL     1     -39.869 -48.757  11.747  1.00  0.00     0.043 A 
HETATM    3  C   UNL     1     -39.823 -47.372  11.596  1.00  0.00     0.022 A 
HETATM    4  C   UNL     1     -40.840 -46.712  10.906  1.00  0.00     0.047 A 
HETATM    5  C   UNL     1     -41.829 -47.502  10.349  1.00  0.00     0.106 A 
HETATM    6  N   UNL     1     -41.915 -48.848  10.513  1.00  0.00    -0.356 N 
ATOM      7  HN  UNL     1     -42.694 -49.376  10.119  1.00  0.00     0.166 HD
ENDROOT
BRANCH   1   8
HETATM    8  N   UNL     1     -40.996 -50.842  11.452  1.00  0.00    -0.277 NA
HETATM    9  H   UNL     1     -41.080 -51.351  10.579  1.00  0.00     0.129 HD
BRANCH   8  10
HETATM   10  C   UNL     1     -41.978 -51.239  12.459  1.00  0.00     0.120 C 
BRANCH  10  11
HETATM   11  C   UNL     1     -42.338 -52.722  12.321  1.00  0.00     0.182 C 
BRANCH  11  12
HETATM   12  O   UNL     1     -43.755 -52.902  12.224  1.00  0.00    -0.384 OA
BRANCH  12  13
HETATM   13  C   UNL     1     -44.465 -52.493  13.399  1.00  0.00     0.125 C 
HETATM   14  C   UNL     1     -44.691 -53.662  14.383  1.00  0.00     0.010 C 
HETATM   15  C   UNL     1     -45.297 -54.897  13.699  1.00  0.00     0.012 C 
HETATM   16  C   UNL     1     -45.530 -53.200  15.580  1.00  0.00     0.007 C 
HETATM   17  C   UNL     1     -46.853 -52.567  15.162  1.00  0.00     0.001 C 
HETATM   18  C   UNL     1     -46.649 -51.439  14.156  1.00  0.00     0.002 C 
HETATM   19  C   UNL     1     -45.797 -51.866  12.963  1.00  0.00     0.032 C 
ENDBRANCH  12  13
ENDBRANCH  11  12
ENDBRANCH  10  11
ENDBRANCH   8  10
ENDBRANCH   1   8
BRANCH   4  20
HETATM   20  C   UNL     1     -40.737 -45.249  10.724  1.00  0.00     0.254 C 
HETATM   21  O   UNL     1     -40.012 -44.874   9.802  1.00  0.00    -0.267 OA
HETATM   22  N   UNL     1     -41.381 -44.333  11.556  1.00  0.00    -0.357 N 
HETATM   23  C   UNL     1     -42.267 -44.636  12.674  1.00  0.00     0.152 C 
HETATM   24  C   UNL     1     -41.238 -42.916  11.248  1.00  0.00     0.152 C 
ENDBRANCH   4  20
TORSDOF 6
ENDMDL
MODEL 2
REMARK VINA RESULT:      -6.3      1.422      2.160
REMARK  6 active torsions:
REMARK  status: ('A' for Active; 'I' for Inactive)
REMARK    1  A    between atoms: C_7  and  O_8 
REMARK    2  A    between atoms: O_8  and  C_9 
REMARK    3  A    between atoms: C_9  and  C_10 
REMARK    4  A    between atoms: C_10  and  N_11 
REMARK    5  A    between atoms: N_11  and  C_12 
REMARK    6  A    between atoms: C_15  and  C_19 
REMARK       I    between atoms: C_19  and  N_21 
ROOT
HETATM    1  C   UNL     1     -40.480 -51.053  11.825  1.00  0.00     0.079 A 
HETATM    2  C   UNL     1     -39.262 -50.436  12.084  1.00  0.00     0.043 A 
HETATM    3  C   UNL     1     -39.187 -49.044  12.084  1.00  0.00     0.022 A 
HETATM    4  C   UNL     1     -40.327 -48.284  11.818  1.00  0.00     0.047 A 
HETATM    5  C   UNL     1     -41.479 -48.980  11.503  1.00  0.00     0.106 A 
HETATM    6  N   UNL     1     -41.587 -50.334  11.531  1.00  0.00    -0.356 N 
ATOM      7  HN  UNL     1     -42.476 -50.795  11.336  1.00  0.00     0.166 HD
ENDROOT
BRANCH   1   8
HETATM    8  N   UNL     1     -40.540 -52.447  11.911  1.00  0.00    -0.277 NA
HETATM    9  H   UNL     1     -41.019 -52.833  11.106  1.00  0.00     0.129 HD
BRANCH   8  10
HETATM   10  C   UNL     1     -41.041 -52.951  13.189  1.00  0.00     0.120 C 
BRANCH  10  11
HETATM   11  C   UNL     1     -42.418 -53.600  13.020  1.00  0.00     0.182 C 
BRANCH  11  12
HETATM   12  O   UNL     1     -43.318 -52.730  12.325  1.00  0.00    -0.384 OA
BRANCH  12  13
HETATM   13  C   UNL     1     -44.662 -52.789  12.814  1.00  0.00     0.125 C 
HETATM   14  C   UNL     1     -45.204 -51.397  13.206  1.00  0.00     0.010 C 
HETATM   15  C   UNL     1     -44.246 -50.634  14.134  1.00  0.00     0.012 C 
HETATM   16  C   UNL     1     -46.609 -51.518  13.807  1.00  0.00     0.007 C 
HETATM   17  C   UNL     1     -46.663 -52.484  14.987  1.00  0.00     0.001 C 
HETATM   18  C   UNL     1     -46.091 -53.851  14.627  1.00  0.00     0.002 C 
HETATM   19  C   UNL     1     -44.699 -53.757  14.006  1.00  0.00     0.032 C 
ENDBRANCH  12  13
ENDBRANCH  11  12
ENDBRANCH  10  11
ENDBRANCH   8  10
ENDBRANCH   1   8
BRANCH   4  20
HETATM   20  C   UNL     1     -40.202 -46.812  11.782  1.00  0.00     0.254 C 
HETATM   21  O   UNL     1     -39.961 -46.323  10.678  1.00  0.00    -0.267 OA
HETATM   22  N   UNL     1     -40.309 -46.012  12.919  1.00  0.00    -0.357 N 
HETATM   23  C   UNL     1     -40.596 -46.455  14.278  1.00  0.00     0.152 C 
HETATM   24  C   UNL     1     -40.212 -44.569  12.748  1.00  0.00     0.152 C 
ENDBRANCH   4  20
TORSDOF 6
ENDMDL
MODEL 3
REMARK VINA RESULT:      -6.3      1.211      2.049
REMARK  6 active torsions:
REMARK  status: ('A' for Active; 'I' for Inactive)
REMARK    1  A    between atoms: C_7  and  O_8 
REMARK    2  A    between atoms: O_8  and  C_9 
REMARK    3  A    between atoms: C_9  and  C_10 
REMARK    4  A    between atoms: C_10  and  N_11 
REMARK    5  A    between atoms: N_11  and  C_12 
REMARK    6  A    between atoms: C_15  and  C_19 
REMARK       I    between atoms: C_19  and  N_21 
ROOT
HETATM    1  C   UNL     1     -40.605 -49.257  11.032  1.00  0.00     0.079 A 
HETATM    2  C   UNL     1     -39.700 -48.470  11.734  1.00  0.00     0.043 A 
HETATM    3  C   UNL     1     -39.837 -47.083  11.712  1.00  0.00     0.022 A 
HETATM    4  C   UNL     1     -40.871 -46.497  10.982  1.00  0.00     0.047 A 
HETATM    5  C   UNL     1     -41.684 -47.350  10.258  1.00  0.00     0.106 A 
HETATM    6  N   UNL     1     -41.593 -48.705  10.292  1.00  0.00    -0.356 N 
ATOM      7  HN  UNL     1     -42.250 -49.289   9.775  1.00  0.00     0.166 HD
ENDROOT
BRANCH   1   8
HETATM    8  N   UNL     1     -40.489 -50.645  11.141  1.00  0.00    -0.277 NA
HETATM    9  H   UNL     1     -41.372 -51.094  10.925  1.00  0.00     0.129 HD
BRANCH   8  10
HETATM   10  C   UNL     1     -39.889 -51.104  12.393  1.00  0.00     0.120 C 
BRANCH  10  11
HETATM   11  C   UNL     1     -40.685 -52.270  12.988  1.00  0.00     0.182 C 
BRANCH  11  12
HETATM   12  O   UNL     1     -41.895 -52.496  12.256  1.00  0.00    -0.384 OA
BRANCH  12  13
HETATM   13  C   UNL     1     -42.672 -53.588  12.761  1.00  0.00     0.125 C 
HETATM   14  C   UNL     1     -44.190 -53.325  12.649  1.00  0.00     0.010 C 
HETATM   15  C   UNL     1     -44.595 -51.963  13.231  1.00  0.00     0.012 C 
HETATM   16  C   UNL     1     -44.981 -54.476  13.281  1.00  0.00     0.007 C 
HETATM   17  C   UNL     1     -44.573 -54.747  14.726  1.00  0.00     0.001 C 
HETATM   18  C   UNL     1     -43.069 -54.965  14.858  1.00  0.00     0.002 C 
HETATM   19  C   UNL     1     -42.256 -53.842  14.217  1.00  0.00     0.032 C 
ENDBRANCH  12  13
ENDBRANCH  11  12
ENDBRANCH  10  11
ENDBRANCH   8  10
ENDBRANCH   1   8
BRANCH   4  20
HETATM   20  C   UNL     1     -40.960 -45.023  10.942  1.00  0.00     0.254 C 
HETATM   21  O   UNL     1     -40.319 -44.472  10.046  1.00  0.00    -0.267 OA
HETATM   22  N   UNL     1     -41.687 -44.280  11.872  1.00  0.00    -0.357 N 
HETATM   23  C   UNL     1     -42.491 -44.799  12.972  1.00  0.00     0.152 C 
HETATM   24  C   UNL     1     -41.735 -42.834  11.701  1.00  0.00     0.152 C 
ENDBRANCH   4  20
TORSDOF 6
ENDMDL
MODEL 4
REMARK VINA RESULT:      -6.2      1.726      2.137
REMARK  6 active torsions:
REMARK  status: ('A' for Active; 'I' for Inactive)
REMARK    1  A    between atoms: C_7  and  O_8 
REMARK    2  A    between atoms: O_8  and  C_9 
REMARK    3  A    between atoms: C_9  and  C_10 
REMARK    4  A    between atoms: C_10  and  N_11 
REMARK    5  A    between atoms: N_11  and  C_12 
REMARK    6  A    between atoms: C_15  and  C_19 
REMARK       I    between atoms: C_19  and  N_21 
ROOT
HETATM    1  C   UNL     1     -40.921 -50.981  11.792  1.00  0.00     0.079 A 
HETATM    2  C   UNL     1     -41.784 -50.122  12.462  1.00  0.00     0.043 A 
HETATM    3  C   UNL     1     -41.375 -48.819  12.740  1.00  0.00     0.022 A 
HETATM    4  C   UNL     1     -40.105 -48.391  12.353  1.00  0.00     0.047 A 
HETATM    5  C   UNL     1     -39.286 -49.330  11.754  1.00  0.00     0.106 A 
HETATM    6  N   UNL     1     -39.674 -50.594  11.440  1.00  0.00    -0.356 N 
ATOM      7  HN  UNL     1     -39.044 -51.232  10.954  1.00  0.00     0.166 HD
ENDROOT
BRANCH   1   8
HETATM    8  N   UNL     1     -41.391 -52.254  11.458  1.00  0.00    -0.277 NA
HETATM    9  H   UNL     1     -42.391 -52.231  11.292  1.00  0.00     0.129 HD
BRANCH   8  10
HETATM   10  C   UNL     1     -40.974 -53.312  12.378  1.00  0.00     0.120 C 
BRANCH  10  11
HETATM   11  C   UNL     1     -42.171 -53.863  13.159  1.00  0.00     0.182 C 
BRANCH  11  12
HETATM   12  O   UNL     1     -43.402 -53.319  12.671  1.00  0.00    -0.384 OA
BRANCH  12  13
HETATM   13  C   UNL     1     -44.257 -52.821  13.706  1.00  0.00     0.125 C 
HETATM   14  C   UNL     1     -44.830 -53.954  14.586  1.00  0.00     0.010 C 
HETATM   15  C   UNL     1     -45.462 -55.080  13.756  1.00  0.00     0.012 C 
HETATM   16  C   UNL     1     -45.807 -53.385  15.621  1.00  0.00     0.007 C 
HETATM   17  C   UNL     1     -46.924 -52.562  14.986  1.00  0.00     0.001 C 
HETATM   18  C   UNL     1     -46.374 -51.467  14.078  1.00  0.00     0.002 C 
HETATM   19  C   UNL     1     -45.379 -52.003  13.050  1.00  0.00     0.032 C 
ENDBRANCH  12  13
ENDBRANCH  11  12
ENDBRANCH  10  11
ENDBRANCH   8  10
ENDBRANCH   1   8
BRANCH   4  20
HETATM   20  C   UNL     1     -39.686 -47.018  12.703  1.00  0.00     0.254 C 
HETATM   21  O   UNL     1     -39.082 -46.898  13.770  1.00  0.00    -0.267 OA
HETATM   22  N   UNL     1     -39.977 -45.908  11.909  1.00  0.00    -0.357 N 
HETATM   23  C   UNL     1     -40.674 -45.906  10.629  1.00  0.00     0.152 C 
HETATM   24  C   UNL     1     -39.471 -44.611  12.339  1.00  0.00     0.152 C 
ENDBRANCH   4  20
TORSDOF 6
ENDMDL
MODEL 5
REMARK VINA RESULT:      -6.2      1.819      3.358
REMARK  6 active torsions:
REMARK  status: ('A' for Active; 'I' for Inactive)
REMARK    1  A    between atoms: C_7  and  O_8 
REMARK    2  A    between atoms: O_8  and  C_9 
REMARK    3  A    between atoms: C_9  and  C_10 
REMARK    4  A    between atoms: C_10  and  N_11 
REMARK    5  A    between atoms: N_11  and  C_12 
REMARK    6  A    between atoms: C_15  and  C_19 
REMARK       I    between atoms: C_19  and  N_21 
ROOT
HETATM    1  C   UNL     1     -42.177 -52.295  12.355  1.00  0.00     0.079 A 
HETATM    2  C   UNL     1     -42.919 -51.317  13.005  1.00  0.00     0.043 A 
HETATM    3  C   UNL     1     -42.598 -49.974  12.814  1.00  0.00     0.022 A 
HETATM    4  C   UNL     1     -41.534 -49.623  11.983  1.00  0.00     0.047 A 
HETATM    5  C   UNL     1     -40.806 -50.661  11.432  1.00  0.00     0.106 A 
HETATM    6  N   UNL     1     -41.121 -51.976  11.573  1.00  0.00    -0.356 N 
ATOM      7  HN  UNL     1     -40.577 -52.700  11.104  1.00  0.00     0.166 HD
ENDROOT
BRANCH   1   8
HETATM    8  N   UNL     1     -42.575 -53.626  12.503  1.00  0.00    -0.277 NA
HETATM    9  H   UNL     1     -42.097 -54.217  11.833  1.00  0.00     0.129 HD
BRANCH   8  10
HETATM   10  C   UNL     1     -44.023 -53.824  12.530  1.00  0.00     0.120 C 
BRANCH  10  11
HETATM   11  C   UNL     1     -44.462 -54.496  13.834  1.00  0.00     0.182 C 
BRANCH  11  12
HETATM   12  O   UNL     1     -45.848 -54.252  14.100  1.00  0.00    -0.384 OA
BRANCH  12  13
HETATM   13  C   UNL     1     -46.073 -53.423  15.246  1.00  0.00     0.125 C 
HETATM   14  C   UNL     1     -47.002 -52.230  14.931  1.00  0.00     0.010 C 
HETATM   15  C   UNL     1     -46.554 -51.449  13.686  1.00  0.00     0.012 C 
HETATM   16  C   UNL     1     -47.142 -51.322  16.158  1.00  0.00     0.007 C 
HETATM   17  C   UNL     1     -45.796 -50.846  16.695  1.00  0.00     0.001 C 
HETATM   18  C   UNL     1     -44.852 -52.011  16.969  1.00  0.00     0.002 C 
HETATM   19  C   UNL     1     -44.710 -52.945  15.769  1.00  0.00     0.032 C 
ENDBRANCH  12  13
ENDBRANCH  11  12
ENDBRANCH  10  11
ENDBRANCH   8  10
ENDBRANCH   1   8
BRANCH   4  20
HETATM   20  C   UNL     1     -41.191 -48.193  11.840  1.00  0.00     0.254 C 
HETATM   21  O   UNL     1     -40.445 -47.731  12.704  1.00  0.00    -0.267 OA
HETATM   22  N   UNL     1     -41.699 -47.389  10.819  1.00  0.00    -0.357 N 
HETATM   23  C   UNL     1     -42.579 -47.803   9.733  1.00  0.00     0.152 C 
HETATM   24  C   UNL     1     -41.252 -46.004  10.757  1.00  0.00     0.152 C 
ENDBRANCH   4  20
TORSDOF 6
ENDMDL
MODEL 6
REMARK VINA RESULT:      -6.0      4.609      7.606
REMARK  6 active torsions:
REMARK  status: ('A' for Active; 'I' for Inactive)
REMARK    1  A    between atoms: C_7  and  O_8 
REMARK    2  A    between atoms: O_8  and  C_9 
REMARK    3  A    between atoms: C_9  and  C_10 
REMARK    4  A    between atoms: C_10  and  N_11 
REMARK    5  A    between atoms: N_11  and  C_12 
REMARK    6  A    between atoms: C_15  and  C_19 
REMARK       I    between atoms: C_19  and  N_21 
ROOT
HETATM    1  C   UNL     1     -40.765 -54.224  13.447  1.00  0.00     0.079 A 
HETATM    2  C   UNL     1     -41.520 -54.499  14.581  1.00  0.00     0.043 A 
HETATM    3  C   UNL     1     -40.892 -55.013  15.713  1.00  0.00     0.022 A 
HETATM    4  C   UNL     1     -39.518 -55.254  15.699  1.00  0.00     0.047 A 
HETATM    5  C   UNL     1     -38.856 -55.018  14.509  1.00  0.00     0.106 A 
HETATM    6  N   UNL     1     -39.439 -54.484  13.403  1.00  0.00    -0.356 N 
ATOM      7  HN  UNL     1     -38.892 -54.285  12.565  1.00  0.00     0.166 HD
ENDROOT
BRANCH   1   8
HETATM    8  N   UNL     1     -41.410 -53.634  12.357  1.00  0.00    -0.277 NA
HETATM    9  H   UNL     1     -41.187 -54.130  11.501  1.00  0.00     0.129 HD
BRANCH   8  10
HETATM   10  C   UNL     1     -41.229 -52.186  12.259  1.00  0.00     0.120 C 
BRANCH  10  11
HETATM   11  C   UNL     1     -42.516 -51.446  12.638  1.00  0.00     0.182 C 
BRANCH  11  12
HETATM   12  O   UNL     1     -43.641 -52.332  12.639  1.00  0.00    -0.384 OA
BRANCH  12  13
HETATM   13  C   UNL     1     -44.501 -52.162  13.771  1.00  0.00     0.125 C 
HETATM   14  C   UNL     1     -44.762 -53.493  14.510  1.00  0.00     0.010 C 
HETATM   15  C   UNL     1     -45.210 -54.615  13.561  1.00  0.00     0.012 C 
HETATM   16  C   UNL     1     -45.757 -53.282  15.658  1.00  0.00     0.007 C 
HETATM   17  C   UNL     1     -47.062 -52.643  15.195  1.00  0.00     0.001 C 
HETATM   18  C   UNL     1     -46.817 -51.349  14.425  1.00  0.00     0.002 C 
HETATM   19  C   UNL     1     -45.812 -51.526  13.288  1.00  0.00     0.032 C 
ENDBRANCH  12  13
ENDBRANCH  11  12
ENDBRANCH  10  11
ENDBRANCH   8  10
ENDBRANCH   1   8
BRANCH   4  20
HETATM   20  C   UNL     1     -38.892 -55.843  16.902  1.00  0.00     0.254 C 
HETATM   21  O   UNL     1     -39.005 -57.063  17.022  1.00  0.00    -0.267 OA
HETATM   22  N   UNL     1     -38.241 -55.079  17.871  1.00  0.00    -0.357 N 
HETATM   23  C   UNL     1     -38.030 -53.636  17.852  1.00  0.00     0.152 C 
HETATM   24  C   UNL     1     -37.625 -55.779  18.989  1.00  0.00     0.152 C 
ENDBRANCH   4  20
TORSDOF 6
ENDMDL
MODEL 7
REMARK VINA RESULT:      -5.9      1.598      2.758
REMARK  6 active torsions:
REMARK  status: ('A' for Active; 'I' for Inactive)
REMARK    1  A    between atoms: C_7  and  O_8 
REMARK    2  A    between atoms: O_8  and  C_9 
REMARK    3  A    between atoms: C_9  and  C_10 
REMARK    4  A    between atoms: C_10  and  N_11 
REMARK    5  A    between atoms: N_11  and  C_12 
REMARK    6  A    between atoms: C_15  and  C_19 
REMARK       I    between atoms: C_19  and  N_21 
ROOT
HETATM    1  C   UNL     1     -40.682 -51.634  13.204  1.00  0.00     0.079 A 
HETATM    2  C   UNL     1     -40.769 -50.505  14.011  1.00  0.00     0.043 A 
HETATM    3  C   UNL     1     -40.815 -49.244  13.420  1.00  0.00     0.022 A 
HETATM    4  C   UNL     1     -40.765 -49.123  12.032  1.00  0.00     0.047 A 
HETATM    5  C   UNL     1     -40.609 -50.291  11.309  1.00  0.00     0.106 A 
HETATM    6  N   UNL     1     -40.598 -51.534  11.859  1.00  0.00    -0.356 N 
ATOM      7  HN  UNL     1     -40.529 -52.366  11.274  1.00  0.00     0.166 HD
ENDROOT
BRANCH   1   8
HETATM    8  N   UNL     1     -40.719 -52.886  13.823  1.00  0.00    -0.277 NA
HETATM    9  H   UNL     1     -39.796 -53.150  14.148  1.00  0.00     0.129 HD
BRANCH   8  10
HETATM   10  C   UNL     1     -41.384 -53.927  13.040  1.00  0.00     0.120 C 
BRANCH  10  11
HETATM   11  C   UNL     1     -42.836 -54.111  13.491  1.00  0.00     0.182 C 
BRANCH  11  12
HETATM   12  O   UNL     1     -43.741 -53.445  12.604  1.00  0.00    -0.384 OA
BRANCH  12  13
HETATM   13  C   UNL     1     -45.020 -53.177  13.188  1.00  0.00     0.125 C 
HETATM   14  C   UNL     1     -45.428 -51.694  13.048  1.00  0.00     0.010 C 
HETATM   15  C   UNL     1     -44.325 -50.734  13.519  1.00  0.00     0.012 C 
HETATM   16  C   UNL     1     -46.758 -51.434  13.764  1.00  0.00     0.007 C 
HETATM   17  C   UNL     1     -46.733 -51.863  15.227  1.00  0.00     0.001 C 
HETATM   18  C   UNL     1     -46.289 -53.314  15.384  1.00  0.00     0.002 C 
HETATM   19  C   UNL     1     -44.976 -53.606  14.662  1.00  0.00     0.032 C 
ENDBRANCH  12  13
ENDBRANCH  11  12
ENDBRANCH  10  11
ENDBRANCH   8  10
ENDBRANCH   1   8
BRANCH   4  20
HETATM   20  C   UNL     1     -40.770 -47.768  11.440  1.00  0.00     0.254 C 
HETATM   21  O   UNL     1     -39.681 -47.193  11.411  1.00  0.00    -0.267 OA
HETATM   22  N   UNL     1     -41.928 -47.147  10.973  1.00  0.00    -0.357 N 
HETATM   23  C   UNL     1     -43.273 -47.710  10.941  1.00  0.00     0.152 C 
HETATM   24  C   UNL     1     -41.798 -45.827  10.370  1.00  0.00     0.152 C 
ENDBRANCH   4  20
TORSDOF 6
ENDMDL
MODEL 8
REMARK VINA RESULT:      -5.9      1.308      1.683
REMARK  6 active torsions:
REMARK  status: ('A' for Active; 'I' for Inactive)
REMARK    1  A    between atoms: C_7  and  O_8 
REMARK    2  A    between atoms: O_8  and  C_9 
REMARK    3  A    between atoms: C_9  and  C_10 
REMARK    4  A    between atoms: C_10  and  N_11 
REMARK    5  A    between atoms: N_11  and  C_12 
REMARK    6  A    between atoms: C_15  and  C_19 
REMARK       I    between atoms: C_19  and  N_21 
ROOT
HETATM    1  C   UNL     1     -41.945 -48.099  11.331  1.00  0.00     0.079 A 
HETATM    2  C   UNL     1     -42.582 -47.353  12.316  1.00  0.00     0.043 A 
HETATM    3  C   UNL     1     -42.477 -45.964  12.297  1.00  0.00     0.022 A 
HETATM    4  C   UNL     1     -41.731 -45.335  11.300  1.00  0.00     0.047 A 
HETATM    5  C   UNL     1     -41.074 -46.155  10.402  1.00  0.00     0.106 A 
HETATM    6  N   UNL     1     -41.189 -47.509  10.378  1.00  0.00    -0.356 N 
ATOM      7  HN  UNL     1     -40.720 -48.064   9.662  1.00  0.00     0.166 HD
ENDROOT
BRANCH   1   8
HETATM    8  N   UNL     1     -42.135 -49.483  11.332  1.00  0.00    -0.277 NA
HETATM    9  H   UNL     1     -42.776 -49.755  10.595  1.00  0.00     0.129 HD
BRANCH   8  10
HETATM   10  C   UNL     1     -42.474 -50.046  12.639  1.00  0.00     0.120 C 
BRANCH  10  11
HETATM   11  C   UNL     1     -42.289 -51.566  12.647  1.00  0.00     0.182 C 
BRANCH  11  12
HETATM   12  O   UNL     1     -43.547 -52.240  12.529  1.00  0.00    -0.384 OA
BRANCH  12  13
HETATM   13  C   UNL     1     -44.400 -52.061  13.666  1.00  0.00     0.125 C 
HETATM   14  C   UNL     1     -44.546 -53.355  14.496  1.00  0.00     0.010 C 
HETATM   15  C   UNL     1     -44.920 -54.569  13.633  1.00  0.00     0.012 C 
HETATM   16  C   UNL     1     -45.536 -53.143  15.648  1.00  0.00     0.007 C 
HETATM   17  C   UNL     1     -46.893 -52.638  15.172  1.00  0.00     0.001 C 
HETATM   18  C   UNL     1     -46.761 -51.384  14.313  1.00  0.00     0.002 C 
HETATM   19  C   UNL     1     -45.764 -51.561  13.169  1.00  0.00     0.032 C 
ENDBRANCH  12  13
ENDBRANCH  11  12
ENDBRANCH  10  11
ENDBRANCH   8  10
ENDBRANCH   1   8
BRANCH   4  20
HETATM   20  C   UNL     1     -41.603 -43.863  11.336  1.00  0.00     0.254 C 
HETATM   21  O   UNL     1     -42.438 -43.237  10.681  1.00  0.00    -0.267 OA
HETATM   22  N   UNL     1     -40.588 -43.205  12.030  1.00  0.00    -0.357 N 
HETATM   23  C   UNL     1     -39.545 -43.817  12.845  1.00  0.00     0.152 C 
HETATM   24  C   UNL     1     -40.593 -41.749  12.027  1.00  0.00     0.152 C 
ENDBRANCH   4  20
TORSDOF 6
ENDMDL
MODEL 9
REMARK VINA RESULT:      -5.9      2.408      3.485
REMARK  6 active torsions:
REMARK  status: ('A' for Active; 'I' for Inactive)
REMARK    1  A    between atoms: C_7  and  O_8 
REMARK    2  A    between atoms: O_8  and  C_9 
REMARK    3  A    between atoms: C_9  and  C_10 
REMARK    4  A    between atoms: C_10  and  N_11 
REMARK    5  A    between atoms: N_11  and  C_12 
REMARK    6  A    between atoms: C_15  and  C_19 
REMARK       I    between atoms: C_19  and  N_21 
ROOT
HETATM    1  C   UNL     1     -39.074 -50.370  13.036  1.00  0.00     0.079 A 
HETATM    2  C   UNL     1     -39.676 -49.342  13.751  1.00  0.00     0.043 A 
HETATM    3  C   UNL     1     -40.606 -48.520  13.117  1.00  0.00     0.022 A 
HETATM    4  C   UNL     1     -40.917 -48.728  11.773  1.00  0.00     0.047 A 
HETATM    5  C   UNL     1     -40.221 -49.727  11.119  1.00  0.00     0.106 A 
HETATM    6  N   UNL     1     -39.338 -50.565  11.724  1.00  0.00    -0.356 N 
ATOM      7  HN  UNL     1     -38.887 -51.318  11.204  1.00  0.00     0.166 HD
ENDROOT
BRANCH   1   8
HETATM    8  N   UNL     1     -38.208 -51.226  13.722  1.00  0.00    -0.277 NA
HETATM    9  H   UNL     1     -37.605 -51.717  13.072  1.00  0.00     0.129 HD
BRANCH   8  10
HETATM   10  C   UNL     1     -38.867 -52.105  14.687  1.00  0.00     0.120 C 
BRANCH  10  11
HETATM   11  C   UNL     1     -39.207 -53.458  14.054  1.00  0.00     0.182 C 
BRANCH  11  12
HETATM   12  O   UNL     1     -40.132 -53.304  12.971  1.00  0.00    -0.384 OA
BRANCH  12  13
HETATM   13  C   UNL     1     -41.361 -54.012  13.165  1.00  0.00     0.125 C 
HETATM   14  C   UNL     1     -42.583 -53.207  12.668  1.00  0.00     0.010 C 
HETATM   15  C   UNL     1     -42.606 -51.774  13.219  1.00  0.00     0.012 C 
HETATM   16  C   UNL     1     -43.882 -53.961  12.977  1.00  0.00     0.007 C 
HETATM   17  C   UNL     1     -44.020 -54.317  14.453  1.00  0.00     0.001 C 
HETATM   18  C   UNL     1     -42.800 -55.074  14.970  1.00  0.00     0.002 C 
HETATM   19  C   UNL     1     -41.489 -54.355  14.656  1.00  0.00     0.032 C 
ENDBRANCH  12  13
ENDBRANCH  11  12
ENDBRANCH  10  11
ENDBRANCH   8  10
ENDBRANCH   1   8
BRANCH   4  20
HETATM   20  C   UNL     1     -41.872 -47.809  11.119  1.00  0.00     0.254 C 
HETATM   21  O   UNL     1     -43.024 -48.228  11.002  1.00  0.00    -0.267 OA
HETATM   22  N   UNL     1     -41.505 -46.557  10.625  1.00  0.00    -0.357 N 
HETATM   23  C   UNL     1     -40.188 -45.937  10.701  1.00  0.00     0.152 C 
HETATM   24  C   UNL     1     -42.547 -45.723  10.041  1.00  0.00     0.152 C 
ENDBRANCH   4  20
TORSDOF 6
ENDMDL
