MODEL 1
REMARK VINA RESULT:      -6.3      0.000      0.000
REMARK  5 active torsions:
REMARK  status: ('A' for Active; 'I' for Inactive)
REMARK    1  A    between atoms: C_2  and  C_5 
REMARK    2  A    between atoms: C_5  and  C_6 
REMARK       I    between atoms: C_6  and  N_8 
REMARK    3  A    between atoms: N_8  and  C_9 
REMARK    4  A    between atoms: C_9  and  C_10 
REMARK    5  A    between atoms: C_15  and  N_17 
ROOT
HETATM    1  C   UNL     1     -40.761 -48.915  11.350  1.00  0.00    -0.036 A 
HETATM    2  C   UNL     1     -39.379 -48.939  11.512  1.00  0.00     0.026 A 
HETATM    3  C   UNL     1     -38.807 -50.097  11.996  1.00  0.00     0.090 A 
HETATM    4  N   UNL     1     -39.507 -51.209  12.307  1.00  0.00    -0.352 N 
ATOM      5  HN  UNL     1     -39.025 -52.044  12.642  1.00  0.00     0.166 HD
HETATM    6  C   UNL     1     -40.851 -51.204  12.171  1.00  0.00     0.103 A 
HETATM    7  C   UNL     1     -41.493 -50.063  11.691  1.00  0.00     0.057 A 
ENDROOT
BRANCH   1   8
HETATM    8  C   UNL     1     -41.447 -47.719  10.760  1.00  0.00     0.161 C 
BRANCH   8   9
HETATM    9  N   UNL     1     -42.510 -48.127   9.869  1.00  0.00    -0.357 N 
HETATM   10  C   UNL     1     -43.142 -47.205   9.069  1.00  0.00     0.226 C 
HETATM   11  O   UNL     1     -42.877 -46.007   9.093  1.00  0.00    -0.273 OA
HETATM   12  H   UNL     1     -42.690 -49.119   9.767  1.00  0.00     0.162 HD
BRANCH  10  13
HETATM   13  C   UNL     1     -44.200 -47.761   8.167  1.00  0.00     0.220 C 
BRANCH  13  14
HETATM   14  C   UNL     1     -45.551 -47.635   8.811  1.00  0.00     0.396 C 
HETATM   15  F   UNL     1     -46.492 -48.441   8.279  1.00  0.00    -0.171 F 
HETATM   16  F   UNL     1     -46.008 -46.364   8.734  1.00  0.00    -0.171 F 
HETATM   17  F   UNL     1     -45.465 -47.946  10.128  1.00  0.00    -0.171 F 
ENDBRANCH  13  14
ENDBRANCH  10  13
ENDBRANCH   8   9
ENDBRANCH   1   8
BRANCH   6  18
HETATM   18  N   UNL     1     -41.535 -52.341  12.518  1.00  0.00    -0.363 N 
HETATM   19  C   UNL     1     -42.989 -52.443  12.642  1.00  0.00     0.150 C 
HETATM   20  C   UNL     1     -43.350 -53.196  13.936  1.00  0.00     0.187 C 
HETATM   21  O   UNL     1     -42.682 -54.463  14.030  1.00  0.00    -0.388 OA
HETATM   22  C   UNL     1     -41.256 -54.271  14.009  1.00  0.00     0.187 C 
HETATM   23  C   UNL     1     -40.805 -53.602  12.705  1.00  0.00     0.150 C 
ENDBRANCH   6  18
TORSDOF 5
ENDMDL
MODEL 2
REMARK VINA RESULT:      -6.3      1.957      2.935
REMARK  5 active torsions:
REMARK  status: ('A' for Active; 'I' for Inactive)
REMARK    1  A    between atoms: C_2  and  C_5 
REMARK    2  A    between atoms: C_5  and  C_6 
REMARK       I    between atoms: C_6  and  N_8 
REMARK    3  A    between atoms: N_8  and  C_9 
REMARK    4  A    between atoms: C_9  and  C_10 
REMARK    5  A    between atoms: C_15  and  N_17 
ROOT
HETATM    1  C   UNL     1     -40.590 -46.315  11.480  1.00  0.00    -0.036 A 
HETATM    2  C   UNL     1     -40.003 -45.592  12.514  1.00  0.00     0.026 A 
HETATM    3  C   UNL     1     -39.232 -46.282  13.426  1.00  0.00     0.090 A 
HETATM    4  N   UNL     1     -39.004 -47.612  13.365  1.00  0.00    -0.352 N 
ATOM      5  HN  UNL     1     -38.406 -48.064  14.057  1.00  0.00     0.166 HD
HETATM    6  C   UNL     1     -39.574 -48.336  12.377  1.00  0.00     0.103 A 
HETATM    7  C   UNL     1     -40.370 -47.700  11.425  1.00  0.00     0.057 A 
ENDROOT
BRANCH   1   8
HETATM    8  C   UNL     1     -41.381 -45.624  10.409  1.00  0.00     0.161 C 
BRANCH   8   9
HETATM    9  N   UNL     1     -42.202 -46.571   9.688  1.00  0.00    -0.357 N 
HETATM   10  C   UNL     1     -43.298 -46.144   8.977  1.00  0.00     0.226 C 
HETATM   11  O   UNL     1     -43.658 -44.971   8.946  1.00  0.00    -0.273 OA
HETATM   12  H   UNL     1     -41.880 -47.529   9.628  1.00  0.00     0.162 HD
BRANCH  10  13
HETATM   13  C   UNL     1     -44.044 -47.217   8.247  1.00  0.00     0.220 C 
BRANCH  13  14
HETATM   14  C   UNL     1     -45.354 -47.495   8.927  1.00  0.00     0.396 C 
HETATM   15  F   UNL     1     -46.254 -46.497   8.818  1.00  0.00    -0.171 F 
HETATM   16  F   UNL     1     -45.173 -47.742  10.244  1.00  0.00    -0.171 F 
HETATM   17  F   UNL     1     -45.926 -48.601   8.391  1.00  0.00    -0.171 F 
ENDBRANCH  13  14
ENDBRANCH  10  13
ENDBRANCH   8   9
ENDBRANCH   1   8
BRANCH   6  18
HETATM   18  N   UNL     1     -39.342 -49.688  12.357  1.00  0.00    -0.363 N 
HETATM   19  C   UNL     1     -40.304 -50.700  11.920  1.00  0.00     0.150 C 
HETATM   20  C   UNL     1     -40.323 -51.867  12.925  1.00  0.00     0.187 C 
HETATM   21  O   UNL     1     -39.011 -52.397  13.166  1.00  0.00    -0.388 OA
HETATM   22  C   UNL     1     -38.154 -51.369  13.694  1.00  0.00     0.187 C 
HETATM   23  C   UNL     1     -38.012 -50.204  12.708  1.00  0.00     0.150 C 
ENDBRANCH   6  18
TORSDOF 5
ENDMDL
MODEL 3
REMARK VINA RESULT:      -6.2      2.179      3.145
REMARK  5 active torsions:
REMARK  status: ('A' for Active; 'I' for Inactive)
REMARK    1  A    between atoms: C_2  and  C_5 
REMARK    2  A    between atoms: C_5  and  C_6 
REMARK       I    between atoms: C_6  and  N_8 
REMARK    3  A    between atoms: N_8  and  C_9 
REMARK    4  A    between atoms: C_9  and  C_10 
REMARK    5  A    between atoms: C_15  and  N_17 
ROOT
HETATM    1  C   UNL     1     -41.542 -51.359  12.197  1.00  0.00    -0.036 A 
HETATM    2  C   UNL     1     -40.569 -52.350  12.272  1.00  0.00     0.026 A 
HETATM    3  C   UNL     1     -40.967 -53.617  12.644  1.00  0.00     0.090 A 
HETATM    4  N   UNL     1     -42.245 -53.953  12.925  1.00  0.00    -0.352 N 
ATOM      5  HN  UNL     1     -42.483 -54.913  13.175  1.00  0.00     0.166 HD
HETATM    6  C   UNL     1     -43.205 -53.003  12.872  1.00  0.00     0.103 A 
HETATM    7  C   UNL     1     -42.868 -51.700  12.507  1.00  0.00     0.057 A 
ENDROOT
BRANCH   1   8
HETATM    8  C   UNL     1     -41.199 -49.976  11.729  1.00  0.00     0.161 C 
BRANCH   8   9
HETATM    9  N   UNL     1     -42.384 -49.277  11.286  1.00  0.00    -0.357 N 
HETATM   10  C   UNL     1     -42.285 -48.036  10.704  1.00  0.00     0.226 C 
HETATM   11  O   UNL     1     -41.218 -47.445  10.568  1.00  0.00    -0.273 OA
HETATM   12  H   UNL     1     -43.265 -49.776  11.308  1.00  0.00     0.162 HD
BRANCH  10  13
HETATM   13  C   UNL     1     -43.581 -47.434  10.257  1.00  0.00     0.220 C 
BRANCH  13  14
HETATM   14  C   UNL     1     -43.689 -47.481   8.760  1.00  0.00     0.396 C 
HETATM   15  F   UNL     1     -42.756 -48.251   8.164  1.00  0.00    -0.171 F 
HETATM   16  F   UNL     1     -43.597 -46.241   8.229  1.00  0.00    -0.171 F 
HETATM   17  F   UNL     1     -44.897 -47.978   8.399  1.00  0.00    -0.171 F 
ENDBRANCH  13  14
ENDBRANCH  10  13
ENDBRANCH   8   9
ENDBRANCH   1   8
BRANCH   6  18
HETATM   18  N   UNL     1     -44.488 -53.370  13.186  1.00  0.00    -0.363 N 
HETATM   19  C   UNL     1     -45.696 -52.680  12.730  1.00  0.00     0.150 C 
HETATM   20  C   UNL     1     -46.668 -52.499  13.910  1.00  0.00     0.187 C 
HETATM   21  O   UNL     1     -46.941 -53.737  14.583  1.00  0.00    -0.388 OA
HETATM   22  C   UNL     1     -45.720 -54.299  15.096  1.00  0.00     0.187 C 
HETATM   23  C   UNL     1     -44.727 -54.592  13.965  1.00  0.00     0.150 C 
ENDBRANCH   6  18
TORSDOF 5
ENDMDL
MODEL 4
REMARK VINA RESULT:      -6.2      1.311      2.040
REMARK  5 active torsions:
REMARK  status: ('A' for Active; 'I' for Inactive)
REMARK    1  A    between atoms: C_2  and  C_5 
REMARK    2  A    between atoms: C_5  and  C_6 
REMARK       I    between atoms: C_6  and  N_8 
REMARK    3  A    between atoms: N_8  and  C_9 
REMARK    4  A    between atoms: C_9  and  C_10 
REMARK    5  A    between atoms: C_15  and  N_17 
ROOT
HETATM    1  C   UNL     1     -41.024 -49.441  11.682  1.00  0.00    -0.036 A 
HETATM    2  C   UNL     1     -39.778 -50.017  11.908  1.00  0.00     0.026 A 
HETATM    3  C   UNL     1     -39.741 -51.257  12.510  1.00  0.00     0.090 A 
HETATM    4  N   UNL     1     -40.842 -51.948  12.879  1.00  0.00    -0.352 N 
ATOM      5  HN  UNL     1     -40.753 -52.872  13.302  1.00  0.00     0.166 HD
HETATM    6  C   UNL     1     -42.062 -51.401  12.681  1.00  0.00     0.103 A 
HETATM    7  C   UNL     1     -42.169 -50.147  12.081  1.00  0.00     0.057 A 
ENDROOT
BRANCH   1   8
HETATM    8  C   UNL     1     -41.148 -48.129  10.965  1.00  0.00     0.161 C 
BRANCH   8   9
HETATM    9  N   UNL     1     -42.083 -48.232   9.867  1.00  0.00    -0.357 N 
HETATM   10  C   UNL     1     -42.906 -47.178   9.551  1.00  0.00     0.226 C 
HETATM   11  O   UNL     1     -42.926 -46.131  10.191  1.00  0.00    -0.273 OA
HETATM   12  H   UNL     1     -42.028 -49.049   9.272  1.00  0.00     0.162 HD
BRANCH  10  13
HETATM   13  C   UNL     1     -43.803 -47.398   8.373  1.00  0.00     0.220 C 
BRANCH  13  14
HETATM   14  C   UNL     1     -45.224 -47.577   8.825  1.00  0.00     0.396 C 
HETATM   15  F   UNL     1     -45.347 -48.033  10.087  1.00  0.00    -0.171 F 
HETATM   16  F   UNL     1     -45.886 -48.432   8.013  1.00  0.00    -0.171 F 
HETATM   17  F   UNL     1     -45.877 -46.391   8.770  1.00  0.00    -0.171 F 
ENDBRANCH  13  14
ENDBRANCH  10  13
ENDBRANCH   8   9
ENDBRANCH   1   8
BRANCH   6  18
HETATM   18  N   UNL     1     -43.159 -52.117  13.089  1.00  0.00    -0.363 N 
HETATM   19  C   UNL     1     -43.153 -53.539  13.436  1.00  0.00     0.150 C 
HETATM   20  C   UNL     1     -44.356 -54.240  12.776  1.00  0.00     0.187 C 
HETATM   21  O   UNL     1     -45.598 -53.586  13.079  1.00  0.00    -0.388 OA
HETATM   22  C   UNL     1     -45.565 -52.226  12.611  1.00  0.00     0.187 C 
HETATM   23  C   UNL     1     -44.442 -51.433  13.291  1.00  0.00     0.150 C 
ENDBRANCH   6  18
TORSDOF 5
ENDMDL
MODEL 5
REMARK VINA RESULT:      -6.2      3.736      7.013
REMARK  5 active torsions:
REMARK  status: ('A' for Active; 'I' for Inactive)
REMARK    1  A    between atoms: C_2  and  C_5 
REMARK    2  A    between atoms: C_5  and  C_6 
REMARK       I    between atoms: C_6  and  N_8 
REMARK    3  A    between atoms: N_8  and  C_9 
REMARK    4  A    between atoms: C_9  and  C_10 
REMARK    5  A    between atoms: C_15  and  N_17 
ROOT
HETATM    1  C   UNL     1     -43.271 -50.569  13.268  1.00  0.00    -0.036 A 
HETATM    2  C   UNL     1     -42.421 -51.648  13.053  1.00  0.00     0.026 A 
HETATM    3  C   UNL     1     -41.396 -51.491  12.143  1.00  0.00     0.090 A 
HETATM    4  N   UNL     1     -41.163 -50.347  11.463  1.00  0.00    -0.352 N 
ATOM      5  HN  UNL     1     -40.375 -50.283  10.817  1.00  0.00     0.166 HD
HETATM    6  C   UNL     1     -41.985 -49.290  11.646  1.00  0.00     0.103 A 
HETATM    7  C   UNL     1     -43.043 -49.386  12.548  1.00  0.00     0.057 A 
ENDROOT
BRANCH   1   8
HETATM    8  C   UNL     1     -44.362 -50.640  14.295  1.00  0.00     0.161 C 
BRANCH   8   9
HETATM    9  N   UNL     1     -44.592 -52.008  14.703  1.00  0.00    -0.357 N 
HETATM   10  C   UNL     1     -45.778 -52.634  14.406  1.00  0.00     0.226 C 
HETATM   11  O   UNL     1     -46.704 -52.072  13.830  1.00  0.00    -0.273 OA
HETATM   12  H   UNL     1     -43.815 -52.520  15.104  1.00  0.00     0.162 HD
BRANCH  10  13
HETATM   13  C   UNL     1     -45.878 -54.059  14.853  1.00  0.00     0.220 C 
BRANCH  13  14
HETATM   14  C   UNL     1     -45.147 -54.958  13.897  1.00  0.00     0.396 C 
HETATM   15  F   UNL     1     -44.827 -54.371  12.726  1.00  0.00    -0.171 F 
HETATM   16  F   UNL     1     -45.876 -56.061  13.617  1.00  0.00    -0.171 F 
HETATM   17  F   UNL     1     -43.987 -55.380  14.456  1.00  0.00    -0.171 F 
ENDBRANCH  13  14
ENDBRANCH  10  13
ENDBRANCH   8   9
ENDBRANCH   1   8
BRANCH   6  18
HETATM   18  N   UNL     1     -41.736 -48.152  10.922  1.00  0.00    -0.363 N 
HETATM   19  C   UNL     1     -40.579 -47.275  11.106  1.00  0.00     0.150 C 
HETATM   20  C   UNL     1     -41.038 -45.805  11.116  1.00  0.00     0.187 C 
HETATM   21  O   UNL     1     -41.823 -45.474   9.960  1.00  0.00    -0.388 OA
HETATM   22  C   UNL     1     -42.996 -46.305   9.908  1.00  0.00     0.187 C 
HETATM   23  C   UNL     1     -42.621 -47.789   9.808  1.00  0.00     0.150 C 
ENDBRANCH   6  18
TORSDOF 5
ENDMDL
MODEL 6
REMARK VINA RESULT:      -6.1      3.402      7.074
REMARK  5 active torsions:
REMARK  status: ('A' for Active; 'I' for Inactive)
REMARK    1  A    between atoms: C_2  and  C_5 
REMARK    2  A    between atoms: C_5  and  C_6 
REMARK       I    between atoms: C_6  and  N_8 
REMARK    3  A    between atoms: N_8  and  C_9 
REMARK    4  A    between atoms: C_9  and  C_10 
REMARK    5  A    between atoms: C_15  and  N_17 
ROOT
HETATM    1  C   UNL     1     -42.501 -49.959  12.381  1.00  0.00    -0.036 A 
HETATM    2  C   UNL     1     -41.263 -50.528  12.102  1.00  0.00     0.026 A 
HETATM    3  C   UNL     1     -40.470 -49.915  11.154  1.00  0.00     0.090 A 
HETATM    4  N   UNL     1     -40.820 -48.790  10.494  1.00  0.00    -0.352 N 
ATOM      5  HN  UNL     1     -40.182 -48.370   9.818  1.00  0.00     0.166 HD
HETATM    6  C   UNL     1     -42.024 -48.227  10.739  1.00  0.00     0.103 A 
HETATM    7  C   UNL     1     -42.875 -48.801  11.683  1.00  0.00     0.057 A 
ENDROOT
BRANCH   1   8
HETATM    8  C   UNL     1     -43.387 -50.526  13.450  1.00  0.00     0.161 C 
BRANCH   8   9
HETATM    9  N   UNL     1     -44.034 -51.734  12.991  1.00  0.00    -0.357 N 
HETATM   10  C   UNL     1     -43.564 -52.966  13.378  1.00  0.00     0.226 C 
HETATM   11  O   UNL     1     -42.570 -53.112  14.081  1.00  0.00    -0.273 OA
HETATM   12  H   UNL     1     -44.905 -51.642  12.482  1.00  0.00     0.162 HD
BRANCH  10  13
HETATM   13  C   UNL     1     -44.344 -54.137  12.864  1.00  0.00     0.220 C 
BRANCH  13  14
HETATM   14  C   UNL     1     -45.362 -54.572  13.879  1.00  0.00     0.396 C 
HETATM   15  F   UNL     1     -44.901 -54.594  15.146  1.00  0.00    -0.171 F 
HETATM   16  F   UNL     1     -45.834 -55.806  13.592  1.00  0.00    -0.171 F 
HETATM   17  F   UNL     1     -46.421 -53.727  13.860  1.00  0.00    -0.171 F 
ENDBRANCH  13  14
ENDBRANCH  10  13
ENDBRANCH   8   9
ENDBRANCH   1   8
BRANCH   6  18
HETATM   18  N   UNL     1     -42.359 -47.099  10.035  1.00  0.00    -0.363 N 
HETATM   19  C   UNL     1     -41.830 -45.759  10.292  1.00  0.00     0.150 C 
HETATM   20  C   UNL     1     -42.980 -44.735  10.277  1.00  0.00     0.187 C 
HETATM   21  O   UNL     1     -43.763 -44.816   9.076  1.00  0.00    -0.388 OA
HETATM   22  C   UNL     1     -44.336 -46.129   8.949  1.00  0.00     0.187 C 
HETATM   23  C   UNL     1     -43.246 -47.204   8.869  1.00  0.00     0.150 C 
ENDBRANCH   6  18
TORSDOF 5
ENDMDL
MODEL 7
REMARK VINA RESULT:      -6.1      3.026      6.291
REMARK  5 active torsions:
REMARK  status: ('A' for Active; 'I' for Inactive)
REMARK    1  A    between atoms: C_2  and  C_5 
REMARK    2  A    between atoms: C_5  and  C_6 
REMARK       I    between atoms: C_6  and  N_8 
REMARK    3  A    between atoms: N_8  and  C_9 
REMARK    4  A    between atoms: C_9  and  C_10 
REMARK    5  A    between atoms: C_15  and  N_17 
ROOT
HETATM    1  C   UNL     1     -41.388 -51.134  12.145  1.00  0.00    -0.036 A 
HETATM    2  C   UNL     1     -40.007 -51.297  12.140  1.00  0.00     0.026 A 
HETATM    3  C   UNL     1     -39.228 -50.190  11.873  1.00  0.00     0.090 A 
HETATM    4  N   UNL     1     -39.728 -48.959  11.631  1.00  0.00    -0.352 N 
ATOM      5  HN  UNL     1     -39.101 -48.172  11.460  1.00  0.00     0.166 HD
HETATM    6  C   UNL     1     -41.067 -48.781  11.617  1.00  0.00     0.103 A 
HETATM    7  C   UNL     1     -41.911 -49.861  11.875  1.00  0.00     0.057 A 
ENDROOT
BRANCH   1   8
HETATM    8  C   UNL     1     -42.297 -52.274  12.499  1.00  0.00     0.161 C 
BRANCH   8   9
HETATM    9  N   UNL     1     -43.670 -51.827  12.580  1.00  0.00    -0.357 N 
HETATM   10  C   UNL     1     -44.700 -52.736  12.571  1.00  0.00     0.226 C 
HETATM   11  O   UNL     1     -44.524 -53.944  12.454  1.00  0.00    -0.273 OA
HETATM   12  H   UNL     1     -43.839 -50.845  12.763  1.00  0.00     0.162 HD
BRANCH  10  13
HETATM   13  C   UNL     1     -46.072 -52.147  12.697  1.00  0.00     0.220 C 
BRANCH  13  14
HETATM   14  C   UNL     1     -46.510 -52.148  14.133  1.00  0.00     0.396 C 
HETATM   15  F   UNL     1     -45.494 -52.191  15.019  1.00  0.00    -0.171 F 
HETATM   16  F   UNL     1     -47.323 -53.197  14.391  1.00  0.00    -0.171 F 
HETATM   17  F   UNL     1     -47.217 -51.023  14.399  1.00  0.00    -0.171 F 
ENDBRANCH  13  14
ENDBRANCH  10  13
ENDBRANCH   8   9
ENDBRANCH   1   8
BRANCH   6  18
HETATM   18  N   UNL     1     -41.544 -47.524  11.344  1.00  0.00    -0.363 N 
HETATM   19  C   UNL     1     -42.888 -47.223  10.852  1.00  0.00     0.150 C 
HETATM   20  C   UNL     1     -42.804 -46.206   9.697  1.00  0.00     0.187 C 
HETATM   21  O   UNL     1     -42.056 -45.035  10.060  1.00  0.00    -0.388 OA
HETATM   22  C   UNL     1     -40.715 -45.402  10.429  1.00  0.00     0.187 C 
HETATM   23  C   UNL     1     -40.710 -46.350  11.634  1.00  0.00     0.150 C 
ENDBRANCH   6  18
TORSDOF 5
ENDMDL
MODEL 8
REMARK VINA RESULT:      -5.9      2.954      5.846
REMARK  5 active torsions:
REMARK  status: ('A' for Active; 'I' for Inactive)
REMARK    1  A    between atoms: C_2  and  C_5 
REMARK    2  A    between atoms: C_5  and  C_6 
REMARK       I    between atoms: C_6  and  N_8 
REMARK    3  A    between atoms: N_8  and  C_9 
REMARK    4  A    between atoms: C_9  and  C_10 
REMARK    5  A    between atoms: C_15  and  N_17 
ROOT
HETATM    1  C   UNL     1     -41.414 -53.145  13.569  1.00  0.00    -0.036 A 
HETATM    2  C   UNL     1     -40.128 -53.421  14.023  1.00  0.00     0.026 A 
HETATM    3  C   UNL     1     -39.197 -52.404  13.980  1.00  0.00     0.090 A 
HETATM    4  N   UNL     1     -39.466 -51.156  13.538  1.00  0.00    -0.352 N 
ATOM      5  HN  UNL     1     -38.741 -50.438  13.550  1.00  0.00     0.166 HD
HETATM    6  C   UNL     1     -40.705 -50.869  13.080  1.00  0.00     0.103 A 
HETATM    7  C   UNL     1     -41.691 -51.855  13.092  1.00  0.00     0.057 A 
ENDROOT
BRANCH   1   8
HETATM    8  C   UNL     1     -42.498 -54.178  13.653  1.00  0.00     0.161 C 
BRANCH   8   9
HETATM    9  N   UNL     1     -43.710 -53.604  14.196  1.00  0.00    -0.357 N 
HETATM   10  C   UNL     1     -44.867 -53.590  13.454  1.00  0.00     0.226 C 
HETATM   11  O   UNL     1     -44.929 -54.012  12.304  1.00  0.00    -0.273 OA
HETATM   12  H   UNL     1     -43.708 -53.327  15.170  1.00  0.00     0.162 HD
BRANCH  10  13
HETATM   13  C   UNL     1     -46.059 -53.000  14.142  1.00  0.00     0.220 C 
BRANCH  13  14
HETATM   14  C   UNL     1     -46.359 -51.637  13.588  1.00  0.00     0.396 C 
HETATM   15  F   UNL     1     -46.954 -51.653  12.379  1.00  0.00    -0.171 F 
HETATM   16  F   UNL     1     -45.231 -50.899  13.482  1.00  0.00    -0.171 F 
HETATM   17  F   UNL     1     -47.191 -50.972  14.427  1.00  0.00    -0.171 F 
ENDBRANCH  13  14
ENDBRANCH  10  13
ENDBRANCH   8   9
ENDBRANCH   1   8
BRANCH   6  18
HETATM   18  N   UNL     1     -40.939 -49.600  12.616  1.00  0.00    -0.363 N 
HETATM   19  C   UNL     1     -42.102 -49.195  11.826  1.00  0.00     0.150 C 
HETATM   20  C   UNL     1     -41.647 -48.321  10.642  1.00  0.00     0.187 C 
HETATM   21  O   UNL     1     -40.835 -47.215  11.065  1.00  0.00    -0.388 OA
HETATM   22  C   UNL     1     -39.659 -47.698  11.738  1.00  0.00     0.187 C 
HETATM   23  C   UNL     1     -40.027 -48.509  12.986  1.00  0.00     0.150 C 
ENDBRANCH   6  18
TORSDOF 5
ENDMDL
MODEL 9
REMARK VINA RESULT:      -5.8      4.272      6.154
REMARK  5 active torsions:
REMARK  status: ('A' for Active; 'I' for Inactive)
REMARK    1  A    between atoms: C_2  and  C_5 
REMARK    2  A    between atoms: C_5  and  C_6 
REMARK       I    between atoms: C_6  and  N_8 
REMARK    3  A    between atoms: N_8  and  C_9 
REMARK    4  A    between atoms: C_9  and  C_10 
REMARK    5  A    between atoms: C_15  and  N_17 
ROOT
HETATM    1  C   UNL     1     -42.441 -53.381  12.814  1.00  0.00    -0.036 A 
HETATM    2  C   UNL     1     -41.751 -54.302  13.595  1.00  0.00     0.026 A 
HETATM    3  C   UNL     1     -40.424 -54.046  13.873  1.00  0.00     0.090 A 
HETATM    4  N   UNL     1     -39.764 -52.949  13.443  1.00  0.00    -0.352 N 
ATOM      5  HN  UNL     1     -38.787 -52.803  13.699  1.00  0.00     0.166 HD
HETATM    6  C   UNL     1     -40.411 -52.048  12.672  1.00  0.00     0.103 A 
HETATM    7  C   UNL     1     -41.753 -52.250  12.351  1.00  0.00     0.057 A 
ENDROOT
BRANCH   1   8
HETATM    8  C   UNL     1     -43.904 -53.553  12.532  1.00  0.00     0.161 C 
BRANCH   8   9
HETATM    9  N   UNL     1     -44.692 -52.659  13.351  1.00  0.00    -0.357 N 
HETATM   10  C   UNL     1     -45.953 -52.281  12.955  1.00  0.00     0.226 C 
HETATM   11  O   UNL     1     -46.454 -52.634  11.893  1.00  0.00    -0.273 OA
HETATM   12  H   UNL     1     -44.338 -52.422  14.269  1.00  0.00     0.162 HD
BRANCH  10  13
HETATM   13  C   UNL     1     -46.678 -51.381  13.908  1.00  0.00     0.220 C 
BRANCH  13  14
HETATM   14  C   UNL     1     -46.972 -52.108  15.189  1.00  0.00     0.396 C 
HETATM   15  F   UNL     1     -47.317 -53.401  15.022  1.00  0.00    -0.171 F 
HETATM   16  F   UNL     1     -47.969 -51.501  15.871  1.00  0.00    -0.171 F 
HETATM   17  F   UNL     1     -45.878 -52.093  15.989  1.00  0.00    -0.171 F 
ENDBRANCH  13  14
ENDBRANCH  10  13
ENDBRANCH   8   9
ENDBRANCH   1   8
BRANCH   6  18
HETATM   18  N   UNL     1     -39.706 -50.956  12.233  1.00  0.00    -0.363 N 
HETATM   19  C   UNL     1     -38.296 -50.693  12.524  1.00  0.00     0.150 C 
HETATM   20  C   UNL     1     -38.117 -49.220  12.938  1.00  0.00     0.187 C 
HETATM   21  O   UNL     1     -38.676 -48.315  11.974  1.00  0.00    -0.388 OA
HETATM   22  C   UNL     1     -40.085 -48.566  11.823  1.00  0.00     0.187 C 
HETATM   23  C   UNL     1     -40.343 -49.993  11.326  1.00  0.00     0.150 C 
ENDBRANCH   6  18
TORSDOF 5
ENDMDL
