MODEL 1
REMARK VINA RESULT:      -7.0      0.000      0.000
REMARK  4 active torsions:
REMARK  status: ('A' for Active; 'I' for Inactive)
REMARK    1  A    between atoms: C_2  and  C_5 
REMARK    2  A    between atoms: N_10  and  C_11 
REMARK    3  A    between atoms: C_11  and  C_12 
REMARK       I    between atoms: C_12  and  N_14 
REMARK    4  A    between atoms: N_14  and  C_15 
ROOT
HETATM    1  C   UNL     1     -40.994 -52.115  11.799  1.00  0.00     0.234 C 
ENDROOT
BRANCH   1   2
HETATM    2  N   UNL     1     -40.305 -50.841  11.994  1.00  0.00    -0.315 N 
HETATM    3  C   UNL     1     -39.021 -50.863  12.528  1.00  0.00     0.247 A 
HETATM    4  C   UNL     1     -38.363 -49.538  12.684  1.00  0.00     0.075 A 
HETATM    5  O   UNL     1     -38.423 -51.886  12.850  1.00  0.00    -0.268 OA
HETATM    6  C   UNL     1     -38.972 -48.425  12.249  1.00  0.00     0.023 A 
HETATM    7  C   UNL     1     -40.282 -48.484  11.622  1.00  0.00     0.063 A 
HETATM    8  C   UNL     1     -40.900 -49.675  11.535  1.00  0.00     0.110 A 
BRANCH   7   9
HETATM    9  C   UNL     1     -40.892 -47.232  11.054  1.00  0.00     0.418 C 
HETATM   10  F   UNL     1     -41.720 -47.477  10.007  1.00  0.00    -0.166 F 
HETATM   11  F   UNL     1     -39.943 -46.370  10.611  1.00  0.00    -0.166 F 
HETATM   12  F   UNL     1     -41.626 -46.566  11.982  1.00  0.00    -0.166 F 
ENDBRANCH   7   9
ENDBRANCH   1   2
BRANCH   1  13
HETATM   13  C   UNL     1     -42.021 -52.347  12.911  1.00  0.00     0.236 C 
HETATM   14  O   UNL     1     -41.685 -52.521  14.079  1.00  0.00    -0.272 OA
HETATM   15  N   UNL     1     -43.329 -52.278  12.486  1.00  0.00    -0.355 N 
HETATM   16  H   UNL     1     -43.489 -51.967  11.533  1.00  0.00     0.162 HD
BRANCH  15  17
HETATM   17  C   UNL     1     -44.514 -52.521  13.318  1.00  0.00     0.084 C 
HETATM   18  C   UNL     1     -44.927 -54.000  13.317  1.00  0.00     0.025 C 
HETATM   19  C   UNL     1     -45.946 -54.430  14.380  1.00  0.00     0.002 C 
HETATM   20  C   UNL     1     -45.695 -53.881  15.790  1.00  0.00     0.000 C 
HETATM   21  C   UNL     1     -46.576 -52.695  16.190  1.00  0.00     0.000 C 
HETATM   22  C   UNL     1     -46.388 -51.377  15.434  1.00  0.00     0.000 C 
HETATM   23  C   UNL     1     -46.799 -51.417  13.961  1.00  0.00     0.002 C 
HETATM   24  C   UNL     1     -45.646 -51.548  12.958  1.00  0.00     0.025 C 
ENDBRANCH  15  17
ENDBRANCH   1  13
TORSDOF 4
ENDMDL
MODEL 2
REMARK VINA RESULT:      -6.8      2.173      2.710
REMARK  4 active torsions:
REMARK  status: ('A' for Active; 'I' for Inactive)
REMARK    1  A    between atoms: C_2  and  C_5 
REMARK    2  A    between atoms: N_10  and  C_11 
REMARK    3  A    between atoms: C_11  and  C_12 
REMARK       I    between atoms: C_12  and  N_14 
REMARK    4  A    between atoms: N_14  and  C_15 
ROOT
HETATM    1  C   UNL     1     -41.149 -49.899  11.665  1.00  0.00     0.234 C 
ENDROOT
BRANCH   1   2
HETATM    2  N   UNL     1     -41.299 -48.498  11.278  1.00  0.00    -0.315 N 
HETATM    3  C   UNL     1     -40.275 -47.613  11.601  1.00  0.00     0.247 A 
HETATM    4  C   UNL     1     -40.475 -46.206  11.164  1.00  0.00     0.075 A 
HETATM    5  O   UNL     1     -39.247 -47.931  12.195  1.00  0.00    -0.268 OA
HETATM    6  C   UNL     1     -41.550 -45.871  10.435  1.00  0.00     0.023 A 
HETATM    7  C   UNL     1     -42.541 -46.865  10.061  1.00  0.00     0.063 A 
HETATM    8  C   UNL     1     -42.388 -48.124  10.506  1.00  0.00     0.110 A 
BRANCH   7   9
HETATM    9  C   UNL     1     -43.680 -46.477   9.158  1.00  0.00     0.418 C 
HETATM   10  F   UNL     1     -44.839 -47.112   9.469  1.00  0.00    -0.166 F 
HETATM   11  F   UNL     1     -43.411 -46.765   7.860  1.00  0.00    -0.166 F 
HETATM   12  F   UNL     1     -43.939 -45.145   9.220  1.00  0.00    -0.166 F 
ENDBRANCH   7   9
ENDBRANCH   1   2
BRANCH   1  13
HETATM   13  C   UNL     1     -42.252 -50.308  12.644  1.00  0.00     0.236 C 
HETATM   14  O   UNL     1     -42.470 -49.680  13.676  1.00  0.00    -0.272 OA
HETATM   15  N   UNL     1     -42.997 -51.389  12.227  1.00  0.00    -0.355 N 
HETATM   16  H   UNL     1     -42.833 -51.726  11.283  1.00  0.00     0.162 HD
BRANCH  15  17
HETATM   17  C   UNL     1     -44.072 -52.034  12.989  1.00  0.00     0.084 C 
HETATM   18  C   UNL     1     -44.234 -53.516  12.621  1.00  0.00     0.025 C 
HETATM   19  C   UNL     1     -45.101 -54.367  13.557  1.00  0.00     0.002 C 
HETATM   20  C   UNL     1     -44.861 -54.147  15.056  1.00  0.00     0.000 C 
HETATM   21  C   UNL     1     -45.901 -53.269  15.758  1.00  0.00     0.000 C 
HETATM   22  C   UNL     1     -45.979 -51.794  15.357  1.00  0.00     0.000 C 
HETATM   23  C   UNL     1     -46.466 -51.542  13.928  1.00  0.00     0.002 C 
HETATM   24  C   UNL     1     -45.370 -51.217  12.906  1.00  0.00     0.025 C 
ENDBRANCH  15  17
ENDBRANCH   1  13
TORSDOF 4
ENDMDL
MODEL 3
REMARK VINA RESULT:      -6.7      3.614      4.877
REMARK  4 active torsions:
REMARK  status: ('A' for Active; 'I' for Inactive)
REMARK    1  A    between atoms: C_2  and  C_5 
REMARK    2  A    between atoms: N_10  and  C_11 
REMARK    3  A    between atoms: C_11  and  C_12 
REMARK       I    between atoms: C_12  and  N_14 
REMARK    4  A    between atoms: N_14  and  C_15 
ROOT
HETATM    1  C   UNL     1     -42.597 -47.661  12.277  1.00  0.00     0.234 C 
ENDROOT
BRANCH   1   2
HETATM    2  N   UNL     1     -43.196 -47.239  11.013  1.00  0.00    -0.315 N 
HETATM    3  C   UNL     1     -42.447 -46.424  10.169  1.00  0.00     0.247 A 
HETATM    4  C   UNL     1     -43.102 -46.045   8.889  1.00  0.00     0.075 A 
HETATM    5  O   UNL     1     -41.310 -46.032  10.417  1.00  0.00    -0.268 OA
HETATM    6  C   UNL     1     -44.306 -46.544   8.571  1.00  0.00     0.023 A 
HETATM    7  C   UNL     1     -44.997 -47.459   9.463  1.00  0.00     0.063 A 
HETATM    8  C   UNL     1     -44.430 -47.755  10.645  1.00  0.00     0.110 A 
BRANCH   7   9
HETATM    9  C   UNL     1     -46.297 -48.080   9.030  1.00  0.00     0.418 C 
HETATM   10  F   UNL     1     -46.258 -48.553   7.758  1.00  0.00    -0.166 F 
HETATM   11  F   UNL     1     -47.320 -47.191   9.088  1.00  0.00    -0.166 F 
HETATM   12  F   UNL     1     -46.641 -49.127   9.823  1.00  0.00    -0.166 F 
ENDBRANCH   7   9
ENDBRANCH   1   2
BRANCH   1  13
HETATM   13  C   UNL     1     -42.679 -49.183  12.429  1.00  0.00     0.236 C 
HETATM   14  O   UNL     1     -41.985 -49.940  11.756  1.00  0.00    -0.272 OA
HETATM   15  N   UNL     1     -43.542 -49.599  13.418  1.00  0.00    -0.355 N 
HETATM   16  H   UNL     1     -43.936 -48.882  14.018  1.00  0.00     0.162 HD
BRANCH  15  17
HETATM   17  C   UNL     1     -43.864 -50.994  13.741  1.00  0.00     0.084 C 
HETATM   18  C   UNL     1     -45.306 -51.152  14.247  1.00  0.00     0.025 C 
HETATM   19  C   UNL     1     -45.856 -52.582  14.320  1.00  0.00     0.002 C 
HETATM   20  C   UNL     1     -45.550 -53.466  13.105  1.00  0.00     0.000 C 
HETATM   21  C   UNL     1     -44.407 -54.465  13.302  1.00  0.00     0.000 C 
HETATM   22  C   UNL     1     -42.994 -53.906  13.495  1.00  0.00     0.000 C 
HETATM   23  C   UNL     1     -42.782 -53.131  14.797  1.00  0.00     0.002 C 
HETATM   24  C   UNL     1     -42.800 -51.604  14.665  1.00  0.00     0.025 C 
ENDBRANCH  15  17
ENDBRANCH   1  13
TORSDOF 4
ENDMDL
MODEL 4
REMARK VINA RESULT:      -6.5      3.075      7.102
REMARK  4 active torsions:
REMARK  status: ('A' for Active; 'I' for Inactive)
REMARK    1  A    between atoms: C_2  and  C_5 
REMARK    2  A    between atoms: N_10  and  C_11 
REMARK    3  A    between atoms: C_11  and  C_12 
REMARK       I    between atoms: C_12  and  N_14 
REMARK    4  A    between atoms: N_14  and  C_15 
ROOT
HETATM    1  C   UNL     1     -42.262 -53.306  15.647  1.00  0.00     0.234 C 
ENDROOT
BRANCH   1   2
HETATM    2  N   UNL     1     -43.465 -53.591  14.867  1.00  0.00    -0.315 N 
HETATM    3  C   UNL     1     -43.886 -54.913  14.769  1.00  0.00     0.247 A 
HETATM    4  C   UNL     1     -45.127 -55.138  13.980  1.00  0.00     0.075 A 
HETATM    5  O   UNL     1     -43.313 -55.864  15.294  1.00  0.00    -0.268 OA
HETATM    6  C   UNL     1     -45.810 -54.097  13.482  1.00  0.00     0.023 A 
HETATM    7  C   UNL     1     -45.357 -52.733  13.695  1.00  0.00     0.063 A 
HETATM    8  C   UNL     1     -44.205 -52.535  14.358  1.00  0.00     0.110 A 
BRANCH   7   9
HETATM    9  C   UNL     1     -46.200 -51.585  13.210  1.00  0.00     0.418 C 
HETATM   10  F   UNL     1     -47.010 -51.081  14.176  1.00  0.00    -0.166 F 
HETATM   11  F   UNL     1     -47.000 -51.953  12.179  1.00  0.00    -0.166 F 
HETATM   12  F   UNL     1     -45.436 -50.554  12.767  1.00  0.00    -0.166 F 
ENDBRANCH   7   9
ENDBRANCH   1   2
BRANCH   1  13
HETATM   13  C   UNL     1     -41.133 -52.818  14.735  1.00  0.00     0.236 C 
HETATM   14  O   UNL     1     -40.567 -53.568  13.945  1.00  0.00    -0.272 OA
HETATM   15  N   UNL     1     -40.869 -51.471  14.847  1.00  0.00    -0.355 N 
HETATM   16  H   UNL     1     -41.508 -50.920  15.412  1.00  0.00     0.162 HD
BRANCH  15  17
HETATM   17  C   UNL     1     -39.803 -50.746  14.144  1.00  0.00     0.084 C 
HETATM   18  C   UNL     1     -38.430 -50.960  14.797  1.00  0.00     0.025 C 
HETATM   19  C   UNL     1     -37.206 -50.516  13.986  1.00  0.00     0.002 C 
HETATM   20  C   UNL     1     -37.227 -50.901  12.501  1.00  0.00     0.000 C 
HETATM   21  C   UNL     1     -37.608 -49.769  11.544  1.00  0.00     0.000 C 
HETATM   22  C   UNL     1     -39.034 -49.217  11.620  1.00  0.00     0.000 C 
HETATM   23  C   UNL     1     -39.367 -48.475  12.917  1.00  0.00     0.002 C 
HETATM   24  C   UNL     1     -40.184 -49.272  13.941  1.00  0.00     0.025 C 
ENDBRANCH  15  17
ENDBRANCH   1  13
TORSDOF 4
ENDMDL
MODEL 5
REMARK VINA RESULT:      -6.4      3.247      6.614
REMARK  4 active torsions:
REMARK  status: ('A' for Active; 'I' for Inactive)
REMARK    1  A    between atoms: C_2  and  C_5 
REMARK    2  A    between atoms: N_10  and  C_11 
REMARK    3  A    between atoms: C_11  and  C_12 
REMARK       I    between atoms: C_12  and  N_14 
REMARK    4  A    between atoms: N_14  and  C_15 
ROOT
HETATM    1  C   UNL     1     -41.409 -52.412  11.959  1.00  0.00     0.234 C 
ENDROOT
BRANCH   1   2
HETATM    2  N   UNL     1     -42.467 -53.039  12.747  1.00  0.00    -0.315 N 
HETATM    3  C   UNL     1     -42.107 -54.010  13.677  1.00  0.00     0.247 A 
HETATM    4  C   UNL     1     -43.224 -54.597  14.463  1.00  0.00     0.075 A 
HETATM    5  O   UNL     1     -40.953 -54.380  13.880  1.00  0.00    -0.268 OA
HETATM    6  C   UNL     1     -44.474 -54.134  14.313  1.00  0.00     0.023 A 
HETATM    7  C   UNL     1     -44.767 -53.057  13.383  1.00  0.00     0.063 A 
HETATM    8  C   UNL     1     -43.766 -52.567  12.631  1.00  0.00     0.110 A 
BRANCH   7   9
HETATM    9  C   UNL     1     -46.159 -52.491  13.314  1.00  0.00     0.418 C 
HETATM   10  F   UNL     1     -46.655 -52.466  12.050  1.00  0.00    -0.166 F 
HETATM   11  F   UNL     1     -46.206 -51.218  13.780  1.00  0.00    -0.166 F 
HETATM   12  F   UNL     1     -47.032 -53.215  14.059  1.00  0.00    -0.166 F 
ENDBRANCH   7   9
ENDBRANCH   1   2
BRANCH   1  13
HETATM   13  C   UNL     1     -41.229 -50.947  12.369  1.00  0.00     0.236 C 
HETATM   14  O   UNL     1     -40.564 -50.625  13.349  1.00  0.00    -0.272 OA
HETATM   15  N   UNL     1     -41.822 -50.050  11.508  1.00  0.00    -0.355 N 
HETATM   16  H   UNL     1     -42.204 -50.422  10.644  1.00  0.00     0.162 HD
BRANCH  15  17
HETATM   17  C   UNL     1     -41.864 -48.593  11.685  1.00  0.00     0.084 C 
HETATM   18  C   UNL     1     -42.945 -48.164  12.687  1.00  0.00     0.025 C 
HETATM   19  C   UNL     1     -42.883 -46.715  13.188  1.00  0.00     0.002 C 
HETATM   20  C   UNL     1     -41.485 -46.211  13.567  1.00  0.00     0.000 C 
HETATM   21  C   UNL     1     -40.812 -45.318  12.521  1.00  0.00     0.000 C 
HETATM   22  C   UNL     1     -40.432 -45.949  11.178  1.00  0.00     0.000 C 
HETATM   23  C   UNL     1     -41.619 -46.378  10.312  1.00  0.00     0.002 C 
HETATM   24  C   UNL     1     -41.938 -47.878  10.329  1.00  0.00     0.025 C 
ENDBRANCH  15  17
ENDBRANCH   1  13
TORSDOF 4
ENDMDL
MODEL 6
REMARK VINA RESULT:      -6.4      2.817      6.963
REMARK  4 active torsions:
REMARK  status: ('A' for Active; 'I' for Inactive)
REMARK    1  A    between atoms: C_2  and  C_5 
REMARK    2  A    between atoms: N_10  and  C_11 
REMARK    3  A    between atoms: C_11  and  C_12 
REMARK       I    between atoms: C_12  and  N_14 
REMARK    4  A    between atoms: N_14  and  C_15 
ROOT
HETATM    1  C   UNL     1     -42.011 -54.135  13.268  1.00  0.00     0.234 C 
ENDROOT
BRANCH   1   2
HETATM    2  N   UNL     1     -43.428 -53.997  13.599  1.00  0.00    -0.315 N 
HETATM    3  C   UNL     1     -43.967 -54.854  14.554  1.00  0.00     0.247 A 
HETATM    4  C   UNL     1     -45.407 -54.652  14.864  1.00  0.00     0.075 A 
HETATM    5  O   UNL     1     -43.330 -55.726  15.139  1.00  0.00    -0.268 OA
HETATM    6  C   UNL     1     -46.086 -53.643  14.298  1.00  0.00     0.023 A 
HETATM    7  C   UNL     1     -45.437 -52.731  13.372  1.00  0.00     0.063 A 
HETATM    8  C   UNL     1     -44.151 -52.950  13.048  1.00  0.00     0.110 A 
BRANCH   7   9
HETATM    9  C   UNL     1     -46.199 -51.550  12.834  1.00  0.00     0.418 C 
HETATM   10  F   UNL     1     -45.398 -50.492  12.548  1.00  0.00    -0.166 F 
HETATM   11  F   UNL     1     -47.129 -51.110  13.718  1.00  0.00    -0.166 F 
HETATM   12  F   UNL     1     -46.859 -51.858  11.689  1.00  0.00    -0.166 F 
ENDBRANCH   7   9
ENDBRANCH   1   2
BRANCH   1  13
HETATM   13  C   UNL     1     -41.223 -52.918  13.759  1.00  0.00     0.236 C 
HETATM   14  O   UNL     1     -41.203 -52.593  14.943  1.00  0.00    -0.272 OA
HETATM   15  N   UNL     1     -40.506 -52.281  12.771  1.00  0.00    -0.355 N 
HETATM   16  H   UNL     1     -40.468 -52.735  11.863  1.00  0.00     0.162 HD
BRANCH  15  17
HETATM   17  C   UNL     1     -39.714 -51.057  12.941  1.00  0.00     0.084 C 
HETATM   18  C   UNL     1     -39.804 -50.136  11.716  1.00  0.00     0.025 C 
HETATM   19  C   UNL     1     -39.281 -48.704  11.892  1.00  0.00     0.002 C 
HETATM   20  C   UNL     1     -39.698 -48.009  13.194  1.00  0.00     0.000 C 
HETATM   21  C   UNL     1     -38.621 -47.968  14.281  1.00  0.00     0.000 C 
HETATM   22  C   UNL     1     -38.182 -49.297  14.904  1.00  0.00     0.000 C 
HETATM   23  C   UNL     1     -37.442 -50.239  13.952  1.00  0.00     0.002 C 
HETATM   24  C   UNL     1     -38.279 -51.388  13.379  1.00  0.00     0.025 C 
ENDBRANCH  15  17
ENDBRANCH   1  13
TORSDOF 4
ENDMDL
MODEL 7
REMARK VINA RESULT:      -6.4      2.190      2.748
REMARK  4 active torsions:
REMARK  status: ('A' for Active; 'I' for Inactive)
REMARK    1  A    between atoms: C_2  and  C_5 
REMARK    2  A    between atoms: N_10  and  C_11 
REMARK    3  A    between atoms: C_11  and  C_12 
REMARK       I    between atoms: C_12  and  N_14 
REMARK    4  A    between atoms: N_14  and  C_15 
ROOT
HETATM    1  C   UNL     1     -41.390 -49.664  12.078  1.00  0.00     0.234 C 
ENDROOT
BRANCH   1   2
HETATM    2  N   UNL     1     -40.128 -49.744  12.811  1.00  0.00    -0.315 N 
HETATM    3  C   UNL     1     -39.453 -50.961  12.827  1.00  0.00     0.247 A 
HETATM    4  C   UNL     1     -38.165 -50.975  13.572  1.00  0.00     0.075 A 
HETATM    5  O   UNL     1     -39.849 -51.979  12.266  1.00  0.00    -0.268 OA
HETATM    6  C   UNL     1     -37.682 -49.845  14.108  1.00  0.00     0.023 A 
HETATM    7  C   UNL     1     -38.399 -48.588  13.981  1.00  0.00     0.063 A 
HETATM    8  C   UNL     1     -39.591 -48.589  13.359  1.00  0.00     0.110 A 
BRANCH   7   9
HETATM    9  C   UNL     1     -37.780 -47.322  14.505  1.00  0.00     0.418 C 
HETATM   10  F   UNL     1     -36.427 -47.313  14.402  1.00  0.00    -0.166 F 
HETATM   11  F   UNL     1     -38.075 -47.126  15.815  1.00  0.00    -0.166 F 
HETATM   12  F   UNL     1     -38.227 -46.229  13.834  1.00  0.00    -0.166 F 
ENDBRANCH   7   9
ENDBRANCH   1   2
BRANCH   1  13
HETATM   13  C   UNL     1     -42.547 -50.170  12.943  1.00  0.00     0.236 C 
HETATM   14  O   UNL     1     -42.943 -49.549  13.925  1.00  0.00    -0.272 OA
HETATM   15  N   UNL     1     -43.125 -51.331  12.478  1.00  0.00    -0.355 N 
HETATM   16  H   UNL     1     -42.822 -51.665  11.568  1.00  0.00     0.162 HD
BRANCH  15  17
HETATM   17  C   UNL     1     -44.206 -52.073  13.137  1.00  0.00     0.084 C 
HETATM   18  C   UNL     1     -44.259 -53.540  12.688  1.00  0.00     0.025 C 
HETATM   19  C   UNL     1     -45.132 -54.484  13.523  1.00  0.00     0.002 C 
HETATM   20  C   UNL     1     -44.997 -54.331  15.043  1.00  0.00     0.000 C 
HETATM   21  C   UNL     1     -46.128 -53.550  15.718  1.00  0.00     0.000 C 
HETATM   22  C   UNL     1     -46.267 -52.061  15.385  1.00  0.00     0.000 C 
HETATM   23  C   UNL     1     -46.678 -51.761  13.942  1.00  0.00     0.002 C 
HETATM   24  C   UNL     1     -45.541 -51.324  13.010  1.00  0.00     0.025 C 
ENDBRANCH  15  17
ENDBRANCH   1  13
TORSDOF 4
ENDMDL
MODEL 8
REMARK VINA RESULT:      -6.2      3.381      7.271
REMARK  4 active torsions:
REMARK  status: ('A' for Active; 'I' for Inactive)
REMARK    1  A    between atoms: C_2  and  C_5 
REMARK    2  A    between atoms: N_10  and  C_11 
REMARK    3  A    between atoms: C_11  and  C_12 
REMARK       I    between atoms: C_12  and  N_14 
REMARK    4  A    between atoms: N_14  and  C_15 
ROOT
HETATM    1  C   UNL     1     -43.019 -53.469  14.127  1.00  0.00     0.234 C 
ENDROOT
BRANCH   1   2
HETATM    2  N   UNL     1     -44.273 -52.728  14.247  1.00  0.00    -0.315 N 
HETATM    3  C   UNL     1     -45.211 -52.852  13.226  1.00  0.00     0.247 A 
HETATM    4  C   UNL     1     -46.475 -52.091  13.415  1.00  0.00     0.075 A 
HETATM    5  O   UNL     1     -45.055 -53.545  12.224  1.00  0.00    -0.268 OA
HETATM    6  C   UNL     1     -46.690 -51.408  14.548  1.00  0.00     0.023 A 
HETATM    7  C   UNL     1     -45.701 -51.389  15.612  1.00  0.00     0.063 A 
HETATM    8  C   UNL     1     -44.535 -52.029  15.416  1.00  0.00     0.110 A 
BRANCH   7   9
HETATM    9  C   UNL     1     -46.016 -50.698  16.910  1.00  0.00     0.418 C 
HETATM   10  F   UNL     1     -45.356 -49.520  17.054  1.00  0.00    -0.166 F 
HETATM   11  F   UNL     1     -45.687 -51.466  17.978  1.00  0.00    -0.166 F 
HETATM   12  F   UNL     1     -47.339 -50.416  17.020  1.00  0.00    -0.166 F 
ENDBRANCH   7   9
ENDBRANCH   1   2
BRANCH   1  13
HETATM   13  C   UNL     1     -41.973 -52.638  13.378  1.00  0.00     0.236 C 
HETATM   14  O   UNL     1     -41.882 -52.660  12.154  1.00  0.00    -0.272 OA
HETATM   15  N   UNL     1     -41.208 -51.836  14.195  1.00  0.00    -0.355 N 
HETATM   16  H   UNL     1     -41.481 -51.777  15.171  1.00  0.00     0.162 HD
BRANCH  15  17
HETATM   17  C   UNL     1     -40.094 -50.985  13.760  1.00  0.00     0.084 C 
HETATM   18  C   UNL     1     -38.763 -51.401  14.403  1.00  0.00     0.025 C 
HETATM   19  C   UNL     1     -37.489 -50.798  13.799  1.00  0.00     0.002 C 
HETATM   20  C   UNL     1     -37.432 -50.784  12.266  1.00  0.00     0.000 C 
HETATM   21  C   UNL     1     -37.741 -49.432  11.618  1.00  0.00     0.000 C 
HETATM   22  C   UNL     1     -39.161 -48.877  11.763  1.00  0.00     0.000 C 
HETATM   23  C   UNL     1     -39.556 -48.487  13.189  1.00  0.00     0.002 C 
HETATM   24  C   UNL     1     -40.441 -49.498  13.928  1.00  0.00     0.025 C 
ENDBRANCH  15  17
ENDBRANCH   1  13
TORSDOF 4
ENDMDL
MODEL 9
REMARK VINA RESULT:      -6.0      3.043      4.236
REMARK  4 active torsions:
REMARK  status: ('A' for Active; 'I' for Inactive)
REMARK    1  A    between atoms: C_2  and  C_5 
REMARK    2  A    between atoms: N_10  and  C_11 
REMARK    3  A    between atoms: C_11  and  C_12 
REMARK       I    between atoms: C_12  and  N_14 
REMARK    4  A    between atoms: N_14  and  C_15 
ROOT
HETATM    1  C   UNL     1     -42.228 -48.235  13.130  1.00  0.00     0.234 C 
ENDROOT
BRANCH   1   2
HETATM    2  N   UNL     1     -42.456 -47.495  11.890  1.00  0.00    -0.315 N 
HETATM    3  C   UNL     1     -41.443 -46.662  11.426  1.00  0.00     0.247 A 
HETATM    4  C   UNL     1     -41.725 -45.952  10.150  1.00  0.00     0.075 A 
HETATM    5  O   UNL     1     -40.364 -46.502  11.992  1.00  0.00    -0.268 OA
HETATM    6  C   UNL     1     -42.861 -46.192   9.479  1.00  0.00     0.023 A 
HETATM    7  C   UNL     1     -43.840 -47.141   9.980  1.00  0.00     0.063 A 
HETATM    8  C   UNL     1     -43.611 -47.737  11.162  1.00  0.00     0.110 A 
BRANCH   7   9
HETATM    9  C   UNL     1     -45.055 -47.462   9.153  1.00  0.00     0.418 C 
HETATM   10  F   UNL     1     -45.952 -48.239   9.813  1.00  0.00    -0.166 F 
HETATM   11  F   UNL     1     -44.725 -48.124   8.015  1.00  0.00    -0.166 F 
HETATM   12  F   UNL     1     -45.718 -46.339   8.777  1.00  0.00    -0.166 F 
ENDBRANCH   7   9
ENDBRANCH   1   2
BRANCH   1  13
HETATM   13  C   UNL     1     -42.092 -49.733  12.845  1.00  0.00     0.236 C 
HETATM   14  O   UNL     1     -41.532 -50.154  11.837  1.00  0.00    -0.272 OA
HETATM   15  N   UNL     1     -42.594 -50.539  13.843  1.00  0.00    -0.355 N 
HETATM   16  H   UNL     1     -42.885 -50.082  14.702  1.00  0.00     0.162 HD
BRANCH  15  17
HETATM   17  C   UNL     1     -42.655 -52.005  13.810  1.00  0.00     0.084 C 
HETATM   18  C   UNL     1     -41.258 -52.641  13.779  1.00  0.00     0.025 C 
HETATM   19  C   UNL     1     -41.182 -54.148  14.056  1.00  0.00     0.002 C 
HETATM   20  C   UNL     1     -42.038 -54.645  15.228  1.00  0.00     0.000 C 
HETATM   21  C   UNL     1     -43.351 -55.323  14.830  1.00  0.00     0.000 C 
HETATM   22  C   UNL     1     -44.426 -54.463  14.158  1.00  0.00     0.000 C 
HETATM   23  C   UNL     1     -44.058 -53.951  12.763  1.00  0.00     0.002 C 
HETATM   24  C   UNL     1     -43.596 -52.490  12.698  1.00  0.00     0.025 C 
ENDBRANCH  15  17
ENDBRANCH   1  13
TORSDOF 4
ENDMDL
