MODEL 1
REMARK VINA RESULT:      -7.1      0.000      0.000
REMARK  6 active torsions:
REMARK  status: ('A' for Active; 'I' for Inactive)
REMARK    1  A    between atoms: N_8  and  C_9 
REMARK    2  A    between atoms: C_9  and  C_10 
REMARK    3  A    between atoms: C_10  and  O_11 
REMARK    4  A    between atoms: C_10  and  C_12 
REMARK    5  A    between atoms: C_12  and  S_13 
REMARK    6  A    between atoms: S_13  and  C_14 
ROOT
HETATM    1  C   UNL     1     -41.840 -49.997  12.097  1.00  0.00     0.162 C 
ENDROOT
BRANCH   1   2
HETATM    2  N   UNL     1     -42.164 -51.387  12.375  1.00  0.00    -0.339 N 
HETATM    3  C   UNL     1     -41.351 -52.451  12.094  1.00  0.00     0.184 A 
HETATM    4  N   UNL     1     -41.897 -53.590  12.452  1.00  0.00    -0.350 N 
HETATM    5  C   UNL     1     -43.120 -53.252  12.977  1.00  0.00     0.060 A 
ATOM      6  HN  UNL     1     -41.499 -54.524  12.360  1.00  0.00     0.166 HD
HETATM    7  C   UNL     1     -44.111 -54.075  13.531  1.00  0.00     0.039 A 
HETATM    8  C   UNL     1     -43.332 -51.878  12.911  1.00  0.00     0.062 A 
HETATM    9  C   UNL     1     -45.298 -53.501  14.028  1.00  0.00    -0.054 A 
HETATM   10  C   UNL     1     -46.330 -54.399  14.656  1.00  0.00     0.049 C 
HETATM   11  C   UNL     1     -45.494 -52.107  13.943  1.00  0.00    -0.054 A 
HETATM   12  C   UNL     1     -44.517 -51.282  13.354  1.00  0.00     0.039 A 
HETATM   13  C   UNL     1     -46.739 -51.462  14.497  1.00  0.00     0.049 C 
ENDBRANCH   1   2
BRANCH   1  14
HETATM   14  C   UNL     1     -40.430 -49.782  11.509  1.00  0.00     0.146 C 
BRANCH  14  15
HETATM   15  O   UNL     1     -40.452 -49.882  10.078  1.00  0.00    -0.393 OA
HETATM   16  H   UNL     1     -40.784 -49.055   9.691  1.00  0.00     0.210 HD
ENDBRANCH  14  15
BRANCH  14  17
HETATM   17  C   UNL     1     -39.812 -48.423  11.884  1.00  0.00     0.115 C 
BRANCH  17  18
HETATM   18  S   UNL     1     -41.070 -47.161  12.269  1.00  0.00    -0.089 SA
BRANCH  18  19
HETATM   19  C   UNL     1     -40.588 -45.873  11.225  1.00  0.00     0.172 A 
HETATM   20  N   UNL     1     -39.733 -45.924  10.232  1.00  0.00    -0.265 N 
HETATM   21  N   UNL     1     -39.683 -44.649   9.716  1.00  0.00    -0.007 NA
ATOM     22  HN  UNL     1     -39.213 -46.740   9.909  1.00  0.00     0.186 HD
HETATM   23  N   UNL     1     -40.498 -43.835  10.377  1.00  0.00    -0.005 NA
HETATM   24  N   UNL     1     -41.066 -44.598  11.322  1.00  0.00    -0.260 N 
HETATM   25  C   UNL     1     -42.032 -44.045  12.232  1.00  0.00     0.177 C 
ENDBRANCH  18  19
ENDBRANCH  17  18
ENDBRANCH  14  17
ENDBRANCH   1  14
TORSDOF 6
ENDMDL
MODEL 2
REMARK VINA RESULT:      -7.0      3.356      3.712
REMARK  6 active torsions:
REMARK  status: ('A' for Active; 'I' for Inactive)
REMARK    1  A    between atoms: N_8  and  C_9 
REMARK    2  A    between atoms: C_9  and  C_10 
REMARK    3  A    between atoms: C_10  and  O_11 
REMARK    4  A    between atoms: C_10  and  C_12 
REMARK    5  A    between atoms: C_12  and  S_13 
REMARK    6  A    between atoms: S_13  and  C_14 
ROOT
HETATM    1  C   UNL     1     -41.290 -48.954  12.542  1.00  0.00     0.162 C 
ENDROOT
BRANCH   1   2
HETATM    2  N   UNL     1     -41.563 -50.367  12.331  1.00  0.00    -0.339 N 
HETATM    3  C   UNL     1     -40.731 -51.235  11.680  1.00  0.00     0.184 A 
HETATM    4  N   UNL     1     -41.229 -52.449  11.636  1.00  0.00    -0.350 N 
HETATM    5  C   UNL     1     -42.441 -52.362  12.276  1.00  0.00     0.060 A 
ATOM      6  HN  UNL     1     -40.808 -53.278  11.217  1.00  0.00     0.166 HD
HETATM    7  C   UNL     1     -43.386 -53.365  12.538  1.00  0.00     0.039 A 
HETATM    8  C   UNL     1     -42.695 -51.059  12.694  1.00  0.00     0.062 A 
HETATM    9  C   UNL     1     -44.569 -53.046  13.232  1.00  0.00    -0.054 A 
HETATM   10  C   UNL     1     -45.550 -54.146  13.539  1.00  0.00     0.049 C 
HETATM   11  C   UNL     1     -44.809 -51.716  13.640  1.00  0.00    -0.054 A 
HETATM   12  C   UNL     1     -43.879 -50.700  13.347  1.00  0.00     0.039 A 
HETATM   13  C   UNL     1     -46.049 -51.352  14.414  1.00  0.00     0.049 C 
ENDBRANCH   1   2
BRANCH   1  14
HETATM   14  C   UNL     1     -41.589 -48.064  11.318  1.00  0.00     0.146 C 
BRANCH  14  15
HETATM   15  O   UNL     1     -41.424 -48.800  10.097  1.00  0.00    -0.393 OA
HETATM   16  H   UNL     1     -41.705 -49.721  10.224  1.00  0.00     0.210 HD
ENDBRANCH  14  15
BRANCH  14  17
HETATM   17  C   UNL     1     -43.007 -47.464  11.329  1.00  0.00     0.115 C 
BRANCH  17  18
HETATM   18  S   UNL     1     -43.307 -46.345   9.922  1.00  0.00    -0.089 SA
BRANCH  18  19
HETATM   19  C   UNL     1     -44.721 -47.049   9.225  1.00  0.00     0.172 A 
HETATM   20  N   UNL     1     -45.962 -46.915   9.625  1.00  0.00    -0.265 N 
HETATM   21  N   UNL     1     -46.718 -47.670   8.757  1.00  0.00    -0.007 NA
ATOM     22  HN  UNL     1     -46.299 -46.365  10.416  1.00  0.00     0.186 HD
HETATM   23  N   UNL     1     -45.953 -48.249   7.838  1.00  0.00    -0.005 NA
HETATM   24  N   UNL     1     -44.702 -47.862   8.129  1.00  0.00    -0.260 N 
HETATM   25  C   UNL     1     -43.593 -48.292   7.322  1.00  0.00     0.177 C 
ENDBRANCH  18  19
ENDBRANCH  17  18
ENDBRANCH  14  17
ENDBRANCH   1  14
TORSDOF 6
ENDMDL
MODEL 3
REMARK VINA RESULT:      -6.9      2.826      3.682
REMARK  6 active torsions:
REMARK  status: ('A' for Active; 'I' for Inactive)
REMARK    1  A    between atoms: N_8  and  C_9 
REMARK    2  A    between atoms: C_9  and  C_10 
REMARK    3  A    between atoms: C_10  and  O_11 
REMARK    4  A    between atoms: C_10  and  C_12 
REMARK    5  A    between atoms: C_12  and  S_13 
REMARK    6  A    between atoms: S_13  and  C_14 
ROOT
HETATM    1  C   UNL     1     -41.901 -49.560  12.409  1.00  0.00     0.162 C 
ENDROOT
BRANCH   1   2
HETATM    2  N   UNL     1     -42.126 -50.995  12.453  1.00  0.00    -0.339 N 
HETATM    3  C   UNL     1     -41.249 -51.938  11.990  1.00  0.00     0.184 A 
HETATM    4  N   UNL     1     -41.710 -53.156  12.155  1.00  0.00    -0.350 N 
HETATM    5  C   UNL     1     -42.943 -52.996  12.740  1.00  0.00     0.060 A 
ATOM      6  HN  UNL     1     -41.253 -54.032  11.904  1.00  0.00     0.166 HD
HETATM    7  C   UNL     1     -43.866 -53.967  13.155  1.00  0.00     0.039 A 
HETATM    8  C   UNL     1     -43.247 -51.649  12.907  1.00  0.00     0.062 A 
HETATM    9  C   UNL     1     -45.079 -53.568  13.752  1.00  0.00    -0.054 A 
HETATM   10  C   UNL     1     -46.035 -54.627  14.229  1.00  0.00     0.049 C 
HETATM   11  C   UNL     1     -45.369 -52.196  13.905  1.00  0.00    -0.054 A 
HETATM   12  C   UNL     1     -44.460 -51.218  13.455  1.00  0.00     0.039 A 
HETATM   13  C   UNL     1     -46.642 -51.740  14.570  1.00  0.00     0.049 C 
ENDBRANCH   1   2
BRANCH   1  14
HETATM   14  C   UNL     1     -41.280 -49.056  11.090  1.00  0.00     0.146 C 
BRANCH  14  15
HETATM   15  O   UNL     1     -42.286 -48.504  10.229  1.00  0.00    -0.393 OA
HETATM   16  H   UNL     1     -42.249 -48.932   9.357  1.00  0.00     0.210 HD
ENDBRANCH  14  15
BRANCH  14  17
HETATM   17  C   UNL     1     -40.189 -47.990  11.296  1.00  0.00     0.115 C 
BRANCH  17  18
HETATM   18  S   UNL     1     -39.168 -48.304  12.774  1.00  0.00    -0.089 SA
BRANCH  18  19
HETATM   19  C   UNL     1     -38.215 -49.644  12.248  1.00  0.00     0.172 A 
HETATM   20  N   UNL     1     -37.805 -49.907  11.031  1.00  0.00    -0.265 N 
HETATM   21  N   UNL     1     -37.091 -51.080  11.123  1.00  0.00    -0.007 NA
ATOM     22  HN  UNL     1     -37.979 -49.356  10.190  1.00  0.00     0.186 HD
HETATM   23  N   UNL     1     -37.059 -51.522  12.375  1.00  0.00    -0.005 NA
HETATM   24  N   UNL     1     -37.761 -50.625  13.082  1.00  0.00    -0.260 N 
HETATM   25  C   UNL     1     -37.928 -50.775  14.502  1.00  0.00     0.177 C 
ENDBRANCH  18  19
ENDBRANCH  17  18
ENDBRANCH  14  17
ENDBRANCH   1  14
TORSDOF 6
ENDMDL
MODEL 4
REMARK VINA RESULT:      -6.5      2.094      2.184
REMARK  6 active torsions:
REMARK  status: ('A' for Active; 'I' for Inactive)
REMARK    1  A    between atoms: N_8  and  C_9 
REMARK    2  A    between atoms: C_9  and  C_10 
REMARK    3  A    between atoms: C_10  and  O_11 
REMARK    4  A    between atoms: C_10  and  C_12 
REMARK    5  A    between atoms: C_12  and  S_13 
REMARK    6  A    between atoms: S_13  and  C_14 
ROOT
HETATM    1  C   UNL     1     -40.878 -50.260  13.150  1.00  0.00     0.162 C 
ENDROOT
BRANCH   1   2
HETATM    2  N   UNL     1     -41.124 -51.675  13.373  1.00  0.00    -0.339 N 
HETATM    3  C   UNL     1     -40.152 -52.614  13.584  1.00  0.00     0.184 A 
HETATM    4  N   UNL     1     -40.659 -53.813  13.755  1.00  0.00    -0.350 N 
HETATM    5  C   UNL     1     -42.018 -53.646  13.639  1.00  0.00     0.060 A 
ATOM      6  HN  UNL     1     -40.154 -54.680  13.936  1.00  0.00     0.166 HD
HETATM    7  C   UNL     1     -43.046 -54.593  13.756  1.00  0.00     0.039 A 
HETATM    8  C   UNL     1     -42.339 -52.320  13.364  1.00  0.00     0.062 A 
HETATM    9  C   UNL     1     -44.388 -54.189  13.610  1.00  0.00    -0.054 A 
HETATM   10  C   UNL     1     -45.476 -55.214  13.781  1.00  0.00     0.049 C 
HETATM   11  C   UNL     1     -44.689 -52.841  13.324  1.00  0.00    -0.054 A 
HETATM   12  C   UNL     1     -43.657 -51.895  13.170  1.00  0.00     0.039 A 
HETATM   13  C   UNL     1     -46.116 -52.373  13.197  1.00  0.00     0.049 C 
ENDBRANCH   1   2
BRANCH   1  14
HETATM   14  C   UNL     1     -40.272 -49.933  11.769  1.00  0.00     0.146 C 
BRANCH  14  15
HETATM   15  O   UNL     1     -40.718 -50.872  10.780  1.00  0.00    -0.393 OA
HETATM   16  H   UNL     1     -40.604 -51.780  11.107  1.00  0.00     0.210 HD
ENDBRANCH  14  15
BRANCH  14  17
HETATM   17  C   UNL     1     -40.612 -48.516  11.272  1.00  0.00     0.115 C 
BRANCH  17  18
HETATM   18  S   UNL     1     -42.335 -48.040  11.632  1.00  0.00    -0.089 SA
BRANCH  18  19
HETATM   19  C   UNL     1     -42.821 -47.363  10.120  1.00  0.00     0.172 A 
HETATM   20  N   UNL     1     -43.210 -48.003   9.044  1.00  0.00    -0.265 N 
HETATM   21  N   UNL     1     -43.481 -47.030   8.108  1.00  0.00    -0.007 NA
ATOM     22  HN  UNL     1     -43.295 -49.012   8.924  1.00  0.00     0.186 HD
HETATM   23  N   UNL     1     -43.268 -45.817   8.605  1.00  0.00    -0.005 NA
HETATM   24  N   UNL     1     -42.856 -46.022   9.865  1.00  0.00    -0.260 N 
HETATM   25  C   UNL     1     -42.541 -44.914  10.725  1.00  0.00     0.177 C 
ENDBRANCH  18  19
ENDBRANCH  17  18
ENDBRANCH  14  17
ENDBRANCH   1  14
TORSDOF 6
ENDMDL
MODEL 5
REMARK VINA RESULT:      -6.5      3.696      4.445
REMARK  6 active torsions:
REMARK  status: ('A' for Active; 'I' for Inactive)
REMARK    1  A    between atoms: N_8  and  C_9 
REMARK    2  A    between atoms: C_9  and  C_10 
REMARK    3  A    between atoms: C_10  and  O_11 
REMARK    4  A    between atoms: C_10  and  C_12 
REMARK    5  A    between atoms: C_12  and  S_13 
REMARK    6  A    between atoms: S_13  and  C_14 
ROOT
HETATM    1  C   UNL     1     -42.650 -51.812  12.997  1.00  0.00     0.162 C 
ENDROOT
BRANCH   1   2
HETATM    2  N   UNL     1     -44.026 -52.192  13.274  1.00  0.00    -0.339 N 
HETATM    3  C   UNL     1     -44.768 -53.053  12.512  1.00  0.00     0.184 A 
HETATM    4  N   UNL     1     -45.978 -53.214  12.995  1.00  0.00    -0.350 N 
HETATM    5  C   UNL     1     -46.027 -52.416  14.112  1.00  0.00     0.060 A 
ATOM      6  HN  UNL     1     -46.721 -53.804  12.623  1.00  0.00     0.166 HD
HETATM    7  C   UNL     1     -47.074 -52.221  15.025  1.00  0.00     0.039 A 
HETATM    8  C   UNL     1     -44.827 -51.734  14.294  1.00  0.00     0.062 A 
HETATM    9  C   UNL     1     -46.893 -51.354  16.121  1.00  0.00    -0.054 A 
HETATM   10  C   UNL     1     -48.015 -51.193  17.110  1.00  0.00     0.049 C 
HETATM   11  C   UNL     1     -45.671 -50.668  16.281  1.00  0.00    -0.054 A 
HETATM   12  C   UNL     1     -44.631 -50.833  15.346  1.00  0.00     0.039 A 
HETATM   13  C   UNL     1     -45.438 -49.761  17.462  1.00  0.00     0.049 C 
ENDBRANCH   1   2
BRANCH   1  14
HETATM   14  C   UNL     1     -41.785 -52.947  12.414  1.00  0.00     0.146 C 
BRANCH  14  15
HETATM   15  O   UNL     1     -41.424 -52.669  11.053  1.00  0.00    -0.393 OA
HETATM   16  H   UNL     1     -41.132 -51.746  10.969  1.00  0.00     0.210 HD
ENDBRANCH  14  15
BRANCH  14  17
HETATM   17  C   UNL     1     -40.492 -53.202  13.209  1.00  0.00     0.115 C 
BRANCH  17  18
HETATM   18  S   UNL     1     -40.014 -51.780  14.247  1.00  0.00    -0.089 SA
BRANCH  18  19
HETATM   19  C   UNL     1     -39.072 -50.853  13.136  1.00  0.00     0.172 A 
HETATM   20  N   UNL     1     -39.184 -50.811  11.831  1.00  0.00    -0.265 N 
HETATM   21  N   UNL     1     -38.210 -49.939  11.400  1.00  0.00    -0.007 NA
ATOM     22  HN  UNL     1     -39.854 -51.320  11.253  1.00  0.00     0.186 HD
HETATM   23  N   UNL     1     -37.520 -49.450  12.424  1.00  0.00    -0.005 NA
HETATM   24  N   UNL     1     -38.058 -50.020  13.513  1.00  0.00    -0.260 N 
HETATM   25  C   UNL     1     -37.563 -49.709  14.826  1.00  0.00     0.177 C 
ENDBRANCH  18  19
ENDBRANCH  17  18
ENDBRANCH  14  17
ENDBRANCH   1  14
TORSDOF 6
ENDMDL
MODEL 6
REMARK VINA RESULT:      -6.4      2.012      2.333
REMARK  6 active torsions:
REMARK  status: ('A' for Active; 'I' for Inactive)
REMARK    1  A    between atoms: N_8  and  C_9 
REMARK    2  A    between atoms: C_9  and  C_10 
REMARK    3  A    between atoms: C_10  and  O_11 
REMARK    4  A    between atoms: C_10  and  C_12 
REMARK    5  A    between atoms: C_12  and  S_13 
REMARK    6  A    between atoms: S_13  and  C_14 
ROOT
HETATM    1  C   UNL     1     -41.979 -49.606  13.137  1.00  0.00     0.162 C 
ENDROOT
BRANCH   1   2
HETATM    2  N   UNL     1     -42.186 -51.010  12.822  1.00  0.00    -0.339 N 
HETATM    3  C   UNL     1     -41.351 -51.769  12.048  1.00  0.00     0.184 A 
HETATM    4  N   UNL     1     -41.783 -53.003  11.929  1.00  0.00    -0.350 N 
HETATM    5  C   UNL     1     -42.954 -53.043  12.645  1.00  0.00     0.060 A 
ATOM      6  HN  UNL     1     -41.344 -53.767  11.415  1.00  0.00     0.166 HD
HETATM    7  C   UNL     1     -43.823 -54.120  12.874  1.00  0.00     0.039 A 
HETATM    8  C   UNL     1     -43.252 -51.798  13.189  1.00  0.00     0.062 A 
HETATM    9  C   UNL     1     -44.975 -53.932  13.663  1.00  0.00    -0.054 A 
HETATM   10  C   UNL     1     -45.871 -55.111  13.930  1.00  0.00     0.049 C 
HETATM   11  C   UNL     1     -45.261 -52.659  14.198  1.00  0.00    -0.054 A 
HETATM   12  C   UNL     1     -44.410 -51.567  13.940  1.00  0.00     0.039 A 
HETATM   13  C   UNL     1     -46.467 -52.437  15.074  1.00  0.00     0.049 C 
ENDBRANCH   1   2
BRANCH   1  14
HETATM   14  C   UNL     1     -42.315 -48.641  11.982  1.00  0.00     0.146 C 
BRANCH  14  15
HETATM   15  O   UNL     1     -43.679 -48.798  11.564  1.00  0.00    -0.393 OA
HETATM   16  H   UNL     1     -44.229 -49.067  12.319  1.00  0.00     0.210 HD
ENDBRANCH  14  15
BRANCH  14  17
HETATM   17  C   UNL     1     -42.089 -47.160  12.336  1.00  0.00     0.115 C 
BRANCH  17  18
HETATM   18  S   UNL     1     -41.187 -46.256  11.034  1.00  0.00    -0.089 SA
BRANCH  18  19
HETATM   19  C   UNL     1     -42.446 -45.281  10.366  1.00  0.00     0.172 A 
HETATM   20  N   UNL     1     -42.771 -44.055  10.696  1.00  0.00    -0.265 N 
HETATM   21  N   UNL     1     -43.835 -43.720   9.890  1.00  0.00    -0.007 NA
ATOM     22  HN  UNL     1     -42.327 -43.470  11.404  1.00  0.00     0.186 HD
HETATM   23  N   UNL     1     -44.151 -44.722   9.076  1.00  0.00    -0.005 NA
HETATM   24  N   UNL     1     -43.282 -45.700   9.371  1.00  0.00    -0.260 N 
HETATM   25  C   UNL     1     -43.317 -46.952   8.666  1.00  0.00     0.177 C 
ENDBRANCH  18  19
ENDBRANCH  17  18
ENDBRANCH  14  17
ENDBRANCH   1  14
TORSDOF 6
ENDMDL
MODEL 7
REMARK VINA RESULT:      -6.3      2.904      3.641
REMARK  6 active torsions:
REMARK  status: ('A' for Active; 'I' for Inactive)
REMARK    1  A    between atoms: N_8  and  C_9 
REMARK    2  A    between atoms: C_9  and  C_10 
REMARK    3  A    between atoms: C_10  and  O_11 
REMARK    4  A    between atoms: C_10  and  C_12 
REMARK    5  A    between atoms: C_12  and  S_13 
REMARK    6  A    between atoms: S_13  and  C_14 
ROOT
HETATM    1  C   UNL     1     -41.337 -50.208  12.366  1.00  0.00     0.162 C 
ENDROOT
BRANCH   1   2
HETATM    2  N   UNL     1     -41.775 -51.584  12.536  1.00  0.00    -0.339 N 
HETATM    3  C   UNL     1     -41.028 -52.686  12.222  1.00  0.00     0.184 A 
HETATM    4  N   UNL     1     -41.673 -53.801  12.478  1.00  0.00    -0.350 N 
HETATM    5  C   UNL     1     -42.893 -53.405  12.968  1.00  0.00     0.060 A 
ATOM      6  HN  UNL     1     -41.339 -54.755  12.343  1.00  0.00     0.166 HD
HETATM    7  C   UNL     1     -43.968 -54.184  13.421  1.00  0.00     0.039 A 
HETATM    8  C   UNL     1     -43.001 -52.018  12.984  1.00  0.00     0.062 A 
HETATM    9  C   UNL     1     -45.134 -53.555  13.901  1.00  0.00    -0.054 A 
HETATM   10  C   UNL     1     -46.258 -54.409  14.421  1.00  0.00     0.049 C 
HETATM   11  C   UNL     1     -45.224 -52.147  13.900  1.00  0.00    -0.054 A 
HETATM   12  C   UNL     1     -44.160 -51.363  13.413  1.00  0.00     0.039 A 
HETATM   13  C   UNL     1     -46.444 -51.445  14.439  1.00  0.00     0.049 C 
ENDBRANCH   1   2
BRANCH   1  14
HETATM   14  C   UNL     1     -40.108 -50.044  11.449  1.00  0.00     0.146 C 
BRANCH  14  15
HETATM   15  O   UNL     1     -40.508 -49.873  10.082  1.00  0.00    -0.393 OA
HETATM   16  H   UNL     1     -39.746 -50.005   9.493  1.00  0.00     0.210 HD
ENDBRANCH  14  15
BRANCH  14  17
HETATM   17  C   UNL     1     -39.210 -48.855  11.837  1.00  0.00     0.115 C 
BRANCH  17  18
HETATM   18  S   UNL     1     -39.679 -48.112  13.434  1.00  0.00    -0.089 SA
BRANCH  18  19
HETATM   19  C   UNL     1     -38.218 -48.298  14.335  1.00  0.00     0.172 A 
HETATM   20  N   UNL     1     -37.300 -47.391  14.570  1.00  0.00    -0.265 N 
HETATM   21  N   UNL     1     -36.334 -48.023  15.320  1.00  0.00    -0.007 NA
ATOM     22  HN  UNL     1     -37.301 -46.419  14.260  1.00  0.00     0.186 HD
HETATM   23  N   UNL     1     -36.659 -49.290  15.547  1.00  0.00    -0.005 NA
HETATM   24  N   UNL     1     -37.838 -49.466  14.932  1.00  0.00    -0.260 N 
HETATM   25  C   UNL     1     -38.510 -50.735  14.979  1.00  0.00     0.177 C 
ENDBRANCH  18  19
ENDBRANCH  17  18
ENDBRANCH  14  17
ENDBRANCH   1  14
TORSDOF 6
ENDMDL
MODEL 8
REMARK VINA RESULT:      -6.3      3.438      4.629
REMARK  6 active torsions:
REMARK  status: ('A' for Active; 'I' for Inactive)
REMARK    1  A    between atoms: N_8  and  C_9 
REMARK    2  A    between atoms: C_9  and  C_10 
REMARK    3  A    between atoms: C_10  and  O_11 
REMARK    4  A    between atoms: C_10  and  C_12 
REMARK    5  A    between atoms: C_12  and  S_13 
REMARK    6  A    between atoms: S_13  and  C_14 
ROOT
HETATM    1  C   UNL     1     -42.665 -50.937  12.807  1.00  0.00     0.162 C 
ENDROOT
BRANCH   1   2
HETATM    2  N   UNL     1     -43.112 -52.279  13.145  1.00  0.00    -0.339 N 
HETATM    3  C   UNL     1     -44.111 -52.956  12.500  1.00  0.00     0.184 A 
HETATM    4  N   UNL     1     -44.305 -54.148  13.015  1.00  0.00    -0.350 N 
HETATM    5  C   UNL     1     -43.402 -54.244  14.045  1.00  0.00     0.060 A 
ATOM      6  HN  UNL     1     -44.980 -54.851  12.716  1.00  0.00     0.166 HD
HETATM    7  C   UNL     1     -43.158 -55.311  14.922  1.00  0.00     0.039 A 
HETATM    8  C   UNL     1     -42.662 -53.072  14.174  1.00  0.00     0.062 A 
HETATM    9  C   UNL     1     -42.159 -55.191  15.908  1.00  0.00    -0.054 A 
HETATM   10  C   UNL     1     -41.886 -56.364  16.810  1.00  0.00     0.049 C 
HETATM   11  C   UNL     1     -41.426 -53.991  16.025  1.00  0.00    -0.054 A 
HETATM   12  C   UNL     1     -41.694 -52.904  15.170  1.00  0.00     0.039 A 
HETATM   13  C   UNL     1     -40.328 -53.847  17.047  1.00  0.00     0.049 C 
ENDBRANCH   1   2
BRANCH   1  14
HETATM   14  C   UNL     1     -41.277 -50.883  12.137  1.00  0.00     0.146 C 
BRANCH  14  15
HETATM   15  O   UNL     1     -41.135 -51.932  11.168  1.00  0.00    -0.393 OA
HETATM   16  H   UNL     1     -40.198 -52.045  10.936  1.00  0.00     0.210 HD
ENDBRANCH  14  15
BRANCH  14  17
HETATM   17  C   UNL     1     -40.987 -49.543  11.437  1.00  0.00     0.115 C 
BRANCH  17  18
HETATM   18  S   UNL     1     -39.503 -48.713  12.096  1.00  0.00    -0.089 SA
BRANCH  18  19
HETATM   19  C   UNL     1     -38.305 -49.934  11.869  1.00  0.00     0.172 A 
HETATM   20  N   UNL     1     -37.700 -50.265  10.754  1.00  0.00    -0.265 N 
HETATM   21  N   UNL     1     -36.843 -51.291  11.084  1.00  0.00    -0.007 NA
ATOM     22  HN  UNL     1     -37.835 -49.849   9.832  1.00  0.00     0.186 HD
HETATM   23  N   UNL     1     -36.918 -51.576  12.379  1.00  0.00    -0.005 NA
HETATM   24  N   UNL     1     -37.832 -50.728  12.874  1.00  0.00    -0.260 N 
HETATM   25  C   UNL     1     -38.166 -50.740  14.271  1.00  0.00     0.177 C 
ENDBRANCH  18  19
ENDBRANCH  17  18
ENDBRANCH  14  17
ENDBRANCH   1  14
TORSDOF 6
ENDMDL
MODEL 9
REMARK VINA RESULT:      -6.3      1.726      2.265
REMARK  6 active torsions:
REMARK  status: ('A' for Active; 'I' for Inactive)
REMARK    1  A    between atoms: N_8  and  C_9 
REMARK    2  A    between atoms: C_9  and  C_10 
REMARK    3  A    between atoms: C_10  and  O_11 
REMARK    4  A    between atoms: C_10  and  C_12 
REMARK    5  A    between atoms: C_12  and  S_13 
REMARK    6  A    between atoms: S_13  and  C_14 
ROOT
HETATM    1  C   UNL     1     -40.107 -50.265  11.688  1.00  0.00     0.162 C 
ENDROOT
BRANCH   1   2
HETATM    2  N   UNL     1     -40.027 -51.313  12.693  1.00  0.00    -0.339 N 
HETATM    3  C   UNL     1     -38.929 -51.570  13.467  1.00  0.00     0.184 A 
HETATM    4  N   UNL     1     -39.136 -52.574  14.289  1.00  0.00    -0.350 N 
HETATM    5  C   UNL     1     -40.418 -52.991  14.029  1.00  0.00     0.060 A 
ATOM      6  HN  UNL     1     -38.485 -52.960  14.973  1.00  0.00     0.166 HD
HETATM    7  C   UNL     1     -41.162 -54.016  14.631  1.00  0.00     0.039 A 
HETATM    8  C   UNL     1     -40.992 -52.241  13.006  1.00  0.00     0.062 A 
HETATM    9  C   UNL     1     -42.484 -54.262  14.208  1.00  0.00    -0.054 A 
HETATM   10  C   UNL     1     -43.278 -55.338  14.897  1.00  0.00     0.049 C 
HETATM   11  C   UNL     1     -43.042 -53.493  13.164  1.00  0.00    -0.054 A 
HETATM   12  C   UNL     1     -42.285 -52.488  12.532  1.00  0.00     0.039 A 
HETATM   13  C   UNL     1     -44.464 -53.711  12.714  1.00  0.00     0.049 C 
ENDBRANCH   1   2
BRANCH   1  14
HETATM   14  C   UNL     1     -39.468 -48.928  12.116  1.00  0.00     0.146 C 
BRANCH  14  15
HETATM   15  O   UNL     1     -38.639 -48.400  11.070  1.00  0.00    -0.393 OA
HETATM   16  H   UNL     1     -37.723 -48.310  11.384  1.00  0.00     0.210 HD
ENDBRANCH  14  15
BRANCH  14  17
HETATM   17  C   UNL     1     -40.499 -47.851  12.499  1.00  0.00     0.115 C 
BRANCH  17  18
HETATM   18  S   UNL     1     -41.557 -47.361  11.097  1.00  0.00    -0.089 SA
BRANCH  18  19
HETATM   19  C   UNL     1     -40.829 -45.866  10.631  1.00  0.00     0.172 A 
HETATM   20  N   UNL     1     -39.780 -45.690   9.865  1.00  0.00    -0.265 N 
HETATM   21  N   UNL     1     -39.589 -44.328   9.800  1.00  0.00    -0.007 NA
ATOM     22  HN  UNL     1     -39.221 -46.413   9.411  1.00  0.00     0.186 HD
HETATM   23  N   UNL     1     -40.509 -43.683  10.508  1.00  0.00    -0.005 NA
HETATM   24  N   UNL     1     -41.287 -44.643  11.029  1.00  0.00    -0.260 N 
HETATM   25  C   UNL     1     -42.415 -44.308  11.856  1.00  0.00     0.177 C 
ENDBRANCH  18  19
ENDBRANCH  17  18
ENDBRANCH  14  17
ENDBRANCH   1  14
TORSDOF 6
ENDMDL
