MODEL 1
REMARK VINA RESULT:      -6.5      0.000      0.000
REMARK  7 active torsions:
REMARK  status: ('A' for Active; 'I' for Inactive)
REMARK       I    between atoms: C_2  and  N_4 
REMARK    1  A    between atoms: N_4  and  C_5 
REMARK    2  A    between atoms: C_5  and  C_6 
REMARK    3  A    between atoms: C_6  and  C_7 
REMARK    4  A    between atoms: N_16  and  C_17 
REMARK    5  A    between atoms: C_17  and  C_18 
REMARK    6  A    between atoms: C_18  and  O_19 
REMARK    7  A    between atoms: O_19  and  C_20 
ROOT
HETATM    1  C   UNL     1     -42.588 -50.548  12.499  1.00  0.00     0.086 A 
HETATM    2  N   UNL     1     -43.818 -50.196  12.816  1.00  0.00    -0.344 N 
ATOM      3  HN  UNL     1     -44.196 -49.249  12.845  1.00  0.00     0.167 HD
HETATM    4  C   UNL     1     -44.483 -51.354  13.097  1.00  0.00     0.060 A 
HETATM    5  C   UNL     1     -45.815 -51.519  13.513  1.00  0.00     0.032 A 
HETATM    6  C   UNL     1     -46.308 -52.806  13.747  1.00  0.00     0.002 A 
HETATM    7  C   UNL     1     -45.488 -53.911  13.562  1.00  0.00     0.002 A 
HETATM    8  C   UNL     1     -44.160 -53.766  13.148  1.00  0.00     0.032 A 
HETATM    9  C   UNL     1     -43.659 -52.468  12.920  1.00  0.00     0.062 A 
HETATM   10  N   UNL     1     -42.441 -51.930  12.532  1.00  0.00    -0.333 N 
ENDROOT
BRANCH  10  11
HETATM   11  C   UNL     1     -41.189 -52.607  12.211  1.00  0.00     0.157 C 
BRANCH  11  12
HETATM   12  C   UNL     1     -40.366 -53.078  13.399  1.00  0.00     0.196 C 
BRANCH  12  13
HETATM   13  O   UNL     1     -38.965 -52.832  13.242  1.00  0.00    -0.350 OA
BRANCH  13  14
HETATM   14  C   UNL     1     -38.637 -51.514  13.480  1.00  0.00     0.068 A 
HETATM   15  C   UNL     1     -38.998 -51.000  14.723  1.00  0.00     0.037 A 
HETATM   16  C   UNL     1     -38.737 -49.660  15.037  1.00  0.00     0.009 A 
HETATM   17  C   UNL     1     -38.101 -48.824  14.113  1.00  0.00    -0.062 A 
HETATM   18  C   UNL     1     -37.822 -47.382  14.420  1.00  0.00     0.048 C 
HETATM   19  C   UNL     1     -37.705 -49.353  12.882  1.00  0.00     0.009 A 
HETATM   20  C   UNL     1     -37.964 -50.689  12.571  1.00  0.00     0.037 A 
ENDBRANCH  13  14
ENDBRANCH  12  13
ENDBRANCH  11  12
ENDBRANCH  10  11
BRANCH   1  21
HETATM   21  C   UNL     1     -41.502 -49.583  12.133  1.00  0.00     0.096 C 
BRANCH  21  22
HETATM   22  C   UNL     1     -42.079 -48.283  11.563  1.00  0.00     0.130 C 
BRANCH  22  23
HETATM   23  N   UNL     1     -42.485 -48.417  10.172  1.00  0.00    -0.361 N 
HETATM   24  C   UNL     1     -43.037 -47.368   9.474  1.00  0.00     0.213 C 
HETATM   25  C   UNL     1     -43.457 -47.732   8.077  1.00  0.00     0.117 C 
HETATM   26  O   UNL     1     -43.181 -46.241   9.936  1.00  0.00    -0.274 OA
HETATM   27  H   UNL     1     -42.335 -49.303   9.709  1.00  0.00     0.162 HD
ENDBRANCH  22  23
ENDBRANCH  21  22
ENDBRANCH   1  21
TORSDOF 7
ENDMDL
MODEL 2
REMARK VINA RESULT:      -6.3      2.082      5.983
REMARK  7 active torsions:
REMARK  status: ('A' for Active; 'I' for Inactive)
REMARK       I    between atoms: C_2  and  N_4 
REMARK    1  A    between atoms: N_4  and  C_5 
REMARK    2  A    between atoms: C_5  and  C_6 
REMARK    3  A    between atoms: C_6  and  C_7 
REMARK    4  A    between atoms: N_16  and  C_17 
REMARK    5  A    between atoms: C_17  and  C_18 
REMARK    6  A    between atoms: C_18  and  O_19 
REMARK    7  A    between atoms: O_19  and  C_20 
ROOT
HETATM    1  C   UNL     1     -40.926 -48.206  11.669  1.00  0.00     0.086 A 
HETATM    2  N   UNL     1     -39.880 -48.598  10.970  1.00  0.00    -0.344 N 
ATOM      3  HN  UNL     1     -39.669 -48.365  10.000  1.00  0.00     0.167 HD
HETATM    4  C   UNL     1     -39.136 -49.380  11.807  1.00  0.00     0.060 A 
HETATM    5  C   UNL     1     -37.938 -50.060  11.533  1.00  0.00     0.032 A 
HETATM    6  C   UNL     1     -37.328 -50.812  12.541  1.00  0.00     0.002 A 
HETATM    7  C   UNL     1     -37.899 -50.876  13.806  1.00  0.00     0.002 A 
HETATM    8  C   UNL     1     -39.092 -50.204  14.096  1.00  0.00     0.032 A 
HETATM    9  C   UNL     1     -39.712 -49.454  13.078  1.00  0.00     0.062 A 
HETATM   10  N   UNL     1     -40.864 -48.689  12.972  1.00  0.00    -0.333 N 
ENDROOT
BRANCH  10  11
HETATM   11  C   UNL     1     -41.881 -48.401  13.979  1.00  0.00     0.157 C 
BRANCH  11  12
HETATM   12  C   UNL     1     -42.786 -49.563  14.357  1.00  0.00     0.196 C 
BRANCH  12  13
HETATM   13  O   UNL     1     -43.734 -49.889  13.336  1.00  0.00    -0.350 OA
BRANCH  13  14
HETATM   14  C   UNL     1     -44.229 -51.168  13.472  1.00  0.00     0.068 A 
HETATM   15  C   UNL     1     -43.296 -52.202  13.423  1.00  0.00     0.037 A 
HETATM   16  C   UNL     1     -43.713 -53.536  13.516  1.00  0.00     0.009 A 
HETATM   17  C   UNL     1     -45.069 -53.849  13.671  1.00  0.00    -0.062 A 
HETATM   18  C   UNL     1     -45.542 -55.269  13.760  1.00  0.00     0.048 C 
HETATM   19  C   UNL     1     -45.997 -52.809  13.760  1.00  0.00     0.009 A 
HETATM   20  C   UNL     1     -45.580 -51.479  13.668  1.00  0.00     0.037 A 
ENDBRANCH  13  14
ENDBRANCH  12  13
ENDBRANCH  11  12
ENDBRANCH  10  11
BRANCH   1  21
HETATM   21  C   UNL     1     -42.022 -47.338  11.133  1.00  0.00     0.096 C 
BRANCH  21  22
HETATM   22  C   UNL     1     -42.512 -47.836   9.770  1.00  0.00     0.130 C 
BRANCH  22  23
HETATM   23  N   UNL     1     -43.964 -47.878   9.681  1.00  0.00    -0.361 N 
HETATM   24  C   UNL     1     -44.686 -46.844   9.130  1.00  0.00     0.213 C 
HETATM   25  C   UNL     1     -46.174 -47.048   9.201  1.00  0.00     0.117 C 
HETATM   26  O   UNL     1     -44.178 -45.847   8.629  1.00  0.00    -0.274 OA
HETATM   27  H   UNL     1     -44.445 -48.701  10.017  1.00  0.00     0.162 HD
ENDBRANCH  22  23
ENDBRANCH  21  22
ENDBRANCH   1  21
TORSDOF 7
ENDMDL
MODEL 3
REMARK VINA RESULT:      -6.1      2.577      6.142
REMARK  7 active torsions:
REMARK  status: ('A' for Active; 'I' for Inactive)
REMARK       I    between atoms: C_2  and  N_4 
REMARK    1  A    between atoms: N_4  and  C_5 
REMARK    2  A    between atoms: C_5  and  C_6 
REMARK    3  A    between atoms: C_6  and  C_7 
REMARK    4  A    between atoms: N_16  and  C_17 
REMARK    5  A    between atoms: C_17  and  C_18 
REMARK    6  A    between atoms: C_18  and  O_19 
REMARK    7  A    between atoms: O_19  and  C_20 
ROOT
HETATM    1  C   UNL     1     -41.158 -48.951  11.265  1.00  0.00     0.086 A 
HETATM    2  N   UNL     1     -39.898 -49.008  10.883  1.00  0.00    -0.344 N 
ATOM      3  HN  UNL     1     -39.483 -48.556  10.068  1.00  0.00     0.167 HD
HETATM    4  C   UNL     1     -39.260 -49.795  11.798  1.00  0.00     0.060 A 
HETATM    5  C   UNL     1     -37.912 -50.187  11.825  1.00  0.00     0.032 A 
HETATM    6  C   UNL     1     -37.453 -51.003  12.864  1.00  0.00     0.002 A 
HETATM    7  C   UNL     1     -38.324 -51.413  13.865  1.00  0.00     0.002 A 
HETATM    8  C   UNL     1     -39.670 -51.031  13.854  1.00  0.00     0.032 A 
HETATM    9  C   UNL     1     -40.135 -50.217  12.803  1.00  0.00     0.062 A 
HETATM   10  N   UNL     1     -41.354 -49.661  12.444  1.00  0.00    -0.333 N 
ENDROOT
BRANCH  10  11
HETATM   11  C   UNL     1     -42.649 -49.759  13.111  1.00  0.00     0.157 C 
BRANCH  11  12
HETATM   12  C   UNL     1     -43.357 -51.099  12.988  1.00  0.00     0.196 C 
BRANCH  12  13
HETATM   13  O   UNL     1     -43.357 -51.846  14.209  1.00  0.00    -0.350 OA
BRANCH  13  14
HETATM   14  C   UNL     1     -44.489 -51.615  14.961  1.00  0.00     0.068 A 
HETATM   15  C   UNL     1     -45.708 -51.728  14.296  1.00  0.00     0.037 A 
HETATM   16  C   UNL     1     -46.908 -51.474  14.973  1.00  0.00     0.009 A 
HETATM   17  C   UNL     1     -46.901 -51.118  16.326  1.00  0.00    -0.062 A 
HETATM   18  C   UNL     1     -48.172 -50.829  17.069  1.00  0.00     0.048 C 
HETATM   19  C   UNL     1     -45.680 -51.045  17.000  1.00  0.00     0.009 A 
HETATM   20  C   UNL     1     -44.484 -51.298  16.325  1.00  0.00     0.037 A 
ENDBRANCH  13  14
ENDBRANCH  12  13
ENDBRANCH  11  12
ENDBRANCH  10  11
BRANCH   1  21
HETATM   21  C   UNL     1     -42.228 -48.200  10.533  1.00  0.00     0.096 C 
BRANCH  21  22
HETATM   22  C   UNL     1     -42.201 -46.709  10.881  1.00  0.00     0.130 C 
BRANCH  22  23
HETATM   23  N   UNL     1     -41.236 -45.968  10.083  1.00  0.00    -0.361 N 
HETATM   24  C   UNL     1     -40.039 -45.538  10.607  1.00  0.00     0.213 C 
HETATM   25  C   UNL     1     -39.218 -44.728   9.642  1.00  0.00     0.117 C 
HETATM   26  O   UNL     1     -39.666 -45.784  11.749  1.00  0.00    -0.274 OA
HETATM   27  H   UNL     1     -41.451 -45.787   9.111  1.00  0.00     0.162 HD
ENDBRANCH  22  23
ENDBRANCH  21  22
ENDBRANCH   1  21
TORSDOF 7
ENDMDL
MODEL 4
REMARK VINA RESULT:      -6.1      2.580      5.746
REMARK  7 active torsions:
REMARK  status: ('A' for Active; 'I' for Inactive)
REMARK       I    between atoms: C_2  and  N_4 
REMARK    1  A    between atoms: N_4  and  C_5 
REMARK    2  A    between atoms: C_5  and  C_6 
REMARK    3  A    between atoms: C_6  and  C_7 
REMARK    4  A    between atoms: N_16  and  C_17 
REMARK    5  A    between atoms: C_17  and  C_18 
REMARK    6  A    between atoms: C_18  and  O_19 
REMARK    7  A    between atoms: O_19  and  C_20 
ROOT
HETATM    1  C   UNL     1     -42.235 -51.073  13.746  1.00  0.00     0.086 A 
HETATM    2  N   UNL     1     -41.395 -50.841  14.734  1.00  0.00    -0.344 N 
ATOM      3  HN  UNL     1     -41.311 -49.983  15.279  1.00  0.00     0.167 HD
HETATM    4  C   UNL     1     -40.659 -51.981  14.882  1.00  0.00     0.060 A 
HETATM    5  C   UNL     1     -39.612 -52.236  15.782  1.00  0.00     0.032 A 
HETATM    6  C   UNL     1     -38.984 -53.485  15.773  1.00  0.00     0.002 A 
HETATM    7  C   UNL     1     -39.402 -54.468  14.885  1.00  0.00     0.002 A 
HETATM    8  C   UNL     1     -40.444 -54.232  13.982  1.00  0.00     0.032 A 
HETATM    9  C   UNL     1     -41.070 -52.970  13.985  1.00  0.00     0.062 A 
HETATM   10  N   UNL     1     -42.090 -52.368  13.262  1.00  0.00    -0.333 N 
ENDROOT
BRANCH  10  11
HETATM   11  C   UNL     1     -42.900 -52.910  12.176  1.00  0.00     0.157 C 
BRANCH  11  12
HETATM   12  C   UNL     1     -43.961 -53.921  12.581  1.00  0.00     0.196 C 
BRANCH  12  13
HETATM   13  O   UNL     1     -45.295 -53.448  12.371  1.00  0.00    -0.350 OA
BRANCH  13  14
HETATM   14  C   UNL     1     -45.845 -52.911  13.515  1.00  0.00     0.068 A 
HETATM   15  C   UNL     1     -45.723 -53.671  14.677  1.00  0.00     0.037 A 
HETATM   16  C   UNL     1     -46.285 -53.221  15.878  1.00  0.00     0.009 A 
HETATM   17  C   UNL     1     -46.964 -51.998  15.933  1.00  0.00    -0.062 A 
HETATM   18  C   UNL     1     -47.585 -51.500  17.204  1.00  0.00     0.048 C 
HETATM   19  C   UNL     1     -47.049 -51.220  14.776  1.00  0.00     0.009 A 
HETATM   20  C   UNL     1     -46.488 -51.670  13.579  1.00  0.00     0.037 A 
ENDBRANCH  13  14
ENDBRANCH  12  13
ENDBRANCH  11  12
ENDBRANCH  10  11
BRANCH   1  21
HETATM   21  C   UNL     1     -43.229 -50.076  13.232  1.00  0.00     0.096 C 
BRANCH  21  22
HETATM   22  C   UNL     1     -42.537 -48.941  12.471  1.00  0.00     0.130 C 
BRANCH  22  23
HETATM   23  N   UNL     1     -43.241 -48.578  11.250  1.00  0.00    -0.361 N 
HETATM   24  C   UNL     1     -42.657 -47.795  10.282  1.00  0.00     0.213 C 
HETATM   25  C   UNL     1     -43.575 -47.473   9.136  1.00  0.00     0.117 C 
HETATM   26  O   UNL     1     -41.501 -47.390  10.337  1.00  0.00    -0.274 OA
HETATM   27  H   UNL     1     -44.177 -48.933  11.110  1.00  0.00     0.162 HD
ENDBRANCH  22  23
ENDBRANCH  21  22
ENDBRANCH   1  21
TORSDOF 7
ENDMDL
MODEL 5
REMARK VINA RESULT:      -6.1      1.990      5.527
REMARK  7 active torsions:
REMARK  status: ('A' for Active; 'I' for Inactive)
REMARK       I    between atoms: C_2  and  N_4 
REMARK    1  A    between atoms: N_4  and  C_5 
REMARK    2  A    between atoms: C_5  and  C_6 
REMARK    3  A    between atoms: C_6  and  C_7 
REMARK    4  A    between atoms: N_16  and  C_17 
REMARK    5  A    between atoms: C_17  and  C_18 
REMARK    6  A    between atoms: C_18  and  O_19 
REMARK    7  A    between atoms: O_19  and  C_20 
ROOT
HETATM    1  C   UNL     1     -39.861 -50.526  12.430  1.00  0.00     0.086 A 
HETATM    2  N   UNL     1     -39.045 -50.084  13.365  1.00  0.00    -0.344 N 
ATOM      3  HN  UNL     1     -38.491 -49.227  13.340  1.00  0.00     0.167 HD
HETATM    4  C   UNL     1     -39.088 -51.003  14.373  1.00  0.00     0.060 A 
HETATM    5  C   UNL     1     -38.377 -51.007  15.584  1.00  0.00     0.032 A 
HETATM    6  C   UNL     1     -38.571 -52.052  16.493  1.00  0.00     0.002 A 
HETATM    7  C   UNL     1     -39.467 -53.072  16.201  1.00  0.00     0.002 A 
HETATM    8  C   UNL     1     -40.184 -53.083  15.000  1.00  0.00     0.032 A 
HETATM    9  C   UNL     1     -39.983 -52.035  14.080  1.00  0.00     0.062 A 
HETATM   10  N   UNL     1     -40.474 -51.710  12.824  1.00  0.00    -0.333 N 
ENDROOT
BRANCH  10  11
HETATM   11  C   UNL     1     -41.442 -52.422  11.995  1.00  0.00     0.157 C 
BRANCH  11  12
HETATM   12  C   UNL     1     -42.884 -52.378  12.474  1.00  0.00     0.196 C 
BRANCH  12  13
HETATM   13  O   UNL     1     -43.278 -51.085  12.944  1.00  0.00    -0.350 OA
BRANCH  13  14
HETATM   14  C   UNL     1     -44.303 -51.155  13.864  1.00  0.00     0.068 A 
HETATM   15  C   UNL     1     -45.572 -51.427  13.358  1.00  0.00     0.037 A 
HETATM   16  C   UNL     1     -46.679 -51.478  14.215  1.00  0.00     0.009 A 
HETATM   17  C   UNL     1     -46.524 -51.270  15.590  1.00  0.00    -0.062 A 
HETATM   18  C   UNL     1     -47.695 -51.307  16.527  1.00  0.00     0.048 C 
HETATM   19  C   UNL     1     -45.245 -51.036  16.099  1.00  0.00     0.009 A 
HETATM   20  C   UNL     1     -44.142 -50.986  15.244  1.00  0.00     0.037 A 
ENDBRANCH  13  14
ENDBRANCH  12  13
ENDBRANCH  11  12
ENDBRANCH  10  11
BRANCH   1  21
HETATM   21  C   UNL     1     -40.109 -49.830  11.127  1.00  0.00     0.096 C 
BRANCH  21  22
HETATM   22  C   UNL     1     -41.180 -48.744  11.269  1.00  0.00     0.130 C 
BRANCH  22  23
HETATM   23  N   UNL     1     -42.020 -48.632  10.086  1.00  0.00    -0.361 N 
HETATM   24  C   UNL     1     -42.648 -47.455   9.752  1.00  0.00     0.213 C 
HETATM   25  C   UNL     1     -43.528 -47.568   8.538  1.00  0.00     0.117 C 
HETATM   26  O   UNL     1     -42.515 -46.409  10.377  1.00  0.00    -0.274 OA
HETATM   27  H   UNL     1     -42.121 -49.441   9.488  1.00  0.00     0.162 HD
ENDBRANCH  22  23
ENDBRANCH  21  22
ENDBRANCH   1  21
TORSDOF 7
ENDMDL
MODEL 6
REMARK VINA RESULT:      -6.0      2.507      6.208
REMARK  7 active torsions:
REMARK  status: ('A' for Active; 'I' for Inactive)
REMARK       I    between atoms: C_2  and  N_4 
REMARK    1  A    between atoms: N_4  and  C_5 
REMARK    2  A    between atoms: C_5  and  C_6 
REMARK    3  A    between atoms: C_6  and  C_7 
REMARK    4  A    between atoms: N_16  and  C_17 
REMARK    5  A    between atoms: C_17  and  C_18 
REMARK    6  A    between atoms: C_18  and  O_19 
REMARK    7  A    between atoms: O_19  and  C_20 
ROOT
HETATM    1  C   UNL     1     -41.495 -48.986  12.020  1.00  0.00     0.086 A 
HETATM    2  N   UNL     1     -40.586 -49.005  11.066  1.00  0.00    -0.344 N 
ATOM      3  HN  UNL     1     -40.699 -48.680  10.105  1.00  0.00     0.167 HD
HETATM    4  C   UNL     1     -39.463 -49.546  11.621  1.00  0.00     0.060 A 
HETATM    5  C   UNL     1     -38.225 -49.807  11.012  1.00  0.00     0.032 A 
HETATM    6  C   UNL     1     -37.191 -50.369  11.767  1.00  0.00     0.002 A 
HETATM    7  C   UNL     1     -37.387 -50.658  13.112  1.00  0.00     0.002 A 
HETATM    8  C   UNL     1     -38.614 -50.404  13.735  1.00  0.00     0.032 A 
HETATM    9  C   UNL     1     -39.659 -49.846  12.972  1.00  0.00     0.062 A 
HETATM   10  N   UNL     1     -40.974 -49.476  13.213  1.00  0.00    -0.333 N 
ENDROOT
BRANCH  10  11
HETATM   11  C   UNL     1     -41.749 -49.559  14.447  1.00  0.00     0.157 C 
BRANCH  11  12
HETATM   12  C   UNL     1     -42.373 -50.913  14.747  1.00  0.00     0.196 C 
BRANCH  12  13
HETATM   13  O   UNL     1     -43.623 -51.113  14.079  1.00  0.00    -0.350 OA
BRANCH  13  14
HETATM   14  C   UNL     1     -44.691 -51.072  14.950  1.00  0.00     0.068 A 
HETATM   15  C   UNL     1     -45.913 -51.522  14.453  1.00  0.00     0.037 A 
HETATM   16  C   UNL     1     -47.060 -51.481  15.255  1.00  0.00     0.009 A 
HETATM   17  C   UNL     1     -46.995 -51.000  16.568  1.00  0.00    -0.062 A 
HETATM   18  C   UNL     1     -48.212 -50.934  17.442  1.00  0.00     0.048 C 
HETATM   19  C   UNL     1     -45.761 -50.587  17.075  1.00  0.00     0.009 A 
HETATM   20  C   UNL     1     -44.618 -50.629  16.275  1.00  0.00     0.037 A 
ENDBRANCH  13  14
ENDBRANCH  12  13
ENDBRANCH  11  12
ENDBRANCH  10  11
BRANCH   1  21
HETATM   21  C   UNL     1     -42.895 -48.484  11.843  1.00  0.00     0.096 C 
BRANCH  21  22
HETATM   22  C   UNL     1     -42.991 -47.503  10.670  1.00  0.00     0.130 C 
BRANCH  22  23
HETATM   23  N   UNL     1     -44.362 -47.109  10.384  1.00  0.00    -0.361 N 
HETATM   24  C   UNL     1     -44.951 -47.365   9.168  1.00  0.00     0.213 C 
HETATM   25  C   UNL     1     -46.345 -46.813   9.048  1.00  0.00     0.117 C 
HETATM   26  O   UNL     1     -44.404 -47.981   8.260  1.00  0.00    -0.274 OA
HETATM   27  H   UNL     1     -44.895 -46.654  11.113  1.00  0.00     0.162 HD
ENDBRANCH  22  23
ENDBRANCH  21  22
ENDBRANCH   1  21
TORSDOF 7
ENDMDL
MODEL 7
REMARK VINA RESULT:      -6.0      2.014      5.938
REMARK  7 active torsions:
REMARK  status: ('A' for Active; 'I' for Inactive)
REMARK       I    between atoms: C_2  and  N_4 
REMARK    1  A    between atoms: N_4  and  C_5 
REMARK    2  A    between atoms: C_5  and  C_6 
REMARK    3  A    between atoms: C_6  and  C_7 
REMARK    4  A    between atoms: N_16  and  C_17 
REMARK    5  A    between atoms: C_17  and  C_18 
REMARK    6  A    between atoms: C_18  and  O_19 
REMARK    7  A    between atoms: O_19  and  C_20 
ROOT
HETATM    1  C   UNL     1     -40.203 -47.602  11.867  1.00  0.00     0.086 A 
HETATM    2  N   UNL     1     -39.823 -46.679  12.728  1.00  0.00    -0.344 N 
ATOM      3  HN  UNL     1     -40.104 -45.698  12.740  1.00  0.00     0.167 HD
HETATM    4  C   UNL     1     -38.977 -47.300  13.601  1.00  0.00     0.060 A 
HETATM    5  C   UNL     1     -38.281 -46.746  14.688  1.00  0.00     0.032 A 
HETATM    6  C   UNL     1     -37.458 -47.564  15.468  1.00  0.00     0.002 A 
HETATM    7  C   UNL     1     -37.338 -48.916  15.172  1.00  0.00     0.002 A 
HETATM    8  C   UNL     1     -38.024 -49.485  14.094  1.00  0.00     0.032 A 
HETATM    9  C   UNL     1     -38.847 -48.659  13.302  1.00  0.00     0.062 A 
HETATM   10  N   UNL     1     -39.647 -48.836  12.183  1.00  0.00    -0.333 N 
ENDROOT
BRANCH  10  11
HETATM   11  C   UNL     1     -39.905 -50.049  11.412  1.00  0.00     0.157 C 
BRANCH  11  12
HETATM   12  C   UNL     1     -41.076 -50.896  11.881  1.00  0.00     0.196 C 
BRANCH  12  13
HETATM   13  O   UNL     1     -40.668 -52.100  12.539  1.00  0.00    -0.350 OA
BRANCH  13  14
HETATM   14  C   UNL     1     -41.741 -52.886  12.902  1.00  0.00     0.068 A 
HETATM   15  C   UNL     1     -42.932 -52.665  12.213  1.00  0.00     0.037 A 
HETATM   16  C   UNL     1     -44.084 -53.392  12.541  1.00  0.00     0.009 A 
HETATM   17  C   UNL     1     -44.052 -54.355  13.556  1.00  0.00    -0.062 A 
HETATM   18  C   UNL     1     -45.275 -55.137  13.935  1.00  0.00     0.048 C 
HETATM   19  C   UNL     1     -42.847 -54.601  14.218  1.00  0.00     0.009 A 
HETATM   20  C   UNL     1     -41.700 -53.877  13.889  1.00  0.00     0.037 A 
ENDBRANCH  13  14
ENDBRANCH  12  13
ENDBRANCH  11  12
ENDBRANCH  10  11
BRANCH   1  21
HETATM   21  C   UNL     1     -41.129 -47.352  10.717  1.00  0.00     0.096 C 
BRANCH  21  22
HETATM   22  C   UNL     1     -42.145 -46.254  11.046  1.00  0.00     0.130 C 
BRANCH  22  23
HETATM   23  N   UNL     1     -43.479 -46.565  10.558  1.00  0.00    -0.361 N 
HETATM   24  C   UNL     1     -43.882 -46.232   9.285  1.00  0.00     0.213 C 
HETATM   25  C   UNL     1     -45.319 -46.573   9.002  1.00  0.00     0.117 C 
HETATM   26  O   UNL     1     -43.151 -45.706   8.454  1.00  0.00    -0.274 OA
HETATM   27  H   UNL     1     -44.115 -47.058  11.171  1.00  0.00     0.162 HD
ENDBRANCH  22  23
ENDBRANCH  21  22
ENDBRANCH   1  21
TORSDOF 7
ENDMDL
MODEL 8
REMARK VINA RESULT:      -5.9      2.142      4.118
REMARK  7 active torsions:
REMARK  status: ('A' for Active; 'I' for Inactive)
REMARK       I    between atoms: C_2  and  N_4 
REMARK    1  A    between atoms: N_4  and  C_5 
REMARK    2  A    between atoms: C_5  and  C_6 
REMARK    3  A    between atoms: C_6  and  C_7 
REMARK    4  A    between atoms: N_16  and  C_17 
REMARK    5  A    between atoms: C_17  and  C_18 
REMARK    6  A    between atoms: C_18  and  O_19 
REMARK    7  A    between atoms: O_19  and  C_20 
ROOT
HETATM    1  C   UNL     1     -42.950 -51.449  13.283  1.00  0.00     0.086 A 
HETATM    2  N   UNL     1     -43.519 -50.264  13.376  1.00  0.00    -0.344 N 
ATOM      3  HN  UNL     1     -44.360 -50.027  13.904  1.00  0.00     0.167 HD
HETATM    4  C   UNL     1     -42.757 -49.417  12.624  1.00  0.00     0.060 A 
HETATM    5  C   UNL     1     -42.955 -48.049  12.377  1.00  0.00     0.032 A 
HETATM    6  C   UNL     1     -42.046 -47.356  11.572  1.00  0.00     0.002 A 
HETATM    7  C   UNL     1     -40.950 -48.017  11.030  1.00  0.00     0.002 A 
HETATM    8  C   UNL     1     -40.737 -49.379  11.267  1.00  0.00     0.032 A 
HETATM    9  C   UNL     1     -41.658 -50.080  12.070  1.00  0.00     0.062 A 
HETATM   10  N   UNL     1     -41.797 -51.389  12.508  1.00  0.00    -0.333 N 
ENDROOT
BRANCH  10  11
HETATM   11  C   UNL     1     -40.951 -52.548  12.244  1.00  0.00     0.157 C 
BRANCH  11  12
HETATM   12  C   UNL     1     -40.151 -53.067  13.429  1.00  0.00     0.196 C 
BRANCH  12  13
HETATM   13  O   UNL     1     -38.755 -52.765  13.337  1.00  0.00    -0.350 OA
BRANCH  13  14
HETATM   14  C   UNL     1     -38.496 -51.428  13.548  1.00  0.00     0.068 A 
HETATM   15  C   UNL     1     -39.045 -50.865  14.698  1.00  0.00     0.037 A 
HETATM   16  C   UNL     1     -38.865 -49.503  14.974  1.00  0.00     0.009 A 
HETATM   17  C   UNL     1     -38.122 -48.693  14.107  1.00  0.00    -0.062 A 
HETATM   18  C   UNL     1     -37.926 -47.230  14.374  1.00  0.00     0.048 C 
HETATM   19  C   UNL     1     -37.541 -49.269  12.976  1.00  0.00     0.009 A 
HETATM   20  C   UNL     1     -37.720 -50.627  12.703  1.00  0.00     0.037 A 
ENDBRANCH  13  14
ENDBRANCH  12  13
ENDBRANCH  11  12
ENDBRANCH  10  11
BRANCH   1  21
HETATM   21  C   UNL     1     -43.468 -52.689  13.945  1.00  0.00     0.096 C 
BRANCH  21  22
HETATM   22  C   UNL     1     -44.269 -53.552  12.965  1.00  0.00     0.130 C 
BRANCH  22  23
HETATM   23  N   UNL     1     -45.136 -52.760  12.105  1.00  0.00    -0.361 N 
HETATM   24  C   UNL     1     -46.382 -52.348  12.516  1.00  0.00     0.213 C 
HETATM   25  C   UNL     1     -47.148 -51.606  11.455  1.00  0.00     0.117 C 
HETATM   26  O   UNL     1     -46.838 -52.560  13.634  1.00  0.00    -0.274 OA
HETATM   27  H   UNL     1     -44.795 -52.494  11.191  1.00  0.00     0.162 HD
ENDBRANCH  22  23
ENDBRANCH  21  22
ENDBRANCH   1  21
TORSDOF 7
ENDMDL
MODEL 9
REMARK VINA RESULT:      -5.9      2.772      6.386
REMARK  7 active torsions:
REMARK  status: ('A' for Active; 'I' for Inactive)
REMARK       I    between atoms: C_2  and  N_4 
REMARK    1  A    between atoms: N_4  and  C_5 
REMARK    2  A    between atoms: C_5  and  C_6 
REMARK    3  A    between atoms: C_6  and  C_7 
REMARK    4  A    between atoms: N_16  and  C_17 
REMARK    5  A    between atoms: C_17  and  C_18 
REMARK    6  A    between atoms: C_18  and  O_19 
REMARK    7  A    between atoms: O_19  and  C_20 
ROOT
HETATM    1  C   UNL     1     -40.530 -51.707  12.823  1.00  0.00     0.086 A 
HETATM    2  N   UNL     1     -39.455 -52.068  13.494  1.00  0.00    -0.344 N 
ATOM      3  HN  UNL     1     -38.524 -51.655  13.428  1.00  0.00     0.167 HD
HETATM    4  C   UNL     1     -39.837 -53.104  14.296  1.00  0.00     0.060 A 
HETATM    5  C   UNL     1     -39.054 -53.857  15.185  1.00  0.00     0.032 A 
HETATM    6  C   UNL     1     -39.647 -54.886  15.924  1.00  0.00     0.002 A 
HETATM    7  C   UNL     1     -41.002 -55.153  15.782  1.00  0.00     0.002 A 
HETATM    8  C   UNL     1     -41.798 -54.413  14.901  1.00  0.00     0.032 A 
HETATM    9  C   UNL     1     -41.199 -53.382  14.150  1.00  0.00     0.062 A 
HETATM   10  N   UNL     1     -41.630 -52.470  13.199  1.00  0.00    -0.333 N 
ENDROOT
BRANCH  10  11
HETATM   11  C   UNL     1     -42.962 -52.282  12.632  1.00  0.00     0.157 C 
BRANCH  11  12
HETATM   12  C   UNL     1     -43.764 -53.551  12.390  1.00  0.00     0.196 C 
BRANCH  12  13
HETATM   13  O   UNL     1     -45.166 -53.307  12.242  1.00  0.00    -0.350 OA
BRANCH  13  14
HETATM   14  C   UNL     1     -45.760 -52.938  13.431  1.00  0.00     0.068 A 
HETATM   15  C   UNL     1     -46.415 -51.708  13.440  1.00  0.00     0.037 A 
HETATM   16  C   UNL     1     -47.015 -51.235  14.614  1.00  0.00     0.009 A 
HETATM   17  C   UNL     1     -46.975 -51.995  15.790  1.00  0.00    -0.062 A 
HETATM   18  C   UNL     1     -47.597 -51.505  17.063  1.00  0.00     0.048 C 
HETATM   19  C   UNL     1     -46.351 -53.244  15.766  1.00  0.00     0.009 A 
HETATM   20  C   UNL     1     -45.755 -53.715  14.595  1.00  0.00     0.037 A 
ENDBRANCH  13  14
ENDBRANCH  12  13
ENDBRANCH  11  12
ENDBRANCH  10  11
BRANCH   1  21
HETATM   21  C   UNL     1     -40.562 -50.607  11.807  1.00  0.00     0.096 C 
BRANCH  21  22
HETATM   22  C   UNL     1     -39.189 -49.941  11.663  1.00  0.00     0.130 C 
BRANCH  22  23
HETATM   23  N   UNL     1     -39.090 -48.700  12.417  1.00  0.00    -0.361 N 
HETATM   24  C   UNL     1     -38.338 -48.608  13.565  1.00  0.00     0.213 C 
HETATM   25  C   UNL     1     -38.428 -47.264  14.234  1.00  0.00     0.117 C 
HETATM   26  O   UNL     1     -37.659 -49.525  14.012  1.00  0.00    -0.274 OA
HETATM   27  H   UNL     1     -39.575 -47.884  12.068  1.00  0.00     0.162 HD
ENDBRANCH  22  23
ENDBRANCH  21  22
ENDBRANCH   1  21
TORSDOF 7
ENDMDL
