MODEL 1
REMARK VINA RESULT:      -6.2      0.000      0.000
REMARK  5 active torsions:
REMARK  status: ('A' for Active; 'I' for Inactive)
REMARK    1  A    between atoms: C_2  and  C_4 
REMARK    2  A    between atoms: C_7  and  C_8 
REMARK    3  A    between atoms: C_8  and  C_9 
REMARK       I    between atoms: C_9  and  N_11 
REMARK    4  A    between atoms: N_11  and  C_12 
REMARK    5  A    between atoms: C_12  and  C_14 
ROOT
HETATM    1  C   UNL     1     -41.857 -49.893  12.316  1.00  0.00     0.223 C 
HETATM    2  O   UNL     1     -41.916 -49.353  13.420  1.00  0.00    -0.273 OA
HETATM    3  N   UNL     1     -41.911 -49.189  11.134  1.00  0.00    -0.354 N 
HETATM    4  H   UNL     1     -42.088 -49.715  10.276  1.00  0.00     0.162 HD
ENDROOT
BRANCH   1   5
HETATM    5  C   UNL     1     -41.616 -51.381  12.173  1.00  0.00     0.160 C 
BRANCH   5   6
HETATM    6  C   UNL     1     -42.788 -52.211  12.583  1.00  0.00     0.025 A 
HETATM    7  N   UNL     1     -44.063 -51.658  12.566  1.00  0.00    -0.356 N 
HETATM    8  C   UNL     1     -44.953 -52.561  12.928  1.00  0.00     0.054 A 
ATOM      9  HN  UNL     1     -44.278 -50.694  12.311  1.00  0.00     0.166 HD
HETATM   10  S   UNL     1     -44.318 -54.123  13.272  1.00  0.00    -0.086 SA
HETATM   11  C   UNL     1     -42.744 -53.545  12.942  1.00  0.00     0.077 A 
BRANCH   8  12
HETATM   12  C   UNL     1     -46.434 -52.310  13.086  1.00  0.00     0.035 C 
HETATM   13  C   UNL     1     -46.689 -51.414  14.293  1.00  0.00     0.016 C 
HETATM   14  C   UNL     1     -47.034 -51.680  11.830  1.00  0.00     0.016 C 
ENDBRANCH   8  12
ENDBRANCH   5   6
ENDBRANCH   1   5
BRANCH   3  15
HETATM   15  C   UNL     1     -42.064 -47.738  11.085  1.00  0.00     0.109 C 
HETATM   16  C   UNL     1     -40.679 -47.090  11.037  1.00  0.00     0.035 C 
BRANCH  15  17
HETATM   17  C   UNL     1     -42.935 -47.279   9.902  1.00  0.00     0.143 C 
HETATM   18  C   UNL     1     -44.438 -47.405  10.120  1.00  0.00     0.036 C 
HETATM   19  C   UNL     1     -44.991 -47.743   8.751  1.00  0.00     0.029 C 
HETATM   20  C   UNL     1     -43.780 -47.792   7.843  1.00  0.00     0.168 C 
HETATM   21  O   UNL     1     -42.661 -48.029   8.704  1.00  0.00    -0.384 OA
ENDBRANCH  15  17
ENDBRANCH   3  15
TORSDOF 5
ENDMDL
MODEL 2
REMARK VINA RESULT:      -5.7      2.067      2.980
REMARK  5 active torsions:
REMARK  status: ('A' for Active; 'I' for Inactive)
REMARK    1  A    between atoms: C_2  and  C_4 
REMARK    2  A    between atoms: C_7  and  C_8 
REMARK    3  A    between atoms: C_8  and  C_9 
REMARK       I    between atoms: C_9  and  N_11 
REMARK    4  A    between atoms: N_11  and  C_12 
REMARK    5  A    between atoms: C_12  and  C_14 
ROOT
HETATM    1  C   UNL     1     -40.510 -51.475  12.592  1.00  0.00     0.223 C 
HETATM    2  O   UNL     1     -40.638 -51.091  13.754  1.00  0.00    -0.273 OA
HETATM    3  N   UNL     1     -39.642 -50.887  11.701  1.00  0.00    -0.354 N 
HETATM    4  H   UNL     1     -39.759 -51.105  10.709  1.00  0.00     0.162 HD
ENDROOT
BRANCH   1   5
HETATM    5  C   UNL     1     -41.234 -52.700  12.078  1.00  0.00     0.160 C 
BRANCH   5   6
HETATM    6  C   UNL     1     -42.598 -52.871  12.662  1.00  0.00     0.025 A 
HETATM    7  N   UNL     1     -43.551 -51.874  12.488  1.00  0.00    -0.356 N 
HETATM    8  C   UNL     1     -44.690 -52.233  13.049  1.00  0.00     0.054 A 
ATOM      9  HN  UNL     1     -43.392 -50.993  11.998  1.00  0.00     0.166 HD
HETATM   10  S   UNL     1     -44.691 -53.790  13.780  1.00  0.00    -0.086 SA
HETATM   11  C   UNL     1     -43.050 -53.986  13.342  1.00  0.00     0.077 A 
BRANCH   8  12
HETATM   12  C   UNL     1     -45.934 -51.379  13.115  1.00  0.00     0.035 C 
HETATM   13  C   UNL     1     -46.887 -51.750  11.984  1.00  0.00     0.016 C 
HETATM   14  C   UNL     1     -46.640 -51.519  14.462  1.00  0.00     0.016 C 
ENDBRANCH   8  12
ENDBRANCH   5   6
ENDBRANCH   1   5
BRANCH   3  15
HETATM   15  C   UNL     1     -38.808 -49.740  12.050  1.00  0.00     0.109 C 
HETATM   16  C   UNL     1     -37.467 -49.856  11.324  1.00  0.00     0.035 C 
BRANCH  15  17
HETATM   17  C   UNL     1     -39.495 -48.398  11.741  1.00  0.00     0.143 C 
HETATM   18  C   UNL     1     -39.923 -47.595  12.962  1.00  0.00     0.036 C 
HETATM   19  C   UNL     1     -41.194 -46.896  12.528  1.00  0.00     0.029 C 
HETATM   20  C   UNL     1     -41.415 -47.342  11.099  1.00  0.00     0.168 C 
HETATM   21  O   UNL     1     -40.693 -48.570  10.960  1.00  0.00    -0.384 OA
ENDBRANCH  15  17
ENDBRANCH   3  15
TORSDOF 5
ENDMDL
MODEL 3
REMARK VINA RESULT:      -5.7      1.443      1.901
REMARK  5 active torsions:
REMARK  status: ('A' for Active; 'I' for Inactive)
REMARK    1  A    between atoms: C_2  and  C_4 
REMARK    2  A    between atoms: C_7  and  C_8 
REMARK    3  A    between atoms: C_8  and  C_9 
REMARK       I    between atoms: C_9  and  N_11 
REMARK    4  A    between atoms: N_11  and  C_12 
REMARK    5  A    between atoms: C_12  and  C_14 
ROOT
HETATM    1  C   UNL     1     -41.618 -49.558  11.829  1.00  0.00     0.223 C 
HETATM    2  O   UNL     1     -42.284 -49.314  12.835  1.00  0.00    -0.273 OA
HETATM    3  N   UNL     1     -41.521 -48.688  10.766  1.00  0.00    -0.354 N 
HETATM    4  H   UNL     1     -41.149 -49.051   9.887  1.00  0.00     0.162 HD
ENDROOT
BRANCH   1   5
HETATM    5  C   UNL     1     -40.764 -50.803  11.725  1.00  0.00     0.160 C 
BRANCH   5   6
HETATM    6  C   UNL     1     -41.390 -52.003  12.357  1.00  0.00     0.025 A 
HETATM    7  N   UNL     1     -42.740 -52.263  12.154  1.00  0.00    -0.356 N 
HETATM    8  C   UNL     1     -43.083 -53.380  12.766  1.00  0.00     0.054 A 
ATOM      9  HN  UNL     1     -43.373 -51.675  11.611  1.00  0.00     0.166 HD
HETATM   10  S   UNL     1     -41.807 -54.192  13.585  1.00  0.00    -0.086 SA
HETATM   11  C   UNL     1     -40.728 -52.954  13.112  1.00  0.00     0.077 A 
BRANCH   8  12
HETATM   12  C   UNL     1     -44.482 -53.948  12.820  1.00  0.00     0.035 C 
HETATM   13  C   UNL     1     -44.664 -54.776  14.087  1.00  0.00     0.016 C 
HETATM   14  C   UNL     1     -45.539 -52.847  12.756  1.00  0.00     0.016 C 
ENDBRANCH   8  12
ENDBRANCH   5   6
ENDBRANCH   1   5
BRANCH   3  15
HETATM   15  C   UNL     1     -42.217 -47.405  10.731  1.00  0.00     0.109 C 
HETATM   16  C   UNL     1     -41.202 -46.291  10.467  1.00  0.00     0.035 C 
BRANCH  15  17
HETATM   17  C   UNL     1     -43.352 -47.382   9.690  1.00  0.00     0.143 C 
HETATM   18  C   UNL     1     -43.655 -46.013   9.095  1.00  0.00     0.036 C 
HETATM   19  C   UNL     1     -45.150 -46.028   8.854  1.00  0.00     0.029 C 
HETATM   20  C   UNL     1     -45.607 -47.392   9.326  1.00  0.00     0.168 C 
HETATM   21  O   UNL     1     -44.601 -47.842  10.240  1.00  0.00    -0.384 OA
ENDBRANCH  15  17
ENDBRANCH   3  15
TORSDOF 5
ENDMDL
MODEL 4
REMARK VINA RESULT:      -5.7      2.674      3.502
REMARK  5 active torsions:
REMARK  status: ('A' for Active; 'I' for Inactive)
REMARK    1  A    between atoms: C_2  and  C_4 
REMARK    2  A    between atoms: C_7  and  C_8 
REMARK    3  A    between atoms: C_8  and  C_9 
REMARK       I    between atoms: C_9  and  N_11 
REMARK    4  A    between atoms: N_11  and  C_12 
REMARK    5  A    between atoms: C_12  and  C_14 
ROOT
HETATM    1  C   UNL     1     -39.616 -48.412  11.999  1.00  0.00     0.223 C 
HETATM    2  O   UNL     1     -39.935 -48.117  13.150  1.00  0.00    -0.273 OA
HETATM    3  N   UNL     1     -39.913 -47.621  10.913  1.00  0.00    -0.354 N 
HETATM    4  H   UNL     1     -39.824 -48.037   9.984  1.00  0.00     0.162 HD
ENDROOT
BRANCH   1   5
HETATM    5  C   UNL     1     -38.775 -49.635  11.699  1.00  0.00     0.160 C 
BRANCH   5   6
HETATM    6  C   UNL     1     -39.188 -50.842  12.474  1.00  0.00     0.025 A 
HETATM    7  N   UNL     1     -40.328 -51.544  12.098  1.00  0.00    -0.356 N 
HETATM    8  C   UNL     1     -40.496 -52.589  12.886  1.00  0.00     0.054 A 
ATOM      9  HN  UNL     1     -40.943 -51.289  11.326  1.00  0.00     0.166 HD
HETATM   10  S   UNL     1     -39.287 -52.805  14.090  1.00  0.00    -0.086 SA
HETATM   11  C   UNL     1     -38.499 -51.391  13.539  1.00  0.00     0.077 A 
BRANCH   8  12
HETATM   12  C   UNL     1     -41.659 -53.550  12.820  1.00  0.00     0.035 C 
HETATM   13  C   UNL     1     -41.799 -54.298  14.141  1.00  0.00     0.016 C 
HETATM   14  C   UNL     1     -42.964 -52.831  12.483  1.00  0.00     0.016 C 
ENDBRANCH   8  12
ENDBRANCH   5   6
ENDBRANCH   1   5
BRANCH   3  15
HETATM   15  C   UNL     1     -40.652 -46.367  11.028  1.00  0.00     0.109 C 
HETATM   16  C   UNL     1     -39.887 -45.265  10.293  1.00  0.00     0.035 C 
BRANCH  15  17
HETATM   17  C   UNL     1     -42.095 -46.487  10.505  1.00  0.00     0.143 C 
HETATM   18  C   UNL     1     -42.460 -47.846   9.922  1.00  0.00     0.036 C 
HETATM   19  C   UNL     1     -43.430 -47.529   8.803  1.00  0.00     0.029 C 
HETATM   20  C   UNL     1     -43.556 -46.020   8.812  1.00  0.00     0.168 C 
HETATM   21  O   UNL     1     -42.373 -45.538   9.459  1.00  0.00    -0.384 OA
ENDBRANCH  15  17
ENDBRANCH   3  15
TORSDOF 5
ENDMDL
MODEL 5
REMARK VINA RESULT:      -5.4      2.819      6.359
REMARK  5 active torsions:
REMARK  status: ('A' for Active; 'I' for Inactive)
REMARK    1  A    between atoms: C_2  and  C_4 
REMARK    2  A    between atoms: C_7  and  C_8 
REMARK    3  A    between atoms: C_8  and  C_9 
REMARK       I    between atoms: C_9  and  N_11 
REMARK    4  A    between atoms: N_11  and  C_12 
REMARK    5  A    between atoms: C_12  and  C_14 
ROOT
HETATM    1  C   UNL     1     -42.098 -50.355  12.667  1.00  0.00     0.223 C 
HETATM    2  O   UNL     1     -41.381 -50.424  11.669  1.00  0.00    -0.273 OA
HETATM    3  N   UNL     1     -42.266 -51.404  13.542  1.00  0.00    -0.354 N 
HETATM    4  H   UNL     1     -43.043 -51.351  14.204  1.00  0.00     0.162 HD
ENDROOT
BRANCH   1   5
HETATM    5  C   UNL     1     -42.778 -49.064  13.067  1.00  0.00     0.160 C 
BRANCH   5   6
HETATM    6  C   UNL     1     -42.842 -48.062  11.960  1.00  0.00     0.025 A 
HETATM    7  N   UNL     1     -43.687 -48.283  10.879  1.00  0.00    -0.356 N 
HETATM    8  C   UNL     1     -43.620 -47.270  10.037  1.00  0.00     0.054 A 
ATOM      9  HN  UNL     1     -44.274 -49.108  10.756  1.00  0.00     0.166 HD
HETATM   10  S   UNL     1     -42.572 -45.990  10.509  1.00  0.00    -0.086 SA
HETATM   11  C   UNL     1     -42.160 -46.860  11.922  1.00  0.00     0.077 A 
BRANCH   8  12
HETATM   12  C   UNL     1     -44.351 -47.185   8.718  1.00  0.00     0.035 C 
HETATM   13  C   UNL     1     -43.568 -47.919   7.635  1.00  0.00     0.016 C 
HETATM   14  C   UNL     1     -45.764 -47.754   8.821  1.00  0.00     0.016 C 
ENDBRANCH   8  12
ENDBRANCH   5   6
ENDBRANCH   1   5
BRANCH   3  15
HETATM   15  C   UNL     1     -41.623 -52.701  13.353  1.00  0.00     0.109 C 
HETATM   16  C   UNL     1     -40.574 -52.905  14.447  1.00  0.00     0.035 C 
BRANCH  15  17
HETATM   17  C   UNL     1     -42.635 -53.861  13.329  1.00  0.00     0.143 C 
HETATM   18  C   UNL     1     -43.928 -53.574  12.575  1.00  0.00     0.036 C 
HETATM   19  C   UNL     1     -44.988 -54.343  13.336  1.00  0.00     0.029 C 
HETATM   20  C   UNL     1     -44.243 -55.013  14.471  1.00  0.00     0.168 C 
HETATM   21  O   UNL     1     -43.046 -54.249  14.653  1.00  0.00    -0.384 OA
ENDBRANCH  15  17
ENDBRANCH   3  15
TORSDOF 5
ENDMDL
MODEL 6
REMARK VINA RESULT:      -5.3      3.910      6.516
REMARK  5 active torsions:
REMARK  status: ('A' for Active; 'I' for Inactive)
REMARK    1  A    between atoms: C_2  and  C_4 
REMARK    2  A    between atoms: C_7  and  C_8 
REMARK    3  A    between atoms: C_8  and  C_9 
REMARK       I    between atoms: C_9  and  N_11 
REMARK    4  A    between atoms: N_11  and  C_12 
REMARK    5  A    between atoms: C_12  and  C_14 
ROOT
HETATM    1  C   UNL     1     -41.340 -53.895  13.757  1.00  0.00     0.223 C 
HETATM    2  O   UNL     1     -41.063 -54.382  12.661  1.00  0.00    -0.273 OA
HETATM    3  N   UNL     1     -42.633 -53.671  14.172  1.00  0.00    -0.354 N 
HETATM    4  H   UNL     1     -42.774 -53.060  14.979  1.00  0.00     0.162 HD
ENDROOT
BRANCH   1   5
HETATM    5  C   UNL     1     -40.269 -53.593  14.784  1.00  0.00     0.160 C 
BRANCH   5   6
HETATM    6  C   UNL     1     -39.622 -52.261  14.590  1.00  0.00     0.025 A 
HETATM    7  N   UNL     1     -39.569 -51.700  13.319  1.00  0.00    -0.356 N 
HETATM    8  C   UNL     1     -38.992 -50.515  13.371  1.00  0.00     0.054 A 
ATOM      9  HN  UNL     1     -39.924 -52.141  12.470  1.00  0.00     0.166 HD
HETATM   10  S   UNL     1     -38.516 -49.997  14.941  1.00  0.00    -0.086 SA
HETATM   11  C   UNL     1     -39.096 -51.467  15.592  1.00  0.00     0.077 A 
BRANCH   8  12
HETATM   12  C   UNL     1     -38.703 -49.635  12.178  1.00  0.00     0.035 C 
HETATM   13  C   UNL     1     -37.478 -50.149  11.430  1.00  0.00     0.016 C 
HETATM   14  C   UNL     1     -39.900 -49.558  11.233  1.00  0.00     0.016 C 
ENDBRANCH   8  12
ENDBRANCH   5   6
ENDBRANCH   1   5
BRANCH   3  15
HETATM   15  C   UNL     1     -43.793 -53.974  13.339  1.00  0.00     0.109 C 
HETATM   16  C   UNL     1     -44.645 -55.037  14.035  1.00  0.00     0.035 C 
BRANCH  15  17
HETATM   17  C   UNL     1     -44.624 -52.721  13.011  1.00  0.00     0.143 C 
HETATM   18  C   UNL     1     -45.211 -52.001  14.218  1.00  0.00     0.036 C 
HETATM   19  C   UNL     1     -46.535 -51.454  13.725  1.00  0.00     0.029 C 
HETATM   20  C   UNL     1     -46.624 -51.894  12.279  1.00  0.00     0.168 C 
HETATM   21  O   UNL     1     -45.749 -53.022  12.164  1.00  0.00    -0.384 OA
ENDBRANCH  15  17
ENDBRANCH   3  15
TORSDOF 5
ENDMDL
MODEL 7
REMARK VINA RESULT:      -5.3      3.618      4.587
REMARK  5 active torsions:
REMARK  status: ('A' for Active; 'I' for Inactive)
REMARK    1  A    between atoms: C_2  and  C_4 
REMARK    2  A    between atoms: C_7  and  C_8 
REMARK    3  A    between atoms: C_8  and  C_9 
REMARK       I    between atoms: C_9  and  N_11 
REMARK    4  A    between atoms: N_11  and  C_12 
REMARK    5  A    between atoms: C_12  and  C_14 
ROOT
HETATM    1  C   UNL     1     -40.123 -52.038  12.499  1.00  0.00     0.223 C 
HETATM    2  O   UNL     1     -39.528 -52.805  13.255  1.00  0.00    -0.273 OA
HETATM    3  N   UNL     1     -39.588 -50.843  12.073  1.00  0.00    -0.354 N 
HETATM    4  H   UNL     1     -40.221 -50.165  11.645  1.00  0.00     0.162 HD
ENDROOT
BRANCH   1   5
HETATM    5  C   UNL     1     -41.462 -52.399  11.894  1.00  0.00     0.160 C 
BRANCH   5   6
HETATM    6  C   UNL     1     -42.624 -51.916  12.700  1.00  0.00     0.025 A 
HETATM    7  N   UNL     1     -43.897 -52.405  12.432  1.00  0.00    -0.356 N 
HETATM    8  C   UNL     1     -44.769 -51.881  13.272  1.00  0.00     0.054 A 
ATOM      9  HN  UNL     1     -44.124 -53.071  11.694  1.00  0.00     0.166 HD
HETATM   10  S   UNL     1     -44.109 -50.807  14.443  1.00  0.00    -0.086 SA
HETATM   11  C   UNL     1     -42.557 -51.037  13.765  1.00  0.00     0.077 A 
BRANCH   8  12
HETATM   12  C   UNL     1     -46.259 -52.129  13.248  1.00  0.00     0.035 C 
HETATM   13  C   UNL     1     -46.927 -51.431  14.427  1.00  0.00     0.016 C 
HETATM   14  C   UNL     1     -46.885 -51.660  11.936  1.00  0.00     0.016 C 
ENDBRANCH   8  12
ENDBRANCH   5   6
ENDBRANCH   1   5
BRANCH   3  15
HETATM   15  C   UNL     1     -38.272 -50.371  12.496  1.00  0.00     0.109 C 
HETATM   16  C   UNL     1     -37.535 -49.792  11.288  1.00  0.00     0.035 C 
BRANCH  15  17
HETATM   17  C   UNL     1     -38.357 -49.346  13.641  1.00  0.00     0.143 C 
HETATM   18  C   UNL     1     -39.111 -48.065  13.307  1.00  0.00     0.036 C 
HETATM   19  C   UNL     1     -38.396 -46.989  14.096  1.00  0.00     0.029 C 
HETATM   20  C   UNL     1     -37.284 -47.713  14.824  1.00  0.00     0.168 C 
HETATM   21  O   UNL     1     -37.056 -48.916  14.082  1.00  0.00    -0.384 OA
ENDBRANCH  15  17
ENDBRANCH   3  15
TORSDOF 5
ENDMDL
MODEL 8
REMARK VINA RESULT:      -5.3      1.869      2.634
REMARK  5 active torsions:
REMARK  status: ('A' for Active; 'I' for Inactive)
REMARK    1  A    between atoms: C_2  and  C_4 
REMARK    2  A    between atoms: C_7  and  C_8 
REMARK    3  A    between atoms: C_8  and  C_9 
REMARK       I    between atoms: C_9  and  N_11 
REMARK    4  A    between atoms: N_11  and  C_12 
REMARK    5  A    between atoms: C_12  and  C_14 
ROOT
HETATM    1  C   UNL     1     -40.909 -50.156  11.521  1.00  0.00     0.223 C 
HETATM    2  O   UNL     1     -39.717 -49.884  11.386  1.00  0.00    -0.273 OA
HETATM    3  N   UNL     1     -41.920 -49.326  11.092  1.00  0.00    -0.354 N 
HETATM    4  H   UNL     1     -42.863 -49.506  11.442  1.00  0.00     0.162 HD
ENDROOT
BRANCH   1   5
HETATM    5  C   UNL     1     -41.361 -51.486  12.085  1.00  0.00     0.160 C 
BRANCH   5   6
HETATM    6  C   UNL     1     -42.516 -51.369  13.024  1.00  0.00     0.025 A 
HETATM    7  N   UNL     1     -43.759 -51.867  12.652  1.00  0.00    -0.356 N 
HETATM    8  C   UNL     1     -44.627 -51.694  13.631  1.00  0.00     0.054 A 
ATOM      9  HN  UNL     1     -43.969 -52.302  11.754  1.00  0.00     0.166 HD
HETATM   10  S   UNL     1     -43.996 -50.962  15.054  1.00  0.00    -0.086 SA
HETATM   11  C   UNL     1     -42.465 -50.842  14.302  1.00  0.00     0.077 A 
BRANCH   8  12
HETATM   12  C   UNL     1     -46.093 -52.055  13.567  1.00  0.00     0.035 C 
HETATM   13  C   UNL     1     -46.847 -51.393  14.715  1.00  0.00     0.016 C 
HETATM   14  C   UNL     1     -46.713 -51.652  12.231  1.00  0.00     0.016 C 
ENDBRANCH   8  12
ENDBRANCH   5   6
ENDBRANCH   1   5
BRANCH   3  15
HETATM   15  C   UNL     1     -41.666 -48.036  10.456  1.00  0.00     0.109 C 
HETATM   16  C   UNL     1     -42.829 -47.701   9.521  1.00  0.00     0.035 C 
BRANCH  15  17
HETATM   17  C   UNL     1     -41.433 -46.912  11.481  1.00  0.00     0.143 C 
HETATM   18  C   UNL     1     -42.480 -46.816  12.583  1.00  0.00     0.036 C 
HETATM   19  C   UNL     1     -42.581 -45.334  12.880  1.00  0.00     0.029 C 
HETATM   20  C   UNL     1     -41.596 -44.679  11.935  1.00  0.00     0.168 C 
HETATM   21  O   UNL     1     -41.410 -45.611  10.864  1.00  0.00    -0.384 OA
ENDBRANCH  15  17
ENDBRANCH   3  15
TORSDOF 5
ENDMDL
MODEL 9
REMARK VINA RESULT:      -5.2      3.950      6.959
REMARK  5 active torsions:
REMARK  status: ('A' for Active; 'I' for Inactive)
REMARK    1  A    between atoms: C_2  and  C_4 
REMARK    2  A    between atoms: C_7  and  C_8 
REMARK    3  A    between atoms: C_8  and  C_9 
REMARK       I    between atoms: C_9  and  N_11 
REMARK    4  A    between atoms: N_11  and  C_12 
REMARK    5  A    between atoms: C_12  and  C_14 
ROOT
HETATM    1  C   UNL     1     -42.652 -53.560  13.023  1.00  0.00     0.223 C 
HETATM    2  O   UNL     1     -43.041 -52.756  12.176  1.00  0.00    -0.273 OA
HETATM    3  N   UNL     1     -43.502 -54.193  13.901  1.00  0.00    -0.354 N 
HETATM    4  H   UNL     1     -43.088 -54.657  14.712  1.00  0.00     0.162 HD
ENDROOT
BRANCH   1   5
HETATM    5  C   UNL     1     -41.203 -53.993  13.099  1.00  0.00     0.160 C 
BRANCH   5   6
HETATM    6  C   UNL     1     -40.249 -52.849  13.204  1.00  0.00     0.025 A 
HETATM    7  N   UNL     1     -40.185 -51.910  12.182  1.00  0.00    -0.356 N 
HETATM    8  C   UNL     1     -39.309 -50.971  12.484  1.00  0.00     0.054 A 
ATOM      9  HN  UNL     1     -40.734 -51.942  11.323  1.00  0.00     0.166 HD
HETATM   10  S   UNL     1     -38.545 -51.142  14.016  1.00  0.00    -0.086 SA
HETATM   11  C   UNL     1     -39.424 -52.585  14.282  1.00  0.00     0.077 A 
BRANCH   8  12
HETATM   12  C   UNL     1     -38.926 -49.817  11.588  1.00  0.00     0.035 C 
HETATM   13  C   UNL     1     -39.294 -48.493  12.248  1.00  0.00     0.016 C 
HETATM   14  C   UNL     1     -37.437 -49.839  11.249  1.00  0.00     0.016 C 
ENDBRANCH   8  12
ENDBRANCH   5   6
ENDBRANCH   1   5
BRANCH   3  15
HETATM   15  C   UNL     1     -44.942 -53.952  13.918  1.00  0.00     0.109 C 
HETATM   16  C   UNL     1     -45.675 -55.291  13.837  1.00  0.00     0.035 C 
BRANCH  15  17
HETATM   17  C   UNL     1     -45.388 -53.147  15.152  1.00  0.00     0.143 C 
HETATM   18  C   UNL     1     -46.089 -51.829  14.845  1.00  0.00     0.036 C 
HETATM   19  C   UNL     1     -45.671 -50.908  15.972  1.00  0.00     0.029 C 
HETATM   20  C   UNL     1     -44.762 -51.747  16.845  1.00  0.00     0.168 C 
HETATM   21  O   UNL     1     -44.279 -52.798  16.002  1.00  0.00    -0.384 OA
ENDBRANCH  15  17
ENDBRANCH   3  15
TORSDOF 5
ENDMDL
