MODEL 1
REMARK VINA RESULT:      -6.9      0.000      0.000
REMARK  8 active torsions:
REMARK  status: ('A' for Active; 'I' for Inactive)
REMARK    1  A    between atoms: N_1  and  C_10 
REMARK    2  A    between atoms: N_4  and  C_7 
REMARK    3  A    between atoms: C_8  and  C_18 
REMARK    4  A    between atoms: C_8  and  O_22 
REMARK    5  A    between atoms: C_17  and  C_25 
REMARK    6  A    between atoms: C_17  and  C_26 
REMARK    7  A    between atoms: C_25  and  O_27 
REMARK    8  A    between atoms: C_26  and  O_28 
ROOT
HETATM    1  N   UNL     1     -41.689 -48.431  11.712  1.00  0.00    -0.322 N 
HETATM    2  C   UNL     1     -42.492 -50.366  12.308  1.00  0.00     0.122 A 
HETATM    3  C   UNL     1     -41.293 -49.703  12.050  1.00  0.00     0.140 A 
HETATM    4  N   UNL     1     -43.577 -49.525  12.162  1.00  0.00    -0.346 N 
ATOM      5  HN  UNL     1     -44.563 -49.746  12.299  1.00  0.00     0.167 HD
HETATM    6  C   UNL     1     -42.445 -51.733  12.652  1.00  0.00     0.135 A 
HETATM    7  C   UNL     1     -43.053 -48.380  11.808  1.00  0.00     0.185 A 
HETATM    8  N   UNL     1     -40.061 -50.236  12.118  1.00  0.00    -0.336 N 
ATOM      9  HN  UNL     1     -39.197 -49.729  11.924  1.00  0.00     0.168 HD
HETATM   10  N   UNL     1     -41.213 -52.308  12.734  1.00  0.00    -0.337 N 
ATOM     11  HN  UNL     1     -41.113 -53.293  12.980  1.00  0.00     0.168 HD
HETATM   12  C   UNL     1     -40.123 -51.541  12.481  1.00  0.00     0.183 A 
ENDROOT
BRANCH   1  13
HETATM   13  C   UNL     1     -40.977 -47.275  11.260  1.00  0.00     0.094 C 
HETATM   14  C   UNL     1     -40.883 -46.103  12.274  1.00  0.00     0.039 C 
HETATM   15  C   UNL     1     -40.796 -45.155  11.019  1.00  0.00     0.006 C 
HETATM   16  C   UNL     1     -41.707 -46.254  10.343  1.00  0.00     0.039 C 
BRANCH  15  17
HETATM   17  C   UNL     1     -41.461 -43.790  11.172  1.00  0.00     0.175 C 
BRANCH  17  18
HETATM   18  O   UNL     1     -40.585 -42.780  10.676  1.00  0.00    -0.400 OA
HETATM   19  H   UNL     1     -39.812 -43.236  10.296  1.00  0.00     0.209 HD
ENDBRANCH  17  18
ENDBRANCH  15  17
BRANCH  15  20
HETATM   20  C   UNL     1     -39.402 -45.010  10.374  1.00  0.00     0.175 C 
BRANCH  20  21
HETATM   21  O   UNL     1     -39.530 -44.645   9.005  1.00  0.00    -0.400 OA
HETATM   22  H   UNL     1     -39.022 -45.306   8.492  1.00  0.00     0.209 HD
ENDBRANCH  20  21
ENDBRANCH  15  20
ENDBRANCH   1  13
BRANCH   6  23
HETATM   23  N   UNL     1     -43.609 -52.452  12.941  1.00  0.00    -0.359 N 
HETATM   24  C   UNL     1     -44.506 -52.399  14.045  1.00  0.00     0.169 C 
HETATM   25  C   UNL     1     -45.247 -53.600  13.387  1.00  0.00     0.148 C 
HETATM   26  C   UNL     1     -43.922 -53.809  12.620  1.00  0.00     0.169 C 
BRANCH  25  27
HETATM   27  C   UNL     1     -45.614 -54.759  14.293  1.00  0.00     0.390 C 
HETATM   28  F   UNL     1     -46.811 -54.481  14.879  1.00  0.00    -0.211 F 
HETATM   29  F   UNL     1     -45.785 -55.902  13.583  1.00  0.00    -0.211 F 
ENDBRANCH  25  27
BRANCH  25  30
HETATM   30  O   UNL     1     -46.400 -53.239  12.557  1.00  0.00    -0.381 OA
HETATM   31  H   UNL     1     -46.008 -52.890  11.735  1.00  0.00     0.211 HD
ENDBRANCH  25  30
ENDBRANCH   6  23
TORSDOF 8
ENDMDL
MODEL 2
REMARK VINA RESULT:      -6.3      3.249      4.112
REMARK  8 active torsions:
REMARK  status: ('A' for Active; 'I' for Inactive)
REMARK    1  A    between atoms: N_1  and  C_10 
REMARK    2  A    between atoms: N_4  and  C_7 
REMARK    3  A    between atoms: C_8  and  C_18 
REMARK    4  A    between atoms: C_8  and  O_22 
REMARK    5  A    between atoms: C_17  and  C_25 
REMARK    6  A    between atoms: C_17  and  C_26 
REMARK    7  A    between atoms: C_25  and  O_27 
REMARK    8  A    between atoms: C_26  and  O_28 
ROOT
HETATM    1  N   UNL     1     -41.874 -49.230  11.438  1.00  0.00    -0.322 N 
HETATM    2  C   UNL     1     -41.497 -51.023  12.616  1.00  0.00     0.122 A 
HETATM    3  C   UNL     1     -42.489 -50.090  12.317  1.00  0.00     0.140 A 
HETATM    4  N   UNL     1     -40.331 -50.762  11.925  1.00  0.00    -0.346 N 
ATOM      5  HN  UNL     1     -39.459 -51.289  11.949  1.00  0.00     0.167 HD
HETATM    6  C   UNL     1     -41.793 -52.046  13.540  1.00  0.00     0.135 A 
HETATM    7  C   UNL     1     -40.600 -49.685  11.234  1.00  0.00     0.185 A 
HETATM    8  N   UNL     1     -43.738 -50.073  12.812  1.00  0.00    -0.336 N 
ATOM      9  HN  UNL     1     -44.447 -49.377  12.577  1.00  0.00     0.168 HD
HETATM   10  N   UNL     1     -43.051 -52.064  14.062  1.00  0.00    -0.337 N 
ATOM     11  HN  UNL     1     -43.327 -52.780  14.734  1.00  0.00     0.168 HD
HETATM   12  C   UNL     1     -43.929 -51.109  13.666  1.00  0.00     0.183 A 
ENDROOT
BRANCH   1  13
HETATM   13  C   UNL     1     -42.291 -48.015  10.809  1.00  0.00     0.094 C 
HETATM   14  C   UNL     1     -41.189 -46.936  10.631  1.00  0.00     0.039 C 
HETATM   15  C   UNL     1     -42.352 -45.877  10.708  1.00  0.00     0.006 C 
HETATM   16  C   UNL     1     -43.024 -46.941  11.661  1.00  0.00     0.039 C 
BRANCH  15  17
HETATM   17  C   UNL     1     -42.001 -44.555  11.384  1.00  0.00     0.175 C 
BRANCH  17  18
HETATM   18  O   UNL     1     -41.268 -43.738  10.472  1.00  0.00    -0.400 OA
HETATM   19  H   UNL     1     -41.912 -43.155  10.032  1.00  0.00     0.209 HD
ENDBRANCH  17  18
ENDBRANCH  15  17
BRANCH  15  20
HETATM   20  C   UNL     1     -43.130 -45.627   9.398  1.00  0.00     0.175 C 
BRANCH  20  21
HETATM   21  O   UNL     1     -43.831 -44.391   9.471  1.00  0.00    -0.400 OA
HETATM   22  H   UNL     1     -43.829 -44.126  10.413  1.00  0.00     0.209 HD
ENDBRANCH  20  21
ENDBRANCH  15  20
ENDBRANCH   1  13
BRANCH   6  23
HETATM   23  N   UNL     1     -40.850 -53.025  13.870  1.00  0.00    -0.359 N 
HETATM   24  C   UNL     1     -40.988 -54.408  14.179  1.00  0.00     0.169 C 
HETATM   25  C   UNL     1     -39.457 -54.407  14.459  1.00  0.00     0.148 C 
HETATM   26  C   UNL     1     -39.631 -52.879  14.601  1.00  0.00     0.169 C 
BRANCH  25  27
HETATM   27  C   UNL     1     -38.992 -55.086  15.732  1.00  0.00     0.390 C 
HETATM   28  F   UNL     1     -39.898 -56.048  16.060  1.00  0.00    -0.211 F 
HETATM   29  F   UNL     1     -37.805 -55.716  15.548  1.00  0.00    -0.211 F 
ENDBRANCH  25  27
BRANCH  25  30
HETATM   30  O   UNL     1     -38.619 -54.841  13.337  1.00  0.00    -0.381 OA
HETATM   31  H   UNL     1     -38.990 -54.376  12.563  1.00  0.00     0.211 HD
ENDBRANCH  25  30
ENDBRANCH   6  23
TORSDOF 8
ENDMDL
MODEL 3
REMARK VINA RESULT:      -6.3      4.279      7.775
REMARK  8 active torsions:
REMARK  status: ('A' for Active; 'I' for Inactive)
REMARK    1  A    between atoms: N_1  and  C_10 
REMARK    2  A    between atoms: N_4  and  C_7 
REMARK    3  A    between atoms: C_8  and  C_18 
REMARK    4  A    between atoms: C_8  and  O_22 
REMARK    5  A    between atoms: C_17  and  C_25 
REMARK    6  A    between atoms: C_17  and  C_26 
REMARK    7  A    between atoms: C_25  and  O_27 
REMARK    8  A    between atoms: C_26  and  O_28 
ROOT
HETATM    1  N   UNL     1     -40.673 -51.276  12.902  1.00  0.00    -0.322 N 
HETATM    2  C   UNL     1     -41.246 -49.503  11.775  1.00  0.00     0.122 A 
HETATM    3  C   UNL     1     -40.158 -50.101  12.408  1.00  0.00     0.140 A 
HETATM    4  N   UNL     1     -42.374 -50.295  11.852  1.00  0.00    -0.346 N 
ATOM      5  HN  UNL     1     -43.299 -50.105  11.467  1.00  0.00     0.167 HD
HETATM    6  C   UNL     1     -41.067 -48.236  11.182  1.00  0.00     0.135 A 
HETATM    7  C   UNL     1     -41.988 -51.343  12.531  1.00  0.00     0.185 A 
HETATM    8  N   UNL     1     -38.916 -49.595  12.498  1.00  0.00    -0.336 N 
ATOM      9  HN  UNL     1     -38.135 -50.053  12.969  1.00  0.00     0.168 HD
HETATM   10  N   UNL     1     -39.820 -47.692  11.250  1.00  0.00    -0.337 N 
ATOM     11  HN  UNL     1     -39.627 -46.779  10.839  1.00  0.00     0.168 HD
HETATM   12  C   UNL     1     -38.842 -48.392  11.877  1.00  0.00     0.183 A 
ENDROOT
BRANCH   1  13
HETATM   13  C   UNL     1     -40.122 -52.316  13.717  1.00  0.00     0.094 C 
HETATM   14  C   UNL     1     -40.624 -53.752  13.406  1.00  0.00     0.039 C 
HETATM   15  C   UNL     1     -40.342 -54.072  14.921  1.00  0.00     0.006 C 
HETATM   16  C   UNL     1     -40.717 -52.554  15.133  1.00  0.00     0.039 C 
BRANCH  15  17
HETATM   17  C   UNL     1     -41.301 -55.059  15.580  1.00  0.00     0.175 C 
BRANCH  17  18
HETATM   18  O   UNL     1     -40.629 -55.733  16.643  1.00  0.00    -0.400 OA
HETATM   19  H   UNL     1     -41.317 -56.147  17.196  1.00  0.00     0.209 HD
ENDBRANCH  17  18
ENDBRANCH  15  17
BRANCH  15  20
HETATM   20  C   UNL     1     -38.880 -54.415  15.281  1.00  0.00     0.175 C 
BRANCH  20  21
HETATM   21  O   UNL     1     -38.527 -55.685  14.747  1.00  0.00    -0.400 OA
HETATM   22  H   UNL     1     -39.265 -56.291  14.961  1.00  0.00     0.209 HD
ENDBRANCH  20  21
ENDBRANCH  15  20
ENDBRANCH   1  13
BRANCH   6  23
HETATM   23  N   UNL     1     -42.112 -47.590  10.514  1.00  0.00    -0.359 N 
HETATM   24  C   UNL     1     -43.259 -46.897  10.995  1.00  0.00     0.169 C 
HETATM   25  C   UNL     1     -43.685 -46.750   9.505  1.00  0.00     0.148 C 
HETATM   26  C   UNL     1     -42.714 -47.926   9.262  1.00  0.00     0.169 C 
BRANCH  25  27
HETATM   27  C   UNL     1     -45.128 -47.074   9.169  1.00  0.00     0.390 C 
HETATM   28  F   UNL     1     -45.761 -45.915   8.840  1.00  0.00    -0.211 F 
HETATM   29  F   UNL     1     -45.210 -47.883   8.083  1.00  0.00    -0.211 F 
ENDBRANCH  25  27
BRANCH  25  30
HETATM   30  O   UNL     1     -43.306 -45.483   8.872  1.00  0.00    -0.381 OA
HETATM   31  H   UNL     1     -43.637 -45.560   7.958  1.00  0.00     0.211 HD
ENDBRANCH  25  30
ENDBRANCH   6  23
TORSDOF 8
ENDMDL
MODEL 4
REMARK VINA RESULT:      -6.1      4.126      5.232
REMARK  8 active torsions:
REMARK  status: ('A' for Active; 'I' for Inactive)
REMARK    1  A    between atoms: N_1  and  C_10 
REMARK    2  A    between atoms: N_4  and  C_7 
REMARK    3  A    between atoms: C_8  and  C_18 
REMARK    4  A    between atoms: C_8  and  O_22 
REMARK    5  A    between atoms: C_17  and  C_25 
REMARK    6  A    between atoms: C_17  and  C_26 
REMARK    7  A    between atoms: C_25  and  O_27 
REMARK    8  A    between atoms: C_26  and  O_28 
ROOT
HETATM    1  N   UNL     1     -39.650 -50.329  14.955  1.00  0.00    -0.322 N 
HETATM    2  C   UNL     1     -41.425 -51.107  13.960  1.00  0.00     0.122 A 
HETATM    3  C   UNL     1     -40.344 -50.247  13.771  1.00  0.00     0.140 A 
HETATM    4  N   UNL     1     -41.379 -51.713  15.200  1.00  0.00    -0.346 N 
ATOM      5  HN  UNL     1     -42.034 -52.390  15.590  1.00  0.00     0.167 HD
HETATM    6  C   UNL     1     -42.376 -51.230  12.927  1.00  0.00     0.135 A 
HETATM    7  C   UNL     1     -40.304 -51.222  15.760  1.00  0.00     0.185 A 
HETATM    8  N   UNL     1     -40.093 -49.520  12.669  1.00  0.00    -0.336 N 
ATOM      9  HN  UNL     1     -39.293 -48.896  12.555  1.00  0.00     0.168 HD
HETATM   10  N   UNL     1     -42.154 -50.509  11.792  1.00  0.00    -0.337 N 
ATOM     11  HN  UNL     1     -42.805 -50.557  11.008  1.00  0.00     0.168 HD
HETATM   12  C   UNL     1     -41.047 -49.728  11.729  1.00  0.00     0.183 A 
ENDROOT
BRANCH   1  13
HETATM   13  C   UNL     1     -38.497 -49.648  15.459  1.00  0.00     0.094 C 
HETATM   14  C   UNL     1     -37.135 -50.110  14.873  1.00  0.00     0.039 C 
HETATM   15  C   UNL     1     -36.505 -49.658  16.244  1.00  0.00     0.006 C 
HETATM   16  C   UNL     1     -37.908 -50.082  16.830  1.00  0.00     0.039 C 
BRANCH  15  17
HETATM   17  C   UNL     1     -35.332 -50.496  16.743  1.00  0.00     0.175 C 
BRANCH  17  18
HETATM   18  O   UNL     1     -34.845 -49.945  17.966  1.00  0.00    -0.400 OA
HETATM   19  H   UNL     1     -34.326 -49.154  17.734  1.00  0.00     0.209 HD
ENDBRANCH  17  18
ENDBRANCH  15  17
BRANCH  15  20
HETATM   20  C   UNL     1     -36.195 -48.152  16.384  1.00  0.00     0.175 C 
BRANCH  20  21
HETATM   21  O   UNL     1     -34.807 -47.915  16.181  1.00  0.00    -0.400 OA
HETATM   22  H   UNL     1     -34.339 -48.712  16.503  1.00  0.00     0.209 HD
ENDBRANCH  20  21
ENDBRANCH  15  20
ENDBRANCH   1  13
BRANCH   6  23
HETATM   23  N   UNL     1     -43.474 -52.089  13.045  1.00  0.00    -0.359 N 
HETATM   24  C   UNL     1     -44.578 -52.098  13.943  1.00  0.00     0.169 C 
HETATM   25  C   UNL     1     -45.008 -53.430  13.262  1.00  0.00     0.148 C 
HETATM   26  C   UNL     1     -43.538 -53.494  12.790  1.00  0.00     0.169 C 
BRANCH  25  27
HETATM   27  C   UNL     1     -45.402 -54.572  14.177  1.00  0.00     0.390 C 
HETATM   28  F   UNL     1     -46.526 -54.209  14.855  1.00  0.00    -0.211 F 
HETATM   29  F   UNL     1     -45.719 -55.684  13.466  1.00  0.00    -0.211 F 
ENDBRANCH  25  27
BRANCH  25  30
HETATM   30  O   UNL     1     -46.003 -53.289  12.194  1.00  0.00    -0.381 OA
HETATM   31  H   UNL     1     -45.508 -52.890  11.453  1.00  0.00     0.211 HD
ENDBRANCH  25  30
ENDBRANCH   6  23
TORSDOF 8
ENDMDL
MODEL 5
REMARK VINA RESULT:      -6.0      4.952      8.898
REMARK  8 active torsions:
REMARK  status: ('A' for Active; 'I' for Inactive)
REMARK    1  A    between atoms: N_1  and  C_10 
REMARK    2  A    between atoms: N_4  and  C_7 
REMARK    3  A    between atoms: C_8  and  C_18 
REMARK    4  A    between atoms: C_8  and  O_22 
REMARK    5  A    between atoms: C_17  and  C_25 
REMARK    6  A    between atoms: C_17  and  C_26 
REMARK    7  A    between atoms: C_25  and  O_27 
REMARK    8  A    between atoms: C_26  and  O_28 
ROOT
HETATM    1  N   UNL     1     -41.043 -48.988  11.969  1.00  0.00    -0.322 N 
HETATM    2  C   UNL     1     -41.293 -46.910  11.366  1.00  0.00     0.122 A 
HETATM    3  C   UNL     1     -41.666 -48.209  11.023  1.00  0.00     0.140 A 
HETATM    4  N   UNL     1     -40.499 -46.892  12.495  1.00  0.00    -0.346 N 
ATOM      5  HN  UNL     1     -40.098 -46.081  12.965  1.00  0.00     0.167 HD
HETATM    6  C   UNL     1     -41.740 -45.845  10.556  1.00  0.00     0.135 A 
HETATM    7  C   UNL     1     -40.375 -48.153  12.822  1.00  0.00     0.185 A 
HETATM    8  N   UNL     1     -42.445 -48.563   9.987  1.00  0.00    -0.336 N 
ATOM      9  HN  UNL     1     -42.703 -49.523   9.756  1.00  0.00     0.168 HD
HETATM   10  N   UNL     1     -42.536 -46.165   9.498  1.00  0.00    -0.337 N 
ATOM     11  HN  UNL     1     -42.893 -45.439   8.876  1.00  0.00     0.168 HD
HETATM   12  C   UNL     1     -42.843 -47.470   9.290  1.00  0.00     0.183 A 
ENDROOT
BRANCH   1  13
HETATM   13  C   UNL     1     -40.939 -50.403  12.153  1.00  0.00     0.094 C 
HETATM   14  C   UNL     1     -41.014 -50.898  13.623  1.00  0.00     0.039 C 
HETATM   15  C   UNL     1     -40.127 -52.112  13.154  1.00  0.00     0.006 C 
HETATM   16  C   UNL     1     -39.532 -51.061  12.138  1.00  0.00     0.039 C 
BRANCH  15  17
HETATM   17  C   UNL     1     -39.127 -52.637  14.180  1.00  0.00     0.175 C 
BRANCH  17  18
HETATM   18  O   UNL     1     -38.569 -53.864  13.711  1.00  0.00    -0.400 OA
HETATM   19  H   UNL     1     -38.919 -54.571  14.283  1.00  0.00     0.209 HD
ENDBRANCH  17  18
ENDBRANCH  15  17
BRANCH  15  20
HETATM   20  C   UNL     1     -40.879 -53.281  12.483  1.00  0.00     0.175 C 
BRANCH  20  21
HETATM   21  O   UNL     1     -41.314 -54.215  13.464  1.00  0.00    -0.400 OA
HETATM   22  H   UNL     1     -40.973 -53.894  14.323  1.00  0.00     0.209 HD
ENDBRANCH  20  21
ENDBRANCH  15  20
ENDBRANCH   1  13
BRANCH   6  23
HETATM   23  N   UNL     1     -41.419 -44.518  10.856  1.00  0.00    -0.359 N 
HETATM   24  C   UNL     1     -40.180 -43.817  10.846  1.00  0.00     0.169 C 
HETATM   25  C   UNL     1     -40.966 -42.597  11.409  1.00  0.00     0.148 C 
HETATM   26  C   UNL     1     -42.019 -43.650  11.821  1.00  0.00     0.169 C 
BRANCH  25  27
HETATM   27  C   UNL     1     -40.348 -41.865  12.583  1.00  0.00     0.390 C 
HETATM   28  F   UNL     1     -39.207 -42.516  12.942  1.00  0.00    -0.211 F 
HETATM   29  F   UNL     1     -39.984 -40.604  12.240  1.00  0.00    -0.211 F 
ENDBRANCH  25  27
BRANCH  25  30
HETATM   30  O   UNL     1     -41.410 -41.627  10.403  1.00  0.00    -0.381 OA
HETATM   31  H   UNL     1     -40.588 -41.200  10.098  1.00  0.00     0.211 HD
ENDBRANCH  25  30
ENDBRANCH   6  23
TORSDOF 8
ENDMDL
MODEL 6
REMARK VINA RESULT:      -5.9      3.063      4.270
REMARK  8 active torsions:
REMARK  status: ('A' for Active; 'I' for Inactive)
REMARK    1  A    between atoms: N_1  and  C_10 
REMARK    2  A    between atoms: N_4  and  C_7 
REMARK    3  A    between atoms: C_8  and  C_18 
REMARK    4  A    between atoms: C_8  and  O_22 
REMARK    5  A    between atoms: C_17  and  C_25 
REMARK    6  A    between atoms: C_17  and  C_26 
REMARK    7  A    between atoms: C_25  and  O_27 
REMARK    8  A    between atoms: C_26  and  O_28 
ROOT
HETATM    1  N   UNL     1     -40.105 -45.984  12.389  1.00  0.00    -0.322 N 
HETATM    2  C   UNL     1     -40.570 -48.078  12.012  1.00  0.00     0.122 A 
HETATM    3  C   UNL     1     -40.810 -46.793  11.529  1.00  0.00     0.140 A 
HETATM    4  N   UNL     1     -39.730 -48.060  13.106  1.00  0.00    -0.346 N 
ATOM      5  HN  UNL     1     -39.386 -48.855  13.645  1.00  0.00     0.167 HD
HETATM    6  C   UNL     1     -41.192 -49.167  11.365  1.00  0.00     0.135 A 
HETATM    7  C   UNL     1     -39.475 -46.791  13.297  1.00  0.00     0.185 A 
HETATM    8  N   UNL     1     -41.572 -46.472  10.469  1.00  0.00    -0.336 N 
ATOM      9  HN  UNL     1     -41.732 -45.521  10.135  1.00  0.00     0.168 HD
HETATM   10  N   UNL     1     -41.971 -48.881  10.285  1.00  0.00    -0.337 N 
ATOM     11  HN  UNL     1     -42.445 -49.625   9.773  1.00  0.00     0.168 HD
HETATM   12  C   UNL     1     -42.100 -47.586   9.904  1.00  0.00     0.183 A 
ENDROOT
BRANCH   1  13
HETATM   13  C   UNL     1     -39.985 -44.564  12.515  1.00  0.00     0.094 C 
HETATM   14  C   UNL     1     -41.289 -43.809  12.889  1.00  0.00     0.039 C 
HETATM   15  C   UNL     1     -40.680 -42.578  12.118  1.00  0.00     0.006 C 
HETATM   16  C   UNL     1     -40.003 -43.692  11.228  1.00  0.00     0.039 C 
BRANCH  15  17
HETATM   17  C   UNL     1     -41.683 -41.699  11.376  1.00  0.00     0.175 C 
BRANCH  17  18
HETATM   18  O   UNL     1     -41.070 -40.451  11.055  1.00  0.00    -0.400 OA
HETATM   19  H   UNL     1     -40.564 -40.586  10.233  1.00  0.00     0.209 HD
ENDBRANCH  17  18
ENDBRANCH  15  17
BRANCH  15  20
HETATM   20  C   UNL     1     -39.678 -41.710  12.908  1.00  0.00     0.175 C 
BRANCH  20  21
HETATM   21  O   UNL     1     -40.374 -40.753  13.699  1.00  0.00    -0.400 OA
HETATM   22  H   UNL     1     -41.261 -41.129  13.873  1.00  0.00     0.209 HD
ENDBRANCH  20  21
ENDBRANCH  15  20
ENDBRANCH   1  13
BRANCH   6  23
HETATM   23  N   UNL     1     -40.979 -50.483  11.787  1.00  0.00    -0.359 N 
HETATM   24  C   UNL     1     -41.823 -51.410  12.462  1.00  0.00     0.169 C 
HETATM   25  C   UNL     1     -40.598 -52.369  12.491  1.00  0.00     0.148 C 
HETATM   26  C   UNL     1     -39.771 -51.085  12.256  1.00  0.00     0.169 C 
BRANCH  25  27
HETATM   27  C   UNL     1     -40.293 -53.054  13.809  1.00  0.00     0.390 C 
HETATM   28  F   UNL     1     -41.218 -54.034  14.006  1.00  0.00    -0.211 F 
HETATM   29  F   UNL     1     -39.082 -53.663  13.778  1.00  0.00    -0.211 F 
ENDBRANCH  25  27
BRANCH  25  30
HETATM   30  O   UNL     1     -40.552 -53.351  11.404  1.00  0.00    -0.381 OA
HETATM   31  H   UNL     1     -39.958 -52.952  10.741  1.00  0.00     0.211 HD
ENDBRANCH  25  30
ENDBRANCH   6  23
TORSDOF 8
ENDMDL
MODEL 7
REMARK VINA RESULT:      -5.9      4.883      5.651
REMARK  8 active torsions:
REMARK  status: ('A' for Active; 'I' for Inactive)
REMARK    1  A    between atoms: N_1  and  C_10 
REMARK    2  A    between atoms: N_4  and  C_7 
REMARK    3  A    between atoms: C_8  and  C_18 
REMARK    4  A    between atoms: C_8  and  O_22 
REMARK    5  A    between atoms: C_17  and  C_25 
REMARK    6  A    between atoms: C_17  and  C_26 
REMARK    7  A    between atoms: C_25  and  O_27 
REMARK    8  A    between atoms: C_26  and  O_28 
ROOT
HETATM    1  N   UNL     1     -39.297 -51.466  15.591  1.00  0.00    -0.322 N 
HETATM    2  C   UNL     1     -41.131 -52.252  14.717  1.00  0.00     0.122 A 
HETATM    3  C   UNL     1     -39.770 -52.523  14.850  1.00  0.00     0.140 A 
HETATM    4  N   UNL     1     -41.483 -51.091  15.375  1.00  0.00    -0.346 N 
ATOM      5  HN  UNL     1     -42.408 -50.669  15.448  1.00  0.00     0.167 HD
HETATM    6  C   UNL     1     -41.923 -53.141  13.961  1.00  0.00     0.135 A 
HETATM    7  C   UNL     1     -40.360 -50.655  15.884  1.00  0.00     0.185 A 
HETATM    8  N   UNL     1     -39.118 -53.582  14.339  1.00  0.00    -0.336 N 
ATOM      9  HN  UNL     1     -38.119 -53.758  14.450  1.00  0.00     0.168 HD
HETATM   10  N   UNL     1     -41.298 -54.228  13.430  1.00  0.00    -0.337 N 
ATOM     11  HN  UNL     1     -41.817 -54.909  12.875  1.00  0.00     0.168 HD
HETATM   12  C   UNL     1     -39.970 -54.385  13.656  1.00  0.00     0.183 A 
ENDROOT
BRANCH   1  13
HETATM   13  C   UNL     1     -37.986 -51.080  16.014  1.00  0.00     0.094 C 
HETATM   14  C   UNL     1     -37.929 -49.997  17.125  1.00  0.00     0.039 C 
HETATM   15  C   UNL     1     -36.538 -49.584  16.513  1.00  0.00     0.006 C 
HETATM   16  C   UNL     1     -37.190 -50.058  15.156  1.00  0.00     0.039 C 
BRANCH  15  17
HETATM   17  C   UNL     1     -36.205 -48.096  16.569  1.00  0.00     0.175 C 
BRANCH  17  18
HETATM   18  O   UNL     1     -34.825 -47.910  16.259  1.00  0.00    -0.400 OA
HETATM   19  H   UNL     1     -34.716 -48.117  15.313  1.00  0.00     0.209 HD
ENDBRANCH  17  18
ENDBRANCH  15  17
BRANCH  15  20
HETATM   20  C   UNL     1     -35.325 -50.429  16.956  1.00  0.00     0.175 C 
BRANCH  20  21
HETATM   21  O   UNL     1     -34.734 -49.867  18.122  1.00  0.00    -0.400 OA
HETATM   22  H   UNL     1     -35.364 -49.199  18.459  1.00  0.00     0.209 HD
ENDBRANCH  20  21
ENDBRANCH  15  20
ENDBRANCH   1  13
BRANCH   6  23
HETATM   23  N   UNL     1     -43.298 -52.938  13.805  1.00  0.00    -0.359 N 
HETATM   24  C   UNL     1     -44.036 -51.954  13.087  1.00  0.00     0.169 C 
HETATM   25  C   UNL     1     -45.316 -52.603  13.688  1.00  0.00     0.148 C 
HETATM   26  C   UNL     1     -44.350 -53.192  14.739  1.00  0.00     0.169 C 
BRANCH  25  27
HETATM   27  C   UNL     1     -46.352 -51.663  14.274  1.00  0.00     0.390 C 
HETATM   28  F   UNL     1     -47.064 -51.119  13.249  1.00  0.00    -0.211 F 
HETATM   29  F   UNL     1     -47.239 -52.333  15.051  1.00  0.00    -0.211 F 
ENDBRANCH  25  27
BRANCH  25  30
HETATM   30  O   UNL     1     -45.977 -53.587  12.825  1.00  0.00    -0.381 OA
HETATM   31  H   UNL     1     -46.638 -54.012  13.403  1.00  0.00     0.211 HD
ENDBRANCH  25  30
ENDBRANCH   6  23
TORSDOF 8
ENDMDL
MODEL 8
REMARK VINA RESULT:      -5.8      4.203      8.648
REMARK  8 active torsions:
REMARK  status: ('A' for Active; 'I' for Inactive)
REMARK    1  A    between atoms: N_1  and  C_10 
REMARK    2  A    between atoms: N_4  and  C_7 
REMARK    3  A    between atoms: C_8  and  C_18 
REMARK    4  A    between atoms: C_8  and  O_22 
REMARK    5  A    between atoms: C_17  and  C_25 
REMARK    6  A    between atoms: C_17  and  C_26 
REMARK    7  A    between atoms: C_25  and  O_27 
REMARK    8  A    between atoms: C_26  and  O_28 
ROOT
HETATM    1  N   UNL     1     -42.624 -50.907  12.984  1.00  0.00    -0.322 N 
HETATM    2  C   UNL     1     -41.851 -48.999  12.270  1.00  0.00     0.122 A 
HETATM    3  C   UNL     1     -41.554 -50.361  12.315  1.00  0.00     0.140 A 
HETATM    4  N   UNL     1     -43.068 -48.727  12.863  1.00  0.00    -0.346 N 
ATOM      5  HN  UNL     1     -43.529 -47.823  12.959  1.00  0.00     0.167 HD
HETATM    6  C   UNL     1     -40.919 -48.126  11.672  1.00  0.00     0.135 A 
HETATM    7  C   UNL     1     -43.495 -49.893  13.273  1.00  0.00     0.185 A 
HETATM    8  N   UNL     1     -40.454 -50.949  11.814  1.00  0.00    -0.336 N 
ATOM      9  HN  UNL     1     -40.260 -51.950  11.860  1.00  0.00     0.168 HD
HETATM   10  N   UNL     1     -39.793 -48.687  11.150  1.00  0.00    -0.337 N 
ATOM     11  HN  UNL     1     -39.082 -48.108  10.703  1.00  0.00     0.168 HD
HETATM   12  C   UNL     1     -39.639 -50.031  11.240  1.00  0.00     0.183 A 
ENDROOT
BRANCH   1  13
HETATM   13  C   UNL     1     -42.917 -52.232  13.438  1.00  0.00     0.094 C 
HETATM   14  C   UNL     1     -43.894 -53.047  12.548  1.00  0.00     0.039 C 
HETATM   15  C   UNL     1     -44.303 -53.806  13.866  1.00  0.00     0.006 C 
HETATM   16  C   UNL     1     -43.978 -52.425  14.557  1.00  0.00     0.039 C 
BRANCH  15  17
HETATM   17  C   UNL     1     -45.766 -54.231  13.959  1.00  0.00     0.175 C 
BRANCH  17  18
HETATM   18  O   UNL     1     -45.857 -55.647  13.801  1.00  0.00    -0.400 OA
HETATM   19  H   UNL     1     -45.633 -55.843  12.873  1.00  0.00     0.209 HD
ENDBRANCH  17  18
ENDBRANCH  15  17
BRANCH  15  20
HETATM   20  C   UNL     1     -43.374 -54.960  14.300  1.00  0.00     0.175 C 
BRANCH  20  21
HETATM   21  O   UNL     1     -43.710 -55.394  15.612  1.00  0.00    -0.400 OA
HETATM   22  H   UNL     1     -43.123 -54.906  16.225  1.00  0.00     0.209 HD
ENDBRANCH  20  21
ENDBRANCH  15  20
ENDBRANCH   1  13
BRANCH   6  23
HETATM   23  N   UNL     1     -41.164 -46.753  11.578  1.00  0.00    -0.359 N 
HETATM   24  C   UNL     1     -41.111 -45.853  10.476  1.00  0.00     0.169 C 
HETATM   25  C   UNL     1     -41.421 -44.721  11.498  1.00  0.00     0.148 C 
HETATM   26  C   UNL     1     -40.922 -45.734  12.552  1.00  0.00     0.169 C 
BRANCH  25  27
HETATM   27  C   UNL     1     -40.573 -43.468  11.411  1.00  0.00     0.390 C 
HETATM   28  F   UNL     1     -41.274 -42.523  10.726  1.00  0.00    -0.211 F 
HETATM   29  F   UNL     1     -40.329 -42.953  12.642  1.00  0.00    -0.211 F 
ENDBRANCH  25  27
BRANCH  25  30
HETATM   30  O   UNL     1     -42.835 -44.351  11.605  1.00  0.00    -0.381 OA
HETATM   31  H   UNL     1     -43.318 -45.162  11.356  1.00  0.00     0.211 HD
ENDBRANCH  25  30
ENDBRANCH   6  23
TORSDOF 8
ENDMDL
MODEL 9
REMARK VINA RESULT:      -5.8      1.810      2.330
REMARK  8 active torsions:
REMARK  status: ('A' for Active; 'I' for Inactive)
REMARK    1  A    between atoms: N_1  and  C_10 
REMARK    2  A    between atoms: N_4  and  C_7 
REMARK    3  A    between atoms: C_8  and  C_18 
REMARK    4  A    between atoms: C_8  and  O_22 
REMARK    5  A    between atoms: C_17  and  C_25 
REMARK    6  A    between atoms: C_17  and  C_26 
REMARK    7  A    between atoms: C_25  and  O_27 
REMARK    8  A    between atoms: C_26  and  O_28 
ROOT
HETATM    1  N   UNL     1     -41.985 -47.648  12.104  1.00  0.00    -0.322 N 
HETATM    2  C   UNL     1     -42.832 -49.464  12.958  1.00  0.00     0.122 A 
HETATM    3  C   UNL     1     -42.487 -48.152  13.280  1.00  0.00     0.140 A 
HETATM    4  N   UNL     1     -42.579 -49.743  11.630  1.00  0.00    -0.346 N 
ATOM      5  HN  UNL     1     -42.745 -50.616  11.131  1.00  0.00     0.167 HD
HETATM    6  C   UNL     1     -43.353 -50.292  13.974  1.00  0.00     0.135 A 
HETATM    7  C   UNL     1     -42.076 -48.632  11.158  1.00  0.00     0.185 A 
HETATM    8  N   UNL     1     -42.623 -47.569  14.484  1.00  0.00    -0.336 N 
ATOM      9  HN  UNL     1     -42.362 -46.606  14.695  1.00  0.00     0.168 HD
HETATM   10  N   UNL     1     -43.508 -49.735  15.207  1.00  0.00    -0.337 N 
ATOM     11  HN  UNL     1     -43.882 -50.282  15.983  1.00  0.00     0.168 HD
HETATM   12  C   UNL     1     -43.155 -48.437  15.380  1.00  0.00     0.183 A 
ENDROOT
BRANCH   1  13
HETATM   13  C   UNL     1     -41.384 -46.397  11.757  1.00  0.00     0.094 C 
HETATM   14  C   UNL     1     -40.210 -45.941  12.665  1.00  0.00     0.039 C 
HETATM   15  C   UNL     1     -40.622 -44.468  12.289  1.00  0.00     0.006 C 
HETATM   16  C   UNL     1     -42.075 -45.081  12.209  1.00  0.00     0.039 C 
BRANCH  15  17
HETATM   17  C   UNL     1     -40.436 -43.426  13.388  1.00  0.00     0.175 C 
BRANCH  17  18
HETATM   18  O   UNL     1     -39.210 -42.728  13.173  1.00  0.00    -0.400 OA
HETATM   19  H   UNL     1     -39.368 -42.093  12.451  1.00  0.00     0.209 HD
ENDBRANCH  17  18
ENDBRANCH  15  17
BRANCH  15  20
HETATM   20  C   UNL     1     -40.088 -43.937  10.942  1.00  0.00     0.175 C 
BRANCH  20  21
HETATM   21  O   UNL     1     -40.645 -42.657  10.663  1.00  0.00    -0.400 OA
HETATM   22  H   UNL     1     -40.150 -42.014  11.210  1.00  0.00     0.209 HD
ENDBRANCH  20  21
ENDBRANCH  15  20
ENDBRANCH   1  13
BRANCH   6  23
HETATM   23  N   UNL     1     -43.736 -51.611  13.714  1.00  0.00    -0.359 N 
HETATM   24  C   UNL     1     -45.017 -52.221  13.595  1.00  0.00     0.169 C 
HETATM   25  C   UNL     1     -44.262 -53.573  13.442  1.00  0.00     0.148 C 
HETATM   26  C   UNL     1     -43.083 -52.823  14.100  1.00  0.00     0.169 C 
BRANCH  25  27
HETATM   27  C   UNL     1     -44.773 -54.741  14.263  1.00  0.00     0.390 C 
HETATM   28  F   UNL     1     -45.645 -55.453  13.497  1.00  0.00    -0.211 F 
HETATM   29  F   UNL     1     -43.766 -55.587  14.594  1.00  0.00    -0.211 F 
ENDBRANCH  25  27
BRANCH  25  30
HETATM   30  O   UNL     1     -44.036 -54.006  12.059  1.00  0.00    -0.381 OA
HETATM   31  H   UNL     1     -44.628 -53.440  11.528  1.00  0.00     0.211 HD
ENDBRANCH  25  30
ENDBRANCH   6  23
TORSDOF 8
ENDMDL
