MODEL 1
REMARK VINA RESULT:      -6.0      0.000      0.000
REMARK  5 active torsions:
REMARK  status: ('A' for Active; 'I' for Inactive)
REMARK    1  A    between atoms: C_2  and  C_4 
REMARK    2  A    between atoms: C_4  and  N_6 
REMARK       I    between atoms: N_6  and  C_8 
REMARK       I    between atoms: C_8  and  N_10 
REMARK    3  A    between atoms: N_10  and  C_11 
REMARK    4  A    between atoms: N_15  and  C_16 
REMARK    5  A    between atoms: C_16  and  C_17 
REMARK       I    between atoms: C_17  and  N_19 
ROOT
HETATM    1  C   UNL     1     -41.821 -48.725  11.282  1.00  0.00     0.070 A 
HETATM    2  C   UNL     1     -42.249 -47.916  10.208  1.00  0.00     0.138 A 
HETATM    3  N   UNL     1     -41.512 -46.808  10.078  1.00  0.00    -0.307 N 
ATOM      4  HN  UNL     1     -41.620 -46.055   9.399  1.00  0.00     0.186 HD
HETATM    5  N   UNL     1     -40.593 -46.920  11.060  1.00  0.00    -0.293 N 
HETATM    6  C   UNL     1     -40.798 -48.010  11.860  1.00  0.00     0.141 A 
ENDROOT
BRANCH   1   7
HETATM    7  N   UNL     1     -42.252 -49.964  11.722  1.00  0.00    -0.306 N 
HETATM    8  C   UNL     1     -43.056 -50.139  12.830  1.00  0.00     0.323 C 
HETATM    9  N   UNL     1     -43.413 -51.462  13.098  1.00  0.00    -0.334 N 
HETATM   10  O   UNL     1     -43.454 -49.208  13.525  1.00  0.00    -0.247 OA
HETATM   11  C   UNL     1     -42.775 -52.609  12.459  1.00  0.00     0.155 C 
HETATM   12  H   UNL     1     -42.147 -50.727  11.074  1.00  0.00     0.171 HD
BRANCH   9  13
HETATM   13  C   UNL     1     -44.402 -51.707  14.177  1.00  0.00     0.087 C 
HETATM   14  C   UNL     1     -44.276 -53.151  14.681  1.00  0.00     0.033 C 
BRANCH  13  15
HETATM   15  C   UNL     1     -45.855 -51.321  13.774  1.00  0.00    -0.000 C 
HETATM   16  C   UNL     1     -46.365 -52.182  12.608  1.00  0.00     0.011 C 
HETATM   17  C   UNL     1     -46.835 -51.480  14.945  1.00  0.00     0.011 C 
ENDBRANCH  13  15
ENDBRANCH   9  13
ENDBRANCH   1   7
BRANCH   5  18
HETATM   18  C   UNL     1     -39.551 -45.909  11.139  1.00  0.00     0.250 C 
BRANCH  18  19
HETATM   19  C   UNL     1     -39.706 -44.796  10.131  1.00  0.00     0.235 C 
HETATM   20  O   UNL     1     -40.547 -43.905  10.218  1.00  0.00    -0.272 OA
HETATM   21  N   UNL     1     -38.861 -44.826   9.056  1.00  0.00    -0.369 N 
HETATM   22  H   UNL     1     -38.050 -45.429   9.004  1.00  0.00     0.159 HD
HETATM   23  H   UNL     1     -38.926 -44.061   8.395  1.00  0.00     0.159 HD
ENDBRANCH  18  19
ENDBRANCH   5  18
TORSDOF 5
ENDMDL
MODEL 2
REMARK VINA RESULT:      -5.9      2.922      3.372
REMARK  5 active torsions:
REMARK  status: ('A' for Active; 'I' for Inactive)
REMARK    1  A    between atoms: C_2  and  C_4 
REMARK    2  A    between atoms: C_4  and  N_6 
REMARK       I    between atoms: N_6  and  C_8 
REMARK       I    between atoms: C_8  and  N_10 
REMARK    3  A    between atoms: N_10  and  C_11 
REMARK    4  A    between atoms: N_15  and  C_16 
REMARK    5  A    between atoms: C_16  and  C_17 
REMARK       I    between atoms: C_17  and  N_19 
ROOT
HETATM    1  C   UNL     1     -41.327 -50.561  11.930  1.00  0.00     0.070 A 
HETATM    2  C   UNL     1     -41.336 -49.307  11.282  1.00  0.00     0.138 A 
HETATM    3  N   UNL     1     -40.116 -48.769  11.194  1.00  0.00    -0.307 N 
ATOM      4  HN  UNL     1     -39.851 -47.871  10.790  1.00  0.00     0.186 HD
HETATM    5  N   UNL     1     -39.317 -49.695  11.766  1.00  0.00    -0.293 N 
HETATM    6  C   UNL     1     -40.015 -50.744  12.300  1.00  0.00     0.141 A 
ENDROOT
BRANCH   1   7
HETATM    7  N   UNL     1     -42.339 -51.474  12.171  1.00  0.00    -0.306 N 
HETATM    8  C   UNL     1     -43.066 -51.508  13.343  1.00  0.00     0.323 C 
HETATM    9  N   UNL     1     -44.068 -52.481  13.389  1.00  0.00    -0.334 N 
HETATM   10  O   UNL     1     -42.873 -50.733  14.277  1.00  0.00    -0.247 OA
HETATM   11  C   UNL     1     -44.172 -53.568  12.421  1.00  0.00     0.155 C 
HETATM   12  H   UNL     1     -42.686 -51.974  11.370  1.00  0.00     0.171 HD
BRANCH   9  13
HETATM   13  C   UNL     1     -44.990 -52.470  14.551  1.00  0.00     0.087 C 
HETATM   14  C   UNL     1     -45.502 -53.891  14.823  1.00  0.00     0.033 C 
BRANCH  13  15
HETATM   15  C   UNL     1     -46.131 -51.420  14.417  1.00  0.00    -0.000 C 
HETATM   16  C   UNL     1     -46.831 -51.519  13.054  1.00  0.00     0.011 C 
HETATM   17  C   UNL     1     -47.196 -51.591  15.510  1.00  0.00     0.011 C 
ENDBRANCH  13  15
ENDBRANCH   9  13
ENDBRANCH   1   7
BRANCH   5  18
HETATM   18  C   UNL     1     -37.882 -49.466  11.746  1.00  0.00     0.250 C 
BRANCH  18  19
HETATM   19  C   UNL     1     -37.107 -50.529  11.005  1.00  0.00     0.235 C 
HETATM   20  O   UNL     1     -36.687 -51.559  11.526  1.00  0.00    -0.272 OA
HETATM   21  N   UNL     1     -36.854 -50.287   9.683  1.00  0.00    -0.369 N 
HETATM   22  H   UNL     1     -37.302 -49.547   9.158  1.00  0.00     0.159 HD
HETATM   23  H   UNL     1     -36.372 -51.011   9.163  1.00  0.00     0.159 HD
ENDBRANCH  18  19
ENDBRANCH   5  18
TORSDOF 5
ENDMDL
MODEL 3
REMARK VINA RESULT:      -5.8      1.125      1.415
REMARK  5 active torsions:
REMARK  status: ('A' for Active; 'I' for Inactive)
REMARK    1  A    between atoms: C_2  and  C_4 
REMARK    2  A    between atoms: C_4  and  N_6 
REMARK       I    between atoms: N_6  and  C_8 
REMARK       I    between atoms: C_8  and  N_10 
REMARK    3  A    between atoms: N_10  and  C_11 
REMARK    4  A    between atoms: N_15  and  C_16 
REMARK    5  A    between atoms: C_16  and  C_17 
REMARK       I    between atoms: C_17  and  N_19 
ROOT
HETATM    1  C   UNL     1     -41.207 -48.996  11.255  1.00  0.00     0.070 A 
HETATM    2  C   UNL     1     -41.826 -48.216  10.256  1.00  0.00     0.138 A 
HETATM    3  N   UNL     1     -41.339 -46.973  10.203  1.00  0.00    -0.307 N 
ATOM      4  HN  UNL     1     -41.622 -46.211   9.587  1.00  0.00     0.186 HD
HETATM    5  N   UNL     1     -40.385 -46.963  11.157  1.00  0.00    -0.293 N 
HETATM    6  C   UNL     1     -40.334 -48.129  11.872  1.00  0.00     0.141 A 
ENDROOT
BRANCH   1   7
HETATM    7  N   UNL     1     -41.357 -50.328  11.603  1.00  0.00    -0.306 N 
HETATM    8  C   UNL     1     -42.285 -50.771  12.524  1.00  0.00     0.323 C 
HETATM    9  N   UNL     1     -42.308 -52.154  12.719  1.00  0.00    -0.334 N 
HETATM   10  O   UNL     1     -43.052 -50.020  13.120  1.00  0.00    -0.247 OA
HETATM   11  C   UNL     1     -41.267 -53.050  12.227  1.00  0.00     0.155 C 
HETATM   12  H   UNL     1     -40.921 -50.998  10.992  1.00  0.00     0.171 HD
BRANCH   9  13
HETATM   13  C   UNL     1     -43.384 -52.713  13.574  1.00  0.00     0.087 C 
HETATM   14  C   UNL     1     -42.772 -53.587  14.676  1.00  0.00     0.033 C 
BRANCH  13  15
HETATM   15  C   UNL     1     -44.497 -53.438  12.761  1.00  0.00    -0.000 C 
HETATM   16  C   UNL     1     -44.975 -54.712  13.473  1.00  0.00     0.011 C 
HETATM   17  C   UNL     1     -45.718 -52.535  12.533  1.00  0.00     0.011 C 
ENDBRANCH  13  15
ENDBRANCH   9  13
ENDBRANCH   1   7
BRANCH   5  18
HETATM   18  C   UNL     1     -39.572 -45.767  11.300  1.00  0.00     0.250 C 
BRANCH  18  19
HETATM   19  C   UNL     1     -39.766 -44.764  10.187  1.00  0.00     0.235 C 
HETATM   20  O   UNL     1     -40.653 -43.914  10.178  1.00  0.00    -0.272 OA
HETATM   21  N   UNL     1     -38.902 -44.852   9.131  1.00  0.00    -0.369 N 
HETATM   22  H   UNL     1     -38.060 -45.414   9.148  1.00  0.00     0.159 HD
HETATM   23  H   UNL     1     -38.994 -44.159   8.398  1.00  0.00     0.159 HD
ENDBRANCH  18  19
ENDBRANCH   5  18
TORSDOF 5
ENDMDL
MODEL 4
REMARK VINA RESULT:      -5.3      2.348      3.154
REMARK  5 active torsions:
REMARK  status: ('A' for Active; 'I' for Inactive)
REMARK    1  A    between atoms: C_2  and  C_4 
REMARK    2  A    between atoms: C_4  and  N_6 
REMARK       I    between atoms: N_6  and  C_8 
REMARK       I    between atoms: C_8  and  N_10 
REMARK    3  A    between atoms: N_10  and  C_11 
REMARK    4  A    between atoms: N_15  and  C_16 
REMARK    5  A    between atoms: C_16  and  C_17 
REMARK       I    between atoms: C_17  and  N_19 
ROOT
HETATM    1  C   UNL     1     -41.774 -48.328  11.420  1.00  0.00     0.070 A 
HETATM    2  C   UNL     1     -41.915 -47.007  11.894  1.00  0.00     0.138 A 
HETATM    3  N   UNL     1     -42.364 -46.171  10.953  1.00  0.00    -0.307 N 
ATOM      4  HN  UNL     1     -42.537 -45.169  11.030  1.00  0.00     0.186 HD
HETATM    5  N   UNL     1     -42.537 -46.966   9.876  1.00  0.00    -0.293 N 
HETATM    6  C   UNL     1     -42.110 -48.249  10.088  1.00  0.00     0.141 A 
ENDROOT
BRANCH   1   7
HETATM    7  N   UNL     1     -41.408 -49.498  12.063  1.00  0.00    -0.306 N 
HETATM    8  C   UNL     1     -42.258 -50.209  12.886  1.00  0.00     0.323 C 
HETATM    9  N   UNL     1     -41.718 -51.382  13.420  1.00  0.00    -0.334 N 
HETATM   10  O   UNL     1     -43.411 -49.860  13.124  1.00  0.00    -0.247 OA
HETATM   11  C   UNL     1     -40.296 -51.705  13.366  1.00  0.00     0.155 C 
HETATM   12  H   UNL     1     -40.569 -49.943  11.731  1.00  0.00     0.171 HD
BRANCH   9  13
HETATM   13  C   UNL     1     -42.624 -52.274  14.183  1.00  0.00     0.087 C 
HETATM   14  C   UNL     1     -42.077 -52.482  15.601  1.00  0.00     0.033 C 
BRANCH  13  15
HETATM   15  C   UNL     1     -42.936 -53.608  13.443  1.00  0.00    -0.000 C 
HETATM   16  C   UNL     1     -43.240 -54.744  14.431  1.00  0.00     0.011 C 
HETATM   17  C   UNL     1     -44.137 -53.469  12.495  1.00  0.00     0.011 C 
ENDBRANCH  13  15
ENDBRANCH   9  13
ENDBRANCH   1   7
BRANCH   5  18
HETATM   18  C   UNL     1     -43.124 -46.382   8.682  1.00  0.00     0.250 C 
BRANCH  18  19
HETATM   19  C   UNL     1     -44.228 -45.394   8.969  1.00  0.00     0.235 C 
HETATM   20  O   UNL     1     -44.035 -44.224   9.291  1.00  0.00    -0.272 OA
HETATM   21  N   UNL     1     -45.508 -45.868   8.880  1.00  0.00    -0.369 N 
HETATM   22  H   UNL     1     -45.741 -46.763   8.469  1.00  0.00     0.159 HD
HETATM   23  H   UNL     1     -46.260 -45.205   9.028  1.00  0.00     0.159 HD
ENDBRANCH  18  19
ENDBRANCH   5  18
TORSDOF 5
ENDMDL
MODEL 5
REMARK VINA RESULT:      -5.3      2.987      4.156
REMARK  5 active torsions:
REMARK  status: ('A' for Active; 'I' for Inactive)
REMARK    1  A    between atoms: C_2  and  C_4 
REMARK    2  A    between atoms: C_4  and  N_6 
REMARK       I    between atoms: N_6  and  C_8 
REMARK       I    between atoms: C_8  and  N_10 
REMARK    3  A    between atoms: N_10  and  C_11 
REMARK    4  A    between atoms: N_15  and  C_16 
REMARK    5  A    between atoms: C_16  and  C_17 
REMARK       I    between atoms: C_17  and  N_19 
ROOT
HETATM    1  C   UNL     1     -42.053 -49.244  11.991  1.00  0.00     0.070 A 
HETATM    2  C   UNL     1     -41.071 -49.016  11.004  1.00  0.00     0.138 A 
HETATM    3  N   UNL     1     -41.395 -48.012  10.184  1.00  0.00    -0.307 N 
ATOM      4  HN  UNL     1     -40.871 -47.657   9.384  1.00  0.00     0.186 HD
HETATM    5  N   UNL     1     -42.580 -47.578  10.663  1.00  0.00    -0.293 N 
HETATM    6  C   UNL     1     -43.052 -48.348  11.691  1.00  0.00     0.141 A 
ENDROOT
BRANCH   1   7
HETATM    7  N   UNL     1     -42.091 -50.125  13.059  1.00  0.00    -0.306 N 
HETATM    8  C   UNL     1     -41.952 -51.491  12.921  1.00  0.00     0.323 C 
HETATM    9  N   UNL     1     -41.986 -52.212  14.117  1.00  0.00    -0.334 N 
HETATM   10  O   UNL     1     -41.790 -52.044  11.836  1.00  0.00    -0.247 OA
HETATM   11  C   UNL     1     -42.417 -51.636  15.387  1.00  0.00     0.155 C 
HETATM   12  H   UNL     1     -41.995 -49.717  13.974  1.00  0.00     0.171 HD
BRANCH   9  13
HETATM   13  C   UNL     1     -41.685 -53.663  14.058  1.00  0.00     0.087 C 
HETATM   14  C   UNL     1     -42.942 -54.470  14.410  1.00  0.00     0.033 C 
BRANCH  13  15
HETATM   15  C   UNL     1     -40.440 -54.065  14.903  1.00  0.00    -0.000 C 
HETATM   16  C   UNL     1     -40.782 -55.158  15.926  1.00  0.00     0.011 C 
HETATM   17  C   UNL     1     -39.294 -54.582  14.021  1.00  0.00     0.011 C 
ENDBRANCH  13  15
ENDBRANCH   9  13
ENDBRANCH   1   7
BRANCH   5  18
HETATM   18  C   UNL     1     -43.177 -46.404  10.050  1.00  0.00     0.250 C 
BRANCH  18  19
HETATM   19  C   UNL     1     -44.066 -46.720   8.871  1.00  0.00     0.235 C 
HETATM   20  O   UNL     1     -43.771 -47.517   7.984  1.00  0.00    -0.272 OA
HETATM   21  N   UNL     1     -45.252 -46.042   8.804  1.00  0.00    -0.369 N 
HETATM   22  H   UNL     1     -45.626 -45.500   9.572  1.00  0.00     0.159 HD
HETATM   23  H   UNL     1     -45.877 -46.276   8.041  1.00  0.00     0.159 HD
ENDBRANCH  18  19
ENDBRANCH   5  18
TORSDOF 5
ENDMDL
MODEL 6
REMARK VINA RESULT:      -5.3      3.476      4.090
REMARK  5 active torsions:
REMARK  status: ('A' for Active; 'I' for Inactive)
REMARK    1  A    between atoms: C_2  and  C_4 
REMARK    2  A    between atoms: C_4  and  N_6 
REMARK       I    between atoms: N_6  and  C_8 
REMARK       I    between atoms: C_8  and  N_10 
REMARK    3  A    between atoms: N_10  and  C_11 
REMARK    4  A    between atoms: N_15  and  C_16 
REMARK    5  A    between atoms: C_16  and  C_17 
REMARK       I    between atoms: C_17  and  N_19 
ROOT
HETATM    1  C   UNL     1     -42.171 -51.273  12.432  1.00  0.00     0.070 A 
HETATM    2  C   UNL     1     -41.287 -52.228  11.887  1.00  0.00     0.138 A 
HETATM    3  N   UNL     1     -40.051 -51.747  11.725  1.00  0.00    -0.307 N 
ATOM      4  HN  UNL     1     -39.235 -52.222  11.340  1.00  0.00     0.186 HD
HETATM    5  N   UNL     1     -40.137 -50.484  12.193  1.00  0.00    -0.293 N 
HETATM    6  C   UNL     1     -41.412 -50.131  12.543  1.00  0.00     0.141 A 
ENDROOT
BRANCH   1   7
HETATM    7  N   UNL     1     -43.498 -51.367  12.814  1.00  0.00    -0.306 N 
HETATM    8  C   UNL     1     -43.930 -52.145  13.869  1.00  0.00     0.323 C 
HETATM    9  N   UNL     1     -45.303 -52.086  14.122  1.00  0.00    -0.334 N 
HETATM   10  O   UNL     1     -43.175 -52.828  14.555  1.00  0.00    -0.247 OA
HETATM   11  C   UNL     1     -46.263 -51.493  13.197  1.00  0.00     0.155 C 
HETATM   12  H   UNL     1     -44.118 -50.668  12.440  1.00  0.00     0.171 HD
BRANCH   9  13
HETATM   13  C   UNL     1     -45.812 -52.770  15.335  1.00  0.00     0.087 C 
HETATM   14  C   UNL     1     -46.949 -53.728  14.954  1.00  0.00     0.033 C 
BRANCH  13  15
HETATM   15  C   UNL     1     -46.195 -51.786  16.479  1.00  0.00    -0.000 C 
HETATM   16  C   UNL     1     -45.288 -50.546  16.483  1.00  0.00     0.011 C 
HETATM   17  C   UNL     1     -47.650 -51.308  16.360  1.00  0.00     0.011 C 
ENDBRANCH  13  15
ENDBRANCH   9  13
ENDBRANCH   1   7
BRANCH   5  18
HETATM   18  C   UNL     1     -38.919 -49.694  12.256  1.00  0.00     0.250 C 
BRANCH  18  19
HETATM   19  C   UNL     1     -37.719 -50.376  11.645  1.00  0.00     0.235 C 
HETATM   20  O   UNL     1     -37.099 -51.289  12.186  1.00  0.00    -0.272 OA
HETATM   21  N   UNL     1     -37.309 -49.910  10.426  1.00  0.00    -0.369 N 
HETATM   22  H   UNL     1     -37.862 -49.281   9.858  1.00  0.00     0.159 HD
HETATM   23  H   UNL     1     -36.532 -50.387   9.984  1.00  0.00     0.159 HD
ENDBRANCH  18  19
ENDBRANCH   5  18
TORSDOF 5
ENDMDL
MODEL 7
REMARK VINA RESULT:      -5.1      3.742      5.234
REMARK  5 active torsions:
REMARK  status: ('A' for Active; 'I' for Inactive)
REMARK    1  A    between atoms: C_2  and  C_4 
REMARK    2  A    between atoms: C_4  and  N_6 
REMARK       I    between atoms: N_6  and  C_8 
REMARK       I    between atoms: C_8  and  N_10 
REMARK    3  A    between atoms: N_10  and  C_11 
REMARK    4  A    between atoms: N_15  and  C_16 
REMARK    5  A    between atoms: C_16  and  C_17 
REMARK       I    between atoms: C_17  and  N_19 
ROOT
HETATM    1  C   UNL     1     -40.713 -47.776  10.843  1.00  0.00     0.070 A 
HETATM    2  C   UNL     1     -40.714 -46.382  10.627  1.00  0.00     0.138 A 
HETATM    3  N   UNL     1     -41.854 -45.950  10.079  1.00  0.00    -0.307 N 
ATOM      4  HN  UNL     1     -42.104 -44.999   9.810  1.00  0.00     0.186 HD
HETATM    5  N   UNL     1     -42.598 -47.071   9.966  1.00  0.00    -0.293 N 
HETATM    6  C   UNL     1     -41.917 -48.201  10.330  1.00  0.00     0.141 A 
ENDROOT
BRANCH   1   7
HETATM    7  N   UNL     1     -39.781 -48.611  11.435  1.00  0.00    -0.306 N 
HETATM    8  C   UNL     1     -39.652 -48.756  12.801  1.00  0.00     0.323 C 
HETATM    9  N   UNL     1     -38.676 -49.668  13.209  1.00  0.00    -0.334 N 
HETATM   10  O   UNL     1     -40.350 -48.150  13.610  1.00  0.00    -0.247 OA
HETATM   11  C   UNL     1     -37.668 -50.219  12.307  1.00  0.00     0.155 C 
HETATM   12  H   UNL     1     -39.345 -49.288  10.831  1.00  0.00     0.171 HD
BRANCH   9  13
HETATM   13  C   UNL     1     -38.591 -49.990  14.654  1.00  0.00     0.087 C 
HETATM   14  C   UNL     1     -37.243 -49.519  15.215  1.00  0.00     0.033 C 
BRANCH  13  15
HETATM   15  C   UNL     1     -38.899 -51.484  14.967  1.00  0.00    -0.000 C 
HETATM   16  C   UNL     1     -38.524 -51.846  16.412  1.00  0.00     0.011 C 
HETATM   17  C   UNL     1     -40.384 -51.817  14.765  1.00  0.00     0.011 C 
ENDBRANCH  13  15
ENDBRANCH   9  13
ENDBRANCH   1   7
BRANCH   5  18
HETATM   18  C   UNL     1     -43.964 -46.940   9.489  1.00  0.00     0.250 C 
BRANCH  18  19
HETATM   19  C   UNL     1     -44.256 -47.751   8.250  1.00  0.00     0.235 C 
HETATM   20  O   UNL     1     -43.436 -47.961   7.359  1.00  0.00    -0.272 OA
HETATM   21  N   UNL     1     -45.525 -48.246   8.131  1.00  0.00    -0.369 N 
HETATM   22  H   UNL     1     -46.194 -48.249   8.891  1.00  0.00     0.159 HD
HETATM   23  H   UNL     1     -45.723 -48.829   7.326  1.00  0.00     0.159 HD
ENDBRANCH  18  19
ENDBRANCH   5  18
TORSDOF 5
ENDMDL
MODEL 8
REMARK VINA RESULT:      -5.0      3.709      8.155
REMARK  5 active torsions:
REMARK  status: ('A' for Active; 'I' for Inactive)
REMARK    1  A    between atoms: C_2  and  C_4 
REMARK    2  A    between atoms: C_4  and  N_6 
REMARK       I    between atoms: N_6  and  C_8 
REMARK       I    between atoms: C_8  and  N_10 
REMARK    3  A    between atoms: N_10  and  C_11 
REMARK    4  A    between atoms: N_15  and  C_16 
REMARK    5  A    between atoms: C_16  and  C_17 
REMARK       I    between atoms: C_17  and  N_19 
ROOT
HETATM    1  C   UNL     1     -41.288 -52.203  12.709  1.00  0.00     0.070 A 
HETATM    2  C   UNL     1     -41.003 -53.583  12.774  1.00  0.00     0.138 A 
HETATM    3  N   UNL     1     -42.108 -54.332  12.822  1.00  0.00    -0.307 N 
ATOM      4  HN  UNL     1     -42.180 -55.348  12.888  1.00  0.00     0.186 HD
HETATM    5  N   UNL     1     -43.109 -53.428  12.763  1.00  0.00    -0.293 N 
HETATM    6  C   UNL     1     -42.660 -52.136  12.784  1.00  0.00     0.141 A 
ENDROOT
BRANCH   1   7
HETATM    7  N   UNL     1     -40.460 -51.101  12.583  1.00  0.00    -0.306 N 
HETATM    8  C   UNL     1     -40.090 -50.305  13.648  1.00  0.00     0.323 C 
HETATM    9  N   UNL     1     -39.222 -49.258  13.328  1.00  0.00    -0.334 N 
HETATM   10  O   UNL     1     -40.470 -50.502  14.799  1.00  0.00    -0.247 OA
HETATM   11  C   UNL     1     -38.943 -48.839  11.958  1.00  0.00     0.155 C 
HETATM   12  H   UNL     1     -39.947 -51.028  11.720  1.00  0.00     0.171 HD
BRANCH   9  13
HETATM   13  C   UNL     1     -38.660 -48.460  14.445  1.00  0.00     0.087 C 
HETATM   14  C   UNL     1     -38.926 -46.968  14.206  1.00  0.00     0.033 C 
BRANCH  13  15
HETATM   15  C   UNL     1     -37.163 -48.779  14.732  1.00  0.00    -0.000 C 
HETATM   16  C   UNL     1     -36.517 -47.704  15.617  1.00  0.00     0.011 C 
HETATM   17  C   UNL     1     -36.992 -50.136  15.432  1.00  0.00     0.011 C 
ENDBRANCH  13  15
ENDBRANCH   9  13
ENDBRANCH   1   7
BRANCH   5  18
HETATM   18  C   UNL     1     -44.474 -53.922  12.691  1.00  0.00     0.250 C 
BRANCH  18  19
HETATM   19  C   UNL     1     -44.879 -54.761  13.879  1.00  0.00     0.235 C 
HETATM   20  O   UNL     1     -44.082 -55.282  14.656  1.00  0.00    -0.272 OA
HETATM   21  N   UNL     1     -46.221 -54.954  14.059  1.00  0.00    -0.369 N 
HETATM   22  H   UNL     1     -46.929 -54.429  13.560  1.00  0.00     0.159 HD
HETATM   23  H   UNL     1     -46.509 -55.479  14.876  1.00  0.00     0.159 HD
ENDBRANCH  18  19
ENDBRANCH   5  18
TORSDOF 5
ENDMDL
MODEL 9
REMARK VINA RESULT:      -5.0      3.980      4.620
REMARK  5 active torsions:
REMARK  status: ('A' for Active; 'I' for Inactive)
REMARK    1  A    between atoms: C_2  and  C_4 
REMARK    2  A    between atoms: C_4  and  N_6 
REMARK       I    between atoms: N_6  and  C_8 
REMARK       I    between atoms: C_8  and  N_10 
REMARK    3  A    between atoms: N_10  and  C_11 
REMARK    4  A    between atoms: N_15  and  C_16 
REMARK    5  A    between atoms: C_16  and  C_17 
REMARK       I    between atoms: C_17  and  N_19 
ROOT
HETATM    1  C   UNL     1     -40.801 -51.220  14.283  1.00  0.00     0.070 A 
HETATM    2  C   UNL     1     -39.750 -51.587  15.151  1.00  0.00     0.138 A 
HETATM    3  N   UNL     1     -38.555 -51.192  14.701  1.00  0.00    -0.307 N 
ATOM      4  HN  UNL     1     -37.641 -51.342  15.127  1.00  0.00     0.186 HD
HETATM    5  N   UNL     1     -38.844 -50.547  13.551  1.00  0.00    -0.293 N 
HETATM    6  C   UNL     1     -40.170 -50.619  13.219  1.00  0.00     0.141 A 
ENDROOT
BRANCH   1   7
HETATM    7  N   UNL     1     -42.173 -51.370  14.392  1.00  0.00    -0.306 N 
HETATM    8  C   UNL     1     -42.928 -52.109  13.504  1.00  0.00     0.323 C 
HETATM    9  N   UNL     1     -44.292 -52.170  13.797  1.00  0.00    -0.334 N 
HETATM   10  O   UNL     1     -42.447 -52.692  12.536  1.00  0.00    -0.247 OA
HETATM   11  C   UNL     1     -44.939 -51.305  14.779  1.00  0.00     0.155 C 
HETATM   12  H   UNL     1     -42.579 -51.109  15.274  1.00  0.00     0.171 HD
BRANCH   9  13
HETATM   13  C   UNL     1     -45.135 -53.074  12.978  1.00  0.00     0.087 C 
HETATM   14  C   UNL     1     -46.370 -52.317  12.469  1.00  0.00     0.033 C 
BRANCH  13  15
HETATM   15  C   UNL     1     -45.488 -54.406  13.702  1.00  0.00    -0.000 C 
HETATM   16  C   UNL     1     -44.256 -55.021  14.383  1.00  0.00     0.011 C 
HETATM   17  C   UNL     1     -46.570 -54.206  14.773  1.00  0.00     0.011 C 
ENDBRANCH  13  15
ENDBRANCH   9  13
ENDBRANCH   1   7
BRANCH   5  18
HETATM   18  C   UNL     1     -37.757 -49.892  12.843  1.00  0.00     0.250 C 
BRANCH  18  19
HETATM   19  C   UNL     1     -37.230 -50.686  11.672  1.00  0.00     0.235 C 
HETATM   20  O   UNL     1     -36.758 -51.816  11.766  1.00  0.00    -0.272 OA
HETATM   21  N   UNL     1     -37.271 -50.070  10.451  1.00  0.00    -0.369 N 
HETATM   22  H   UNL     1     -37.788 -49.217  10.277  1.00  0.00     0.159 HD
HETATM   23  H   UNL     1     -36.961 -50.607   9.650  1.00  0.00     0.159 HD
ENDBRANCH  18  19
ENDBRANCH   5  18
TORSDOF 5
ENDMDL
