MODEL 1
REMARK VINA RESULT:      -6.4      0.000      0.000
REMARK  5 active torsions:
REMARK  status: ('A' for Active; 'I' for Inactive)
REMARK    1  A    between atoms: C_2  and  O_3 
REMARK    2  A    between atoms: O_3  and  C_4 
REMARK    3  A    between atoms: C_6  and  N_7 
REMARK       I    between atoms: N_7  and  C_8 
REMARK    4  A    between atoms: C_8  and  C_10 
REMARK    5  A    between atoms: C_10  and  N_12 
ROOT
HETATM    1  N   UNL     1     -43.505 -49.812  12.439  1.00  0.00    -0.354 N 
HETATM    2  C   UNL     1     -42.695 -48.876  11.821  1.00  0.00     0.242 C 
HETATM    3  O   UNL     1     -41.499 -49.062  11.606  1.00  0.00    -0.271 OA
HETATM    4  H   UNL     1     -44.447 -49.514  12.666  1.00  0.00     0.162 HD
ENDROOT
BRANCH   1   5
HETATM    5  C   UNL     1     -42.964 -50.994  13.126  1.00  0.00     0.098 C 
HETATM    6  C   UNL     1     -42.276 -52.088  12.278  1.00  0.00     0.059 C 
HETATM    7  C   UNL     1     -42.818 -53.100  13.340  1.00  0.00     0.133 C 
HETATM    8  C   UNL     1     -44.021 -52.096  13.513  1.00  0.00     0.006 C 
HETATM    9  C   UNL     1     -44.677 -51.881  14.872  1.00  0.00     0.014 C 
HETATM   10  C   UNL     1     -45.203 -52.383  12.576  1.00  0.00     0.014 C 
HETATM   11  C   UNL     1     -46.049 -51.275  14.567  1.00  0.00     0.001 C 
HETATM   12  C   UNL     1     -46.298 -51.453  13.073  1.00  0.00     0.001 C 
BRANCH   7  13
HETATM   13  O   UNL     1     -41.932 -53.261  14.476  1.00  0.00    -0.385 OA
BRANCH  13  14
HETATM   14  C   UNL     1     -41.713 -54.578  14.965  1.00  0.00     0.163 C 
HETATM   15  C   UNL     1     -43.063 -55.249  15.120  1.00  0.00     0.033 C 
ENDBRANCH  13  14
ENDBRANCH   7  13
ENDBRANCH   1   5
BRANCH   2  16
HETATM   16  C   UNL     1     -43.418 -47.605  11.410  1.00  0.00     0.197 C 
HETATM   17  C   UNL     1     -42.615 -46.360  11.772  1.00  0.00     0.044 C 
BRANCH  16  18
HETATM   18  N   UNL     1     -43.732 -47.666   9.996  1.00  0.00    -0.273 N 
HETATM   19  C   UNL     1     -44.939 -47.509   9.388  1.00  0.00     0.202 A 
HETATM   20  N   UNL     1     -44.792 -47.633   8.089  1.00  0.00    -0.346 N 
HETATM   21  C   UNL     1     -43.455 -47.861   7.949  1.00  0.00     0.198 A 
ATOM     22  HN  UNL     1     -45.505 -47.573   7.362  1.00  0.00     0.167 HD
HETATM   23  N   UNL     1     -42.757 -47.886   9.089  1.00  0.00    -0.292 N 
ATOM     24  HN  UNL     1     -41.759 -48.032   9.234  1.00  0.00     0.188 HD
ENDBRANCH  16  18
ENDBRANCH   2  16
TORSDOF 5
ENDMDL
MODEL 2
REMARK VINA RESULT:      -6.1      1.878      2.467
REMARK  5 active torsions:
REMARK  status: ('A' for Active; 'I' for Inactive)
REMARK    1  A    between atoms: C_2  and  O_3 
REMARK    2  A    between atoms: O_3  and  C_4 
REMARK    3  A    between atoms: C_6  and  N_7 
REMARK       I    between atoms: N_7  and  C_8 
REMARK    4  A    between atoms: C_8  and  C_10 
REMARK    5  A    between atoms: C_10  and  N_12 
ROOT
HETATM    1  N   UNL     1     -42.411 -49.866  11.737  1.00  0.00    -0.354 N 
HETATM    2  C   UNL     1     -41.915 -48.633  11.353  1.00  0.00     0.242 C 
HETATM    3  O   UNL     1     -40.718 -48.420  11.166  1.00  0.00    -0.271 OA
HETATM    4  H   UNL     1     -43.397 -49.903  11.971  1.00  0.00     0.162 HD
ENDROOT
BRANCH   1   5
HETATM    5  C   UNL     1     -41.543 -50.955  12.208  1.00  0.00     0.098 C 
HETATM    6  C   UNL     1     -42.102 -52.396  12.205  1.00  0.00     0.059 C 
HETATM    7  C   UNL     1     -41.199 -52.634  13.460  1.00  0.00     0.133 C 
HETATM    8  C   UNL     1     -41.432 -51.106  13.772  1.00  0.00     0.006 C 
HETATM    9  C   UNL     1     -40.335 -50.257  14.405  1.00  0.00     0.014 C 
HETATM   10  C   UNL     1     -42.659 -50.837  14.654  1.00  0.00     0.014 C 
HETATM   11  C   UNL     1     -41.055 -49.043  14.998  1.00  0.00     0.001 C 
HETATM   12  C   UNL     1     -42.548 -49.360  14.997  1.00  0.00     0.001 C 
BRANCH   7  13
HETATM   13  O   UNL     1     -39.848 -53.034  13.121  1.00  0.00    -0.385 OA
BRANCH  13  14
HETATM   14  C   UNL     1     -39.194 -53.956  13.983  1.00  0.00     0.163 C 
HETATM   15  C   UNL     1     -40.214 -54.473  14.975  1.00  0.00     0.033 C 
ENDBRANCH  13  14
ENDBRANCH   7  13
ENDBRANCH   1   5
BRANCH   2  16
HETATM   16  C   UNL     1     -42.981 -47.568  11.161  1.00  0.00     0.197 C 
HETATM   17  C   UNL     1     -42.449 -46.176  11.487  1.00  0.00     0.044 C 
BRANCH  16  18
HETATM   18  N   UNL     1     -43.509 -47.654   9.814  1.00  0.00    -0.273 N 
HETATM   19  C   UNL     1     -44.791 -47.485   9.393  1.00  0.00     0.202 A 
HETATM   20  N   UNL     1     -44.848 -47.640   8.091  1.00  0.00    -0.346 N 
HETATM   21  C   UNL     1     -43.552 -47.901   7.754  1.00  0.00     0.198 A 
ATOM     22  HN  UNL     1     -45.662 -47.581   7.480  1.00  0.00     0.167 HD
HETATM   23  N   UNL     1     -42.688 -47.915   8.775  1.00  0.00    -0.292 N 
ATOM     24  HN  UNL     1     -41.682 -48.079   8.769  1.00  0.00     0.188 HD
ENDBRANCH  16  18
ENDBRANCH   2  16
TORSDOF 5
ENDMDL
MODEL 3
REMARK VINA RESULT:      -5.9      3.790      7.833
REMARK  5 active torsions:
REMARK  status: ('A' for Active; 'I' for Inactive)
REMARK    1  A    between atoms: C_2  and  O_3 
REMARK    2  A    between atoms: O_3  and  C_4 
REMARK    3  A    between atoms: C_6  and  N_7 
REMARK       I    between atoms: N_7  and  C_8 
REMARK    4  A    between atoms: C_8  and  C_10 
REMARK    5  A    between atoms: C_10  and  N_12 
ROOT
HETATM    1  N   UNL     1     -39.710 -47.299  11.007  1.00  0.00    -0.354 N 
HETATM    2  C   UNL     1     -40.415 -48.466  11.246  1.00  0.00     0.242 C 
HETATM    3  O   UNL     1     -41.640 -48.538  11.168  1.00  0.00    -0.271 OA
HETATM    4  H   UNL     1     -38.717 -47.323  11.207  1.00  0.00     0.162 HD
ENDROOT
BRANCH   1   5
HETATM    5  C   UNL     1     -40.367 -45.989  10.895  1.00  0.00     0.098 C 
HETATM    6  C   UNL     1     -39.603 -44.839  10.200  1.00  0.00     0.059 C 
HETATM    7  C   UNL     1     -40.356 -43.887  11.185  1.00  0.00     0.133 C 
HETATM    8  C   UNL     1     -40.328 -45.098  12.193  1.00  0.00     0.006 C 
HETATM    9  C   UNL     1     -41.484 -45.348  13.156  1.00  0.00     0.014 C 
HETATM   10  C   UNL     1     -39.088 -45.119  13.097  1.00  0.00     0.014 C 
HETATM   11  C   UNL     1     -40.907 -46.236  14.260  1.00  0.00     0.001 C 
HETATM   12  C   UNL     1     -39.389 -46.215  14.108  1.00  0.00     0.001 C 
BRANCH   7  13
HETATM   13  O   UNL     1     -41.656 -43.474  10.694  1.00  0.00    -0.385 OA
BRANCH  13  14
HETATM   14  C   UNL     1     -42.125 -42.183  11.063  1.00  0.00     0.163 C 
HETATM   15  C   UNL     1     -41.018 -41.484  11.825  1.00  0.00     0.033 C 
ENDBRANCH  13  14
ENDBRANCH   7  13
ENDBRANCH   1   5
BRANCH   2  16
HETATM   16  C   UNL     1     -39.540 -49.658  11.594  1.00  0.00     0.197 C 
HETATM   17  C   UNL     1     -38.418 -49.270  12.551  1.00  0.00     0.044 C 
BRANCH  16  18
HETATM   18  N   UNL     1     -40.368 -50.725  12.119  1.00  0.00    -0.273 N 
HETATM   19  C   UNL     1     -40.627 -51.037  13.418  1.00  0.00     0.202 A 
HETATM   20  N   UNL     1     -41.433 -52.072  13.466  1.00  0.00    -0.346 N 
HETATM   21  C   UNL     1     -41.649 -52.357  12.150  1.00  0.00     0.198 A 
ATOM     22  HN  UNL     1     -41.807 -52.547  14.288  1.00  0.00     0.167 HD
HETATM   23  N   UNL     1     -41.023 -51.557  11.282  1.00  0.00    -0.292 N 
ATOM     24  HN  UNL     1     -41.036 -51.571  10.262  1.00  0.00     0.188 HD
ENDBRANCH  16  18
ENDBRANCH   2  16
TORSDOF 5
ENDMDL
MODEL 4
REMARK VINA RESULT:      -5.8      3.475      7.248
REMARK  5 active torsions:
REMARK  status: ('A' for Active; 'I' for Inactive)
REMARK    1  A    between atoms: C_2  and  O_3 
REMARK    2  A    between atoms: O_3  and  C_4 
REMARK    3  A    between atoms: C_6  and  N_7 
REMARK       I    between atoms: N_7  and  C_8 
REMARK    4  A    between atoms: C_8  and  C_10 
REMARK    5  A    between atoms: C_10  and  N_12 
ROOT
HETATM    1  N   UNL     1     -40.650 -51.141  12.218  1.00  0.00    -0.354 N 
HETATM    2  C   UNL     1     -41.793 -51.825  12.591  1.00  0.00     0.242 C 
HETATM    3  O   UNL     1     -42.867 -51.268  12.808  1.00  0.00    -0.271 OA
HETATM    4  H   UNL     1     -39.794 -51.683  12.171  1.00  0.00     0.162 HD
ENDROOT
BRANCH   1   5
HETATM    5  C   UNL     1     -40.542 -49.677  12.302  1.00  0.00     0.098 C 
HETATM    6  C   UNL     1     -40.758 -48.848  11.016  1.00  0.00     0.059 C 
HETATM    7  C   UNL     1     -39.722 -47.843  11.619  1.00  0.00     0.133 C 
HETATM    8  C   UNL     1     -39.075 -49.104  12.307  1.00  0.00     0.006 C 
HETATM    9  C   UNL     1     -38.447 -49.009  13.694  1.00  0.00     0.014 C 
HETATM   10  C   UNL     1     -37.988 -49.780  11.459  1.00  0.00     0.014 C 
HETATM   11  C   UNL     1     -37.521 -50.222  13.803  1.00  0.00     0.001 C 
HETATM   12  C   UNL     1     -37.371 -50.802  12.400  1.00  0.00     0.001 C 
BRANCH   7  13
HETATM   13  O   UNL     1     -40.328 -46.859  12.494  1.00  0.00    -0.385 OA
BRANCH  13  14
HETATM   14  C   UNL     1     -40.016 -45.490  12.268  1.00  0.00     0.163 C 
HETATM   15  C   UNL     1     -39.840 -45.291  10.777  1.00  0.00     0.033 C 
ENDBRANCH  13  14
ENDBRANCH   7  13
ENDBRANCH   1   5
BRANCH   2  16
HETATM   16  C   UNL     1     -41.612 -53.331  12.686  1.00  0.00     0.197 C 
HETATM   17  C   UNL     1     -40.399 -53.696  13.535  1.00  0.00     0.044 C 
BRANCH  16  18
HETATM   18  N   UNL     1     -42.833 -53.931  13.183  1.00  0.00    -0.273 N 
HETATM   19  C   UNL     1     -43.059 -54.525  14.386  1.00  0.00     0.202 A 
HETATM   20  N   UNL     1     -44.304 -54.935  14.444  1.00  0.00    -0.346 N 
HETATM   21  C   UNL     1     -44.811 -54.556  13.236  1.00  0.00     0.198 A 
ATOM     22  HN  UNL     1     -44.778 -55.418  15.207  1.00  0.00     0.167 HD
HETATM   23  N   UNL     1     -43.951 -53.932  12.426  1.00  0.00    -0.292 N 
ATOM     24  HN  UNL     1     -44.099 -53.556  11.489  1.00  0.00     0.188 HD
ENDBRANCH  16  18
ENDBRANCH   2  16
TORSDOF 5
ENDMDL
MODEL 5
REMARK VINA RESULT:      -5.7      2.836      6.725
REMARK  5 active torsions:
REMARK  status: ('A' for Active; 'I' for Inactive)
REMARK    1  A    between atoms: C_2  and  O_3 
REMARK    2  A    between atoms: O_3  and  C_4 
REMARK    3  A    between atoms: C_6  and  N_7 
REMARK       I    between atoms: N_7  and  C_8 
REMARK    4  A    between atoms: C_8  and  C_10 
REMARK    5  A    between atoms: C_10  and  N_12 
ROOT
HETATM    1  N   UNL     1     -41.951 -50.402  11.763  1.00  0.00    -0.354 N 
HETATM    2  C   UNL     1     -42.467 -51.138  12.814  1.00  0.00     0.242 C 
HETATM    3  O   UNL     1     -42.811 -50.634  13.881  1.00  0.00    -0.271 OA
HETATM    4  H   UNL     1     -41.598 -50.929  10.973  1.00  0.00     0.162 HD
ENDROOT
BRANCH   1   5
HETATM    5  C   UNL     1     -41.524 -49.003  11.913  1.00  0.00     0.098 C 
HETATM    6  C   UNL     1     -41.316 -48.155  10.638  1.00  0.00     0.059 C 
HETATM    7  C   UNL     1     -40.196 -47.416  11.442  1.00  0.00     0.133 C 
HETATM    8  C   UNL     1     -39.988 -48.789  12.188  1.00  0.00     0.006 C 
HETATM    9  C   UNL     1     -39.606 -48.833  13.663  1.00  0.00     0.014 C 
HETATM   10  C   UNL     1     -38.957 -49.706  11.515  1.00  0.00     0.014 C 
HETATM   11  C   UNL     1     -39.019 -50.228  13.888  1.00  0.00     0.001 C 
HETATM   12  C   UNL     1     -38.766 -50.838  12.513  1.00  0.00     0.001 C 
BRANCH   7  13
HETATM   13  O   UNL     1     -40.700 -46.311  12.233  1.00  0.00    -0.385 OA
BRANCH  13  14
HETATM   14  C   UNL     1     -39.997 -45.077  12.171  1.00  0.00     0.163 C 
HETATM   15  C   UNL     1     -39.963 -44.631  10.724  1.00  0.00     0.033 C 
ENDBRANCH  13  14
ENDBRANCH   7  13
ENDBRANCH   1   5
BRANCH   2  16
HETATM   16  C   UNL     1     -42.594 -52.625  12.526  1.00  0.00     0.197 C 
HETATM   17  C   UNL     1     -41.576 -53.438  13.319  1.00  0.00     0.044 C 
BRANCH  16  18
HETATM   18  N   UNL     1     -43.956 -53.050  12.780  1.00  0.00    -0.273 N 
HETATM   19  C   UNL     1     -44.394 -54.228  13.300  1.00  0.00     0.202 A 
HETATM   20  N   UNL     1     -45.704 -54.212  13.374  1.00  0.00    -0.346 N 
HETATM   21  C   UNL     1     -46.027 -52.980  12.887  1.00  0.00     0.198 A 
ATOM     22  HN  UNL     1     -46.329 -54.944  13.712  1.00  0.00     0.167 HD
HETATM   23  N   UNL     1     -44.990 -52.224  12.513  1.00  0.00    -0.292 N 
ATOM     24  HN  UNL     1     -44.981 -51.279  12.131  1.00  0.00     0.188 HD
ENDBRANCH  16  18
ENDBRANCH   2  16
TORSDOF 5
ENDMDL
MODEL 6
REMARK VINA RESULT:      -5.6      2.538      3.425
REMARK  5 active torsions:
REMARK  status: ('A' for Active; 'I' for Inactive)
REMARK    1  A    between atoms: C_2  and  O_3 
REMARK    2  A    between atoms: O_3  and  C_4 
REMARK    3  A    between atoms: C_6  and  N_7 
REMARK       I    between atoms: N_7  and  C_8 
REMARK    4  A    between atoms: C_8  and  C_10 
REMARK    5  A    between atoms: C_10  and  N_12 
ROOT
HETATM    1  N   UNL     1     -41.517 -50.030  11.341  1.00  0.00    -0.354 N 
HETATM    2  C   UNL     1     -40.911 -48.794  11.202  1.00  0.00     0.242 C 
HETATM    3  O   UNL     1     -39.720 -48.601  11.438  1.00  0.00    -0.271 OA
HETATM    4  H   UNL     1     -42.524 -50.054  11.228  1.00  0.00     0.162 HD
ENDROOT
BRANCH   1   5
HETATM    5  C   UNL     1     -40.867 -51.156  12.026  1.00  0.00     0.098 C 
HETATM    6  C   UNL     1     -41.451 -52.574  11.831  1.00  0.00     0.059 C 
HETATM    7  C   UNL     1     -40.969 -52.857  13.292  1.00  0.00     0.133 C 
HETATM    8  C   UNL     1     -41.229 -51.324  13.550  1.00  0.00     0.006 C 
HETATM    9  C   UNL     1     -40.339 -50.523  14.495  1.00  0.00     0.014 C 
HETATM   10  C   UNL     1     -42.651 -51.012  14.035  1.00  0.00     0.014 C 
HETATM   11  C   UNL     1     -41.158 -49.286  14.871  1.00  0.00     0.001 C 
HETATM   12  C   UNL     1     -42.594 -49.543  14.424  1.00  0.00     0.001 C 
BRANCH   7  13
HETATM   13  O   UNL     1     -39.593 -53.307  13.360  1.00  0.00    -0.385 OA
BRANCH  13  14
HETATM   14  C   UNL     1     -39.269 -54.304  14.320  1.00  0.00     0.163 C 
HETATM   15  C   UNL     1     -40.486 -54.525  15.194  1.00  0.00     0.033 C 
ENDBRANCH  13  14
ENDBRANCH   7  13
ENDBRANCH   1   5
BRANCH   2  16
HETATM   16  C   UNL     1     -41.842 -47.698  10.711  1.00  0.00     0.197 C 
HETATM   17  C   UNL     1     -43.215 -47.794  11.367  1.00  0.00     0.044 C 
BRANCH  16  18
HETATM   18  N   UNL     1     -41.219 -46.407  10.923  1.00  0.00    -0.273 N 
HETATM   19  C   UNL     1     -41.530 -45.456  11.845  1.00  0.00     0.202 A 
HETATM   20  N   UNL     1     -40.719 -44.434  11.708  1.00  0.00    -0.346 N 
HETATM   21  C   UNL     1     -39.911 -44.815  10.677  1.00  0.00     0.198 A 
ATOM     22  HN  UNL     1     -40.697 -43.565  12.242  1.00  0.00     0.167 HD
HETATM   23  N   UNL     1     -40.172 -46.021  10.163  1.00  0.00    -0.292 N 
ATOM     24  HN  UNL     1     -39.707 -46.516   9.402  1.00  0.00     0.188 HD
ENDBRANCH  16  18
ENDBRANCH   2  16
TORSDOF 5
ENDMDL
MODEL 7
REMARK VINA RESULT:      -5.5      2.405      3.861
REMARK  5 active torsions:
REMARK  status: ('A' for Active; 'I' for Inactive)
REMARK    1  A    between atoms: C_2  and  O_3 
REMARK    2  A    between atoms: O_3  and  C_4 
REMARK    3  A    between atoms: C_6  and  N_7 
REMARK       I    between atoms: N_7  and  C_8 
REMARK    4  A    between atoms: C_8  and  C_10 
REMARK    5  A    between atoms: C_10  and  N_12 
ROOT
HETATM    1  N   UNL     1     -41.377 -49.121  11.226  1.00  0.00    -0.354 N 
HETATM    2  C   UNL     1     -42.540 -48.473  11.602  1.00  0.00     0.242 C 
HETATM    3  O   UNL     1     -43.274 -48.881  12.500  1.00  0.00    -0.271 OA
HETATM    4  H   UNL     1     -40.906 -48.762  10.403  1.00  0.00     0.162 HD
ENDROOT
BRANCH   1   5
HETATM    5  C   UNL     1     -41.050 -50.482  11.676  1.00  0.00     0.098 C 
HETATM    6  C   UNL     1     -41.990 -51.168  12.693  1.00  0.00     0.059 C 
HETATM    7  C   UNL     1     -40.708 -51.880  13.235  1.00  0.00     0.133 C 
HETATM    8  C   UNL     1     -39.938 -50.580  12.786  1.00  0.00     0.006 C 
HETATM    9  C   UNL     1     -38.516 -50.657  12.241  1.00  0.00     0.014 C 
HETATM   10  C   UNL     1     -39.853 -49.505  13.879  1.00  0.00     0.014 C 
HETATM   11  C   UNL     1     -37.947 -49.244  12.393  1.00  0.00     0.001 C 
HETATM   12  C   UNL     1     -38.897 -48.472  13.305  1.00  0.00     0.001 C 
BRANCH   7  13
HETATM   13  O   UNL     1     -40.394 -53.104  12.525  1.00  0.00    -0.385 OA
BRANCH  13  14
HETATM   14  C   UNL     1     -40.246 -54.294  13.289  1.00  0.00     0.163 C 
HETATM   15  C   UNL     1     -39.256 -54.015  14.401  1.00  0.00     0.033 C 
ENDBRANCH  13  14
ENDBRANCH   7  13
ENDBRANCH   1   5
BRANCH   2  16
HETATM   16  C   UNL     1     -42.819 -47.198  10.824  1.00  0.00     0.197 C 
HETATM   17  C   UNL     1     -41.532 -46.561  10.312  1.00  0.00     0.044 C 
BRANCH  16  18
HETATM   18  N   UNL     1     -43.756 -47.483   9.756  1.00  0.00    -0.273 N 
HETATM   19  C   UNL     1     -43.508 -47.630   8.426  1.00  0.00     0.202 A 
HETATM   20  N   UNL     1     -44.630 -47.889   7.798  1.00  0.00    -0.346 N 
HETATM   21  C   UNL     1     -45.552 -47.897   8.803  1.00  0.00     0.198 A 
ATOM     22  HN  UNL     1     -44.778 -48.045   6.801  1.00  0.00     0.167 HD
HETATM   23  N   UNL     1     -45.067 -47.659  10.026  1.00  0.00    -0.292 N 
ATOM     24  HN  UNL     1     -45.555 -47.620  10.920  1.00  0.00     0.188 HD
ENDBRANCH  16  18
ENDBRANCH   2  16
TORSDOF 5
ENDMDL
MODEL 8
REMARK VINA RESULT:      -5.4      3.612      5.588
REMARK  5 active torsions:
REMARK  status: ('A' for Active; 'I' for Inactive)
REMARK    1  A    between atoms: C_2  and  O_3 
REMARK    2  A    between atoms: O_3  and  C_4 
REMARK    3  A    between atoms: C_6  and  N_7 
REMARK       I    between atoms: N_7  and  C_8 
REMARK    4  A    between atoms: C_8  and  C_10 
REMARK    5  A    between atoms: C_10  and  N_12 
ROOT
HETATM    1  N   UNL     1     -43.773 -52.637  15.725  1.00  0.00    -0.354 N 
HETATM    2  C   UNL     1     -42.769 -51.934  15.084  1.00  0.00     0.242 C 
HETATM    3  O   UNL     1     -42.718 -50.706  15.065  1.00  0.00    -0.271 OA
HETATM    4  H   UNL     1     -43.781 -53.641  15.585  1.00  0.00     0.162 HD
ENDROOT
BRANCH   1   5
HETATM    5  C   UNL     1     -45.001 -51.993  16.214  1.00  0.00     0.098 C 
HETATM    6  C   UNL     1     -45.752 -52.642  17.399  1.00  0.00     0.059 C 
HETATM    7  C   UNL     1     -47.056 -52.089  16.736  1.00  0.00     0.133 C 
HETATM    8  C   UNL     1     -46.298 -52.274  15.366  1.00  0.00     0.006 C 
HETATM    9  C   UNL     1     -46.512 -51.300  14.212  1.00  0.00     0.014 C 
HETATM   10  C   UNL     1     -46.509 -53.653  14.726  1.00  0.00     0.014 C 
HETATM   11  C   UNL     1     -46.044 -52.048  12.961  1.00  0.00     0.001 C 
HETATM   12  C   UNL     1     -45.887 -53.516  13.346  1.00  0.00     0.001 C 
BRANCH   7  13
HETATM   13  O   UNL     1     -47.364 -50.730  17.135  1.00  0.00    -0.385 OA
BRANCH  13  14
HETATM   14  C   UNL     1     -48.363 -50.541  18.129  1.00  0.00     0.163 C 
HETATM   15  C   UNL     1     -48.213 -49.140  18.682  1.00  0.00     0.033 C 
ENDBRANCH  13  14
ENDBRANCH   7  13
ENDBRANCH   1   5
BRANCH   2  16
HETATM   16  C   UNL     1     -41.722 -52.813  14.422  1.00  0.00     0.197 C 
HETATM   17  C   UNL     1     -42.284 -54.186  14.070  1.00  0.00     0.044 C 
BRANCH  16  18
HETATM   18  N   UNL     1     -41.179 -52.127  13.267  1.00  0.00    -0.273 N 
HETATM   19  C   UNL     1     -41.565 -52.220  11.966  1.00  0.00     0.202 A 
HETATM   20  N   UNL     1     -40.820 -51.427  11.231  1.00  0.00    -0.346 N 
HETATM   21  C   UNL     1     -39.984 -50.855  12.144  1.00  0.00     0.198 A 
ATOM     22  HN  UNL     1     -40.857 -51.276  10.223  1.00  0.00     0.167 HD
HETATM   23  N   UNL     1     -40.166 -51.246  13.409  1.00  0.00    -0.292 N 
ATOM     24  HN  UNL     1     -39.673 -50.957  14.254  1.00  0.00     0.188 HD
ENDBRANCH  16  18
ENDBRANCH   2  16
TORSDOF 5
ENDMDL
MODEL 9
REMARK VINA RESULT:      -5.3      3.824      5.962
REMARK  5 active torsions:
REMARK  status: ('A' for Active; 'I' for Inactive)
REMARK    1  A    between atoms: C_2  and  O_3 
REMARK    2  A    between atoms: O_3  and  C_4 
REMARK    3  A    between atoms: C_6  and  N_7 
REMARK       I    between atoms: N_7  and  C_8 
REMARK    4  A    between atoms: C_8  and  C_10 
REMARK    5  A    between atoms: C_10  and  N_12 
ROOT
HETATM    1  N   UNL     1     -42.225 -53.799  13.609  1.00  0.00    -0.354 N 
HETATM    2  C   UNL     1     -43.424 -53.611  12.944  1.00  0.00     0.242 C 
HETATM    3  O   UNL     1     -43.513 -52.995  11.884  1.00  0.00    -0.271 OA
HETATM    4  H   UNL     1     -42.280 -54.224  14.528  1.00  0.00     0.162 HD
ENDROOT
BRANCH   1   5
HETATM    5  C   UNL     1     -41.000 -53.067  13.253  1.00  0.00     0.098 C 
HETATM    6  C   UNL     1     -39.666 -53.506  13.897  1.00  0.00     0.059 C 
HETATM    7  C   UNL     1     -39.256 -51.999  13.818  1.00  0.00     0.133 C 
HETATM    8  C   UNL     1     -40.792 -51.693  13.993  1.00  0.00     0.006 C 
HETATM    9  C   UNL     1     -41.442 -50.503  13.294  1.00  0.00     0.014 C 
HETATM   10  C   UNL     1     -41.228 -51.540  15.457  1.00  0.00     0.014 C 
HETATM   11  C   UNL     1     -42.737 -50.239  14.065  1.00  0.00     0.001 C 
HETATM   12  C   UNL     1     -42.660 -51.037  15.363  1.00  0.00     0.001 C 
BRANCH   7  13
HETATM   13  O   UNL     1     -38.657 -51.639  12.549  1.00  0.00    -0.385 OA
BRANCH  13  14
HETATM   14  C   UNL     1     -37.448 -50.891  12.575  1.00  0.00     0.163 C 
HETATM   15  C   UNL     1     -37.562 -49.783  11.548  1.00  0.00     0.033 C 
ENDBRANCH  13  14
ENDBRANCH   7  13
ENDBRANCH   1   5
BRANCH   2  16
HETATM   16  C   UNL     1     -44.620 -54.250  13.629  1.00  0.00     0.197 C 
HETATM   17  C   UNL     1     -44.187 -55.196  14.744  1.00  0.00     0.044 C 
BRANCH  16  18
HETATM   18  N   UNL     1     -45.514 -53.213  14.102  1.00  0.00    -0.273 N 
HETATM   19  C   UNL     1     -46.161 -53.130  15.297  1.00  0.00     0.202 A 
HETATM   20  N   UNL     1     -46.870 -52.027  15.333  1.00  0.00    -0.346 N 
HETATM   21  C   UNL     1     -46.615 -51.454  14.121  1.00  0.00     0.198 A 
ATOM     22  HN  UNL     1     -47.467 -51.681  16.085  1.00  0.00     0.167 HD
HETATM   23  N   UNL     1     -45.785 -52.140  13.330  1.00  0.00    -0.292 N 
ATOM     24  HN  UNL     1     -45.446 -51.913  12.395  1.00  0.00     0.188 HD
ENDBRANCH  16  18
ENDBRANCH   2  16
TORSDOF 5
ENDMDL
