MODEL 1
REMARK VINA RESULT:      -6.4      0.000      0.000
REMARK  8 active torsions:
REMARK  status: ('A' for Active; 'I' for Inactive)
REMARK    1  A    between atoms: O_2  and  C_3 
REMARK    2  A    between atoms: C_8  and  O_9 
REMARK    3  A    between atoms: O_9  and  C_10 
REMARK    4  A    between atoms: C_10  and  C_11 
REMARK    5  A    between atoms: C_11  and  N_12 
REMARK    6  A    between atoms: C_13  and  C_22 
REMARK    7  A    between atoms: C_22  and  N_24 
REMARK    8  A    between atoms: N_24  and  C_25 
ROOT
HETATM    1  N   UNL     1     -41.129 -49.320  12.703  1.00  0.00    -0.331 N 
HETATM    2  C   UNL     1     -41.023 -48.585  11.526  1.00  0.00     0.107 A 
HETATM    3  N   UNL     1     -39.859 -48.804  10.942  1.00  0.00    -0.342 N 
ATOM      4  HN  UNL     1     -39.544 -48.432  10.046  1.00  0.00     0.167 HD
HETATM    5  C   UNL     1     -39.161 -49.626  11.779  1.00  0.00     0.060 A 
HETATM    6  C   UNL     1     -37.848 -50.105  11.638  1.00  0.00     0.032 A 
HETATM    7  C   UNL     1     -37.323 -50.959  12.610  1.00  0.00     0.002 A 
HETATM    8  C   UNL     1     -38.091 -51.322  13.709  1.00  0.00     0.002 A 
HETATM    9  C   UNL     1     -39.392 -50.830  13.877  1.00  0.00     0.032 A 
HETATM   10  C   UNL     1     -39.923 -49.979  12.892  1.00  0.00     0.062 A 
ENDROOT
BRANCH   1  11
HETATM   11  C   UNL     1     -42.303 -49.325  13.573  1.00  0.00     0.157 C 
BRANCH  11  12
HETATM   12  C   UNL     1     -43.404 -50.304  13.180  1.00  0.00     0.196 C 
BRANCH  12  13
HETATM   13  O   UNL     1     -42.881 -51.495  12.594  1.00  0.00    -0.347 OA
BRANCH  13  14
HETATM   14  C   UNL     1     -43.260 -52.685  13.183  1.00  0.00     0.102 A 
HETATM   15  C   UNL     1     -44.434 -53.441  12.965  1.00  0.00     0.101 A 
HETATM   16  C   UNL     1     -44.645 -54.610  13.715  1.00  0.00     0.039 A 
HETATM   17  C   UNL     1     -43.703 -55.044  14.649  1.00  0.00     0.003 A 
HETATM   18  C   UNL     1     -42.535 -54.316  14.845  1.00  0.00     0.003 A 
HETATM   19  C   UNL     1     -42.318 -53.146  14.117  1.00  0.00     0.039 A 
BRANCH  15  20
HETATM   20  O   UNL     1     -45.364 -52.983  12.069  1.00  0.00    -0.353 OA
HETATM   21  C   UNL     1     -46.438 -52.192  12.563  1.00  0.00     0.210 C 
ENDBRANCH  15  20
ENDBRANCH  13  14
ENDBRANCH  12  13
ENDBRANCH  11  12
ENDBRANCH   1  11
BRANCH   2  22
HETATM   22  C   UNL     1     -42.082 -47.665  10.980  1.00  0.00     0.147 C 
HETATM   23  C   UNL     1     -41.493 -46.300  10.613  1.00  0.00     0.040 C 
BRANCH  22  24
HETATM   24  N   UNL     1     -42.647 -48.291   9.798  1.00  0.00    -0.357 N 
HETATM   25  H   UNL     1     -42.259 -49.184   9.516  1.00  0.00     0.162 HD
BRANCH  24  26
HETATM   26  C   UNL     1     -43.381 -47.573   8.896  1.00  0.00     0.349 C 
HETATM   27  O   UNL     1     -43.403 -47.763   7.687  1.00  0.00    -0.284 OA
ENDBRANCH  24  26
ENDBRANCH  22  24
ENDBRANCH   2  22
TORSDOF 8
ENDMDL
MODEL 2
REMARK VINA RESULT:      -6.3      1.266      2.195
REMARK  8 active torsions:
REMARK  status: ('A' for Active; 'I' for Inactive)
REMARK    1  A    between atoms: O_2  and  C_3 
REMARK    2  A    between atoms: C_8  and  O_9 
REMARK    3  A    between atoms: O_9  and  C_10 
REMARK    4  A    between atoms: C_10  and  C_11 
REMARK    5  A    between atoms: C_11  and  N_12 
REMARK    6  A    between atoms: C_13  and  C_22 
REMARK    7  A    between atoms: C_22  and  N_24 
REMARK    8  A    between atoms: N_24  and  C_25 
ROOT
HETATM    1  N   UNL     1     -41.342 -50.162  12.259  1.00  0.00    -0.331 N 
HETATM    2  C   UNL     1     -41.329 -49.105  11.355  1.00  0.00     0.107 A 
HETATM    3  N   UNL     1     -40.097 -48.840  10.962  1.00  0.00    -0.342 N 
ATOM      4  HN  UNL     1     -39.810 -48.149  10.268  1.00  0.00     0.167 HD
HETATM    5  C   UNL     1     -39.283 -49.674  11.672  1.00  0.00     0.060 A 
HETATM    6  C   UNL     1     -37.880 -49.746  11.660  1.00  0.00     0.032 A 
HETATM    7  C   UNL     1     -37.235 -50.694  12.458  1.00  0.00     0.002 A 
HETATM    8  C   UNL     1     -37.978 -51.550  13.261  1.00  0.00     0.002 A 
HETATM    9  C   UNL     1     -39.376 -51.473  13.304  1.00  0.00     0.032 A 
HETATM   10  C   UNL     1     -40.023 -50.525  12.493  1.00  0.00     0.062 A 
ENDROOT
BRANCH   1  11
HETATM   11  C   UNL     1     -42.549 -50.721  12.862  1.00  0.00     0.157 C 
BRANCH  11  12
HETATM   12  C   UNL     1     -42.761 -52.215  12.638  1.00  0.00     0.196 C 
BRANCH  12  13
HETATM   13  O   UNL     1     -44.110 -52.520  12.290  1.00  0.00    -0.347 OA
BRANCH  13  14
HETATM   14  C   UNL     1     -45.004 -52.633  13.337  1.00  0.00     0.102 A 
HETATM   15  C   UNL     1     -45.164 -53.703  14.247  1.00  0.00     0.101 A 
HETATM   16  C   UNL     1     -46.178 -53.632  15.215  1.00  0.00     0.039 A 
HETATM   17  C   UNL     1     -47.008 -52.514  15.306  1.00  0.00     0.003 A 
HETATM   18  C   UNL     1     -46.834 -51.450  14.430  1.00  0.00     0.003 A 
HETATM   19  C   UNL     1     -45.839 -51.511  13.454  1.00  0.00     0.039 A 
BRANCH  15  20
HETATM   20  O   UNL     1     -44.363 -54.808  14.122  1.00  0.00    -0.353 OA
HETATM   21  C   UNL     1     -43.300 -54.974  15.052  1.00  0.00     0.210 C 
ENDBRANCH  15  20
ENDBRANCH  13  14
ENDBRANCH  12  13
ENDBRANCH  11  12
ENDBRANCH   1  11
BRANCH   2  22
HETATM   22  C   UNL     1     -42.547 -48.357  10.877  1.00  0.00     0.147 C 
HETATM   23  C   UNL     1     -42.716 -47.038  11.634  1.00  0.00     0.040 C 
BRANCH  22  24
HETATM   24  N   UNL     1     -42.377 -48.094   9.459  1.00  0.00    -0.357 N 
HETATM   25  H   UNL     1     -41.441 -48.179   9.080  1.00  0.00     0.162 HD
BRANCH  24  26
HETATM   26  C   UNL     1     -43.321 -47.407   8.747  1.00  0.00     0.349 C 
HETATM   27  O   UNL     1     -44.012 -47.874   7.853  1.00  0.00    -0.284 OA
ENDBRANCH  24  26
ENDBRANCH  22  24
ENDBRANCH   2  22
TORSDOF 8
ENDMDL
MODEL 3
REMARK VINA RESULT:      -6.1      1.482      2.197
REMARK  8 active torsions:
REMARK  status: ('A' for Active; 'I' for Inactive)
REMARK    1  A    between atoms: O_2  and  C_3 
REMARK    2  A    between atoms: C_8  and  O_9 
REMARK    3  A    between atoms: O_9  and  C_10 
REMARK    4  A    between atoms: C_10  and  C_11 
REMARK    5  A    between atoms: C_11  and  N_12 
REMARK    6  A    between atoms: C_13  and  C_22 
REMARK    7  A    between atoms: C_22  and  N_24 
REMARK    8  A    between atoms: N_24  and  C_25 
ROOT
HETATM    1  N   UNL     1     -40.594 -48.421  12.880  1.00  0.00    -0.331 N 
HETATM    2  C   UNL     1     -40.278 -47.740  11.708  1.00  0.00     0.107 A 
HETATM    3  N   UNL     1     -39.203 -48.255  11.143  1.00  0.00    -0.342 N 
ATOM      4  HN  UNL     1     -38.787 -47.979  10.253  1.00  0.00     0.167 HD
HETATM    5  C   UNL     1     -38.759 -49.231  11.987  1.00  0.00     0.060 A 
HETATM    6  C   UNL     1     -37.615 -50.038  11.865  1.00  0.00     0.032 A 
HETATM    7  C   UNL     1     -37.348 -50.999  12.843  1.00  0.00     0.002 A 
HETATM    8  C   UNL     1     -38.203 -51.148  13.927  1.00  0.00     0.002 A 
HETATM    9  C   UNL     1     -39.333 -50.333  14.076  1.00  0.00     0.032 A 
HETATM   10  C   UNL     1     -39.605 -49.373  13.086  1.00  0.00     0.062 A 
ENDROOT
BRANCH   1  11
HETATM   11  C   UNL     1     -41.742 -48.118  13.730  1.00  0.00     0.157 C 
BRANCH  11  12
HETATM   12  C   UNL     1     -42.985 -48.965  13.477  1.00  0.00     0.196 C 
BRANCH  12  13
HETATM   13  O   UNL     1     -42.900 -50.245  14.103  1.00  0.00    -0.347 OA
BRANCH  13  14
HETATM   14  C   UNL     1     -43.706 -51.237  13.581  1.00  0.00     0.102 A 
HETATM   15  C   UNL     1     -43.325 -52.478  13.022  1.00  0.00     0.101 A 
HETATM   16  C   UNL     1     -44.315 -53.326  12.499  1.00  0.00     0.039 A 
HETATM   17  C   UNL     1     -45.664 -52.971  12.546  1.00  0.00     0.003 A 
HETATM   18  C   UNL     1     -46.042 -51.763  13.120  1.00  0.00     0.003 A 
HETATM   19  C   UNL     1     -45.069 -50.905  13.632  1.00  0.00     0.039 A 
BRANCH  15  20
HETATM   20  O   UNL     1     -41.994 -52.797  12.952  1.00  0.00    -0.353 OA
HETATM   21  C   UNL     1     -41.264 -52.379  11.805  1.00  0.00     0.210 C 
ENDBRANCH  15  20
ENDBRANCH  13  14
ENDBRANCH  12  13
ENDBRANCH  11  12
ENDBRANCH   1  11
BRANCH   2  22
HETATM   22  C   UNL     1     -41.051 -46.574  11.148  1.00  0.00     0.147 C 
HETATM   23  C   UNL     1     -40.112 -45.439  10.731  1.00  0.00     0.040 C 
BRANCH  22  24
HETATM   24  N   UNL     1     -41.794 -47.048   9.994  1.00  0.00    -0.357 N 
HETATM   25  H   UNL     1     -41.306 -47.653   9.345  1.00  0.00     0.162 HD
BRANCH  24  26
HETATM   26  C   UNL     1     -42.946 -46.432   9.590  1.00  0.00     0.349 C 
HETATM   27  O   UNL     1     -43.096 -45.835   8.533  1.00  0.00    -0.284 OA
ENDBRANCH  24  26
ENDBRANCH  22  24
ENDBRANCH   2  22
TORSDOF 8
ENDMDL
MODEL 4
REMARK VINA RESULT:      -5.9      1.827      4.177
REMARK  8 active torsions:
REMARK  status: ('A' for Active; 'I' for Inactive)
REMARK    1  A    between atoms: O_2  and  C_3 
REMARK    2  A    between atoms: C_8  and  O_9 
REMARK    3  A    between atoms: O_9  and  C_10 
REMARK    4  A    between atoms: C_10  and  C_11 
REMARK    5  A    between atoms: C_11  and  N_12 
REMARK    6  A    between atoms: C_13  and  C_22 
REMARK    7  A    between atoms: C_22  and  N_24 
REMARK    8  A    between atoms: N_24  and  C_25 
ROOT
HETATM    1  N   UNL     1     -40.905 -49.349  12.249  1.00  0.00    -0.331 N 
HETATM    2  C   UNL     1     -39.611 -48.913  11.985  1.00  0.00     0.107 A 
HETATM    3  N   UNL     1     -39.627 -47.786  11.297  1.00  0.00    -0.342 N 
ATOM      4  HN  UNL     1     -38.821 -47.228  11.017  1.00  0.00     0.167 HD
HETATM    5  C   UNL     1     -40.940 -47.519  11.036  1.00  0.00     0.060 A 
HETATM    6  C   UNL     1     -41.484 -46.462  10.288  1.00  0.00     0.032 A 
HETATM    7  C   UNL     1     -42.871 -46.360  10.155  1.00  0.00     0.002 A 
HETATM    8  C   UNL     1     -43.700 -47.301  10.752  1.00  0.00     0.002 A 
HETATM    9  C   UNL     1     -43.171 -48.375  11.479  1.00  0.00     0.032 A 
HETATM   10  C   UNL     1     -41.775 -48.470  11.620  1.00  0.00     0.062 A 
ENDROOT
BRANCH   1  11
HETATM   11  C   UNL     1     -41.235 -50.549  13.013  1.00  0.00     0.157 C 
BRANCH  11  12
HETATM   12  C   UNL     1     -41.178 -51.858  12.233  1.00  0.00     0.196 C 
BRANCH  12  13
HETATM   13  O   UNL     1     -42.478 -52.376  11.957  1.00  0.00    -0.347 OA
BRANCH  13  14
HETATM   14  C   UNL     1     -42.969 -53.309  12.850  1.00  0.00     0.102 A 
HETATM   15  C   UNL     1     -44.298 -53.766  13.004  1.00  0.00     0.101 A 
HETATM   16  C   UNL     1     -44.589 -54.692  14.019  1.00  0.00     0.039 A 
HETATM   17  C   UNL     1     -43.585 -55.181  14.855  1.00  0.00     0.003 A 
HETATM   18  C   UNL     1     -42.274 -54.752  14.687  1.00  0.00     0.003 A 
HETATM   19  C   UNL     1     -41.971 -53.823  13.692  1.00  0.00     0.039 A 
BRANCH  15  20
HETATM   20  O   UNL     1     -45.278 -53.250  12.197  1.00  0.00    -0.353 OA
HETATM   21  C   UNL     1     -46.082 -52.195  12.709  1.00  0.00     0.210 C 
ENDBRANCH  15  20
ENDBRANCH  13  14
ENDBRANCH  12  13
ENDBRANCH  11  12
ENDBRANCH   1  11
BRANCH   2  22
HETATM   22  C   UNL     1     -38.352 -49.617  12.421  1.00  0.00     0.147 C 
HETATM   23  C   UNL     1     -37.396 -49.818  11.243  1.00  0.00     0.040 C 
BRANCH  22  24
HETATM   24  N   UNL     1     -37.716 -48.800  13.439  1.00  0.00    -0.357 N 
HETATM   25  H   UNL     1     -36.767 -48.493  13.260  1.00  0.00     0.162 HD
BRANCH  24  26
HETATM   26  C   UNL     1     -38.199 -48.754  14.717  1.00  0.00     0.349 C 
HETATM   27  O   UNL     1     -38.702 -49.693  15.318  1.00  0.00    -0.284 OA
ENDBRANCH  24  26
ENDBRANCH  22  24
ENDBRANCH   2  22
TORSDOF 8
ENDMDL
MODEL 5
REMARK VINA RESULT:      -5.9      3.007      7.386
REMARK  8 active torsions:
REMARK  status: ('A' for Active; 'I' for Inactive)
REMARK    1  A    between atoms: O_2  and  C_3 
REMARK    2  A    between atoms: C_8  and  O_9 
REMARK    3  A    between atoms: O_9  and  C_10 
REMARK    4  A    between atoms: C_10  and  C_11 
REMARK    5  A    between atoms: C_11  and  N_12 
REMARK    6  A    between atoms: C_13  and  C_22 
REMARK    7  A    between atoms: C_22  and  N_24 
REMARK    8  A    between atoms: N_24  and  C_25 
ROOT
HETATM    1  N   UNL     1     -41.578 -53.236  12.902  1.00  0.00    -0.331 N 
HETATM    2  C   UNL     1     -40.816 -53.790  13.926  1.00  0.00     0.107 A 
HETATM    3  N   UNL     1     -41.561 -54.556  14.700  1.00  0.00    -0.342 N 
ATOM      4  HN  UNL     1     -41.246 -55.119  15.491  1.00  0.00     0.167 HD
HETATM    5  C   UNL     1     -42.838 -54.445  14.232  1.00  0.00     0.060 A 
HETATM    6  C   UNL     1     -44.011 -55.021  14.747  1.00  0.00     0.032 A 
HETATM    7  C   UNL     1     -45.228 -54.792  14.100  1.00  0.00     0.002 A 
HETATM    8  C   UNL     1     -45.275 -53.994  12.964  1.00  0.00     0.002 A 
HETATM    9  C   UNL     1     -44.118 -53.391  12.455  1.00  0.00     0.032 A 
HETATM   10  C   UNL     1     -42.893 -53.631  13.101  1.00  0.00     0.062 A 
ENDROOT
BRANCH   1  11
HETATM   11  C   UNL     1     -41.049 -52.362  11.857  1.00  0.00     0.157 C 
BRANCH  11  12
HETATM   12  C   UNL     1     -41.225 -50.867  12.103  1.00  0.00     0.196 C 
BRANCH  12  13
HETATM   13  O   UNL     1     -40.199 -50.096  11.481  1.00  0.00    -0.347 OA
BRANCH  13  14
HETATM   14  C   UNL     1     -40.109 -48.772  11.866  1.00  0.00     0.102 A 
HETATM   15  C   UNL     1     -40.759 -47.647  11.308  1.00  0.00     0.101 A 
HETATM   16  C   UNL     1     -40.484 -46.371  11.828  1.00  0.00     0.039 A 
HETATM   17  C   UNL     1     -39.602 -46.205  12.896  1.00  0.00     0.003 A 
HETATM   18  C   UNL     1     -38.983 -47.313  13.462  1.00  0.00     0.003 A 
HETATM   19  C   UNL     1     -39.236 -48.585  12.949  1.00  0.00     0.039 A 
BRANCH  15  20
HETATM   20  O   UNL     1     -41.596 -47.824  10.238  1.00  0.00    -0.353 OA
HETATM   21  C   UNL     1     -42.997 -47.720  10.458  1.00  0.00     0.210 C 
ENDBRANCH  15  20
ENDBRANCH  13  14
ENDBRANCH  12  13
ENDBRANCH  11  12
ENDBRANCH   1  11
BRANCH   2  22
HETATM   22  C   UNL     1     -39.342 -53.558  14.133  1.00  0.00     0.147 C 
HETATM   23  C   UNL     1     -39.089 -52.676  15.359  1.00  0.00     0.040 C 
BRANCH  22  24
HETATM   24  N   UNL     1     -38.712 -54.853  14.320  1.00  0.00    -0.357 N 
HETATM   25  H   UNL     1     -38.689 -55.477  13.522  1.00  0.00     0.162 HD
BRANCH  24  26
HETATM   26  C   UNL     1     -38.501 -55.366  15.569  1.00  0.00     0.349 C 
HETATM   27  O   UNL     1     -39.189 -56.221  16.110  1.00  0.00    -0.284 OA
ENDBRANCH  24  26
ENDBRANCH  22  24
ENDBRANCH   2  22
TORSDOF 8
ENDMDL
MODEL 6
REMARK VINA RESULT:      -5.9      2.071      2.901
REMARK  8 active torsions:
REMARK  status: ('A' for Active; 'I' for Inactive)
REMARK    1  A    between atoms: O_2  and  C_3 
REMARK    2  A    between atoms: C_8  and  O_9 
REMARK    3  A    between atoms: O_9  and  C_10 
REMARK    4  A    between atoms: C_10  and  C_11 
REMARK    5  A    between atoms: C_11  and  N_12 
REMARK    6  A    between atoms: C_13  and  C_22 
REMARK    7  A    between atoms: C_22  and  N_24 
REMARK    8  A    between atoms: N_24  and  C_25 
ROOT
HETATM    1  N   UNL     1     -40.400 -48.948  11.894  1.00  0.00    -0.331 N 
HETATM    2  C   UNL     1     -41.082 -47.837  11.408  1.00  0.00     0.107 A 
HETATM    3  N   UNL     1     -40.593 -46.725  11.926  1.00  0.00    -0.342 N 
ATOM      4  HN  UNL     1     -40.875 -45.770  11.703  1.00  0.00     0.167 HD
HETATM    5  C   UNL     1     -39.636 -47.109  12.818  1.00  0.00     0.060 A 
HETATM    6  C   UNL     1     -38.860 -46.303  13.669  1.00  0.00     0.032 A 
HETATM    7  C   UNL     1     -37.913 -46.901  14.503  1.00  0.00     0.002 A 
HETATM    8  C   UNL     1     -37.747 -48.280  14.495  1.00  0.00     0.002 A 
HETATM    9  C   UNL     1     -38.531 -49.099  13.672  1.00  0.00     0.032 A 
HETATM   10  C   UNL     1     -39.477 -48.495  12.826  1.00  0.00     0.062 A 
ENDROOT
BRANCH   1  11
HETATM   11  C   UNL     1     -40.676 -50.327  11.499  1.00  0.00     0.157 C 
BRANCH  11  12
HETATM   12  C   UNL     1     -41.789 -51.020  12.277  1.00  0.00     0.196 C 
BRANCH  12  13
HETATM   13  O   UNL     1     -41.925 -52.393  11.913  1.00  0.00    -0.347 OA
BRANCH  13  14
HETATM   14  C   UNL     1     -42.552 -53.211  12.833  1.00  0.00     0.102 A 
HETATM   15  C   UNL     1     -42.021 -53.778  14.014  1.00  0.00     0.101 A 
HETATM   16  C   UNL     1     -42.827 -54.630  14.786  1.00  0.00     0.039 A 
HETATM   17  C   UNL     1     -44.144 -54.903  14.417  1.00  0.00     0.003 A 
HETATM   18  C   UNL     1     -44.676 -54.326  13.270  1.00  0.00     0.003 A 
HETATM   19  C   UNL     1     -43.884 -53.487  12.486  1.00  0.00     0.039 A 
BRANCH  15  20
HETATM   20  O   UNL     1     -40.715 -53.527  14.344  1.00  0.00    -0.353 OA
HETATM   21  C   UNL     1     -39.712 -54.377  13.803  1.00  0.00     0.210 C 
ENDBRANCH  15  20
ENDBRANCH  13  14
ENDBRANCH  12  13
ENDBRANCH  11  12
ENDBRANCH   1  11
BRANCH   2  22
HETATM   22  C   UNL     1     -42.222 -47.881  10.425  1.00  0.00     0.147 C 
HETATM   23  C   UNL     1     -43.571 -47.940  11.146  1.00  0.00     0.040 C 
BRANCH  22  24
HETATM   24  N   UNL     1     -42.151 -46.681   9.610  1.00  0.00    -0.357 N 
HETATM   25  H   UNL     1     -41.384 -46.044   9.789  1.00  0.00     0.162 HD
BRANCH  24  26
HETATM   26  C   UNL     1     -43.238 -46.232   8.912  1.00  0.00     0.349 C 
HETATM   27  O   UNL     1     -43.687 -45.096   8.955  1.00  0.00    -0.284 OA
ENDBRANCH  24  26
ENDBRANCH  22  24
ENDBRANCH   2  22
TORSDOF 8
ENDMDL
MODEL 7
REMARK VINA RESULT:      -5.8      2.191      4.532
REMARK  8 active torsions:
REMARK  status: ('A' for Active; 'I' for Inactive)
REMARK    1  A    between atoms: O_2  and  C_3 
REMARK    2  A    between atoms: C_8  and  O_9 
REMARK    3  A    between atoms: O_9  and  C_10 
REMARK    4  A    between atoms: C_10  and  C_11 
REMARK    5  A    between atoms: C_11  and  N_12 
REMARK    6  A    between atoms: C_13  and  C_22 
REMARK    7  A    between atoms: C_22  and  N_24 
REMARK    8  A    between atoms: N_24  and  C_25 
ROOT
HETATM    1  N   UNL     1     -41.121 -49.711  11.772  1.00  0.00    -0.331 N 
HETATM    2  C   UNL     1     -39.742 -49.532  11.788  1.00  0.00     0.107 A 
HETATM    3  N   UNL     1     -39.428 -48.286  11.483  1.00  0.00    -0.342 N 
ATOM      4  HN  UNL     1     -38.495 -47.875  11.471  1.00  0.00     0.167 HD
HETATM    5  C   UNL     1     -40.603 -47.659  11.186  1.00  0.00     0.060 A 
HETATM    6  C   UNL     1     -40.803 -46.339  10.749  1.00  0.00     0.032 A 
HETATM    7  C   UNL     1     -42.103 -45.884  10.515  1.00  0.00     0.002 A 
HETATM    8  C   UNL     1     -43.184 -46.735  10.705  1.00  0.00     0.002 A 
HETATM    9  C   UNL     1     -42.999 -48.062  11.115  1.00  0.00     0.032 A 
HETATM   10  C   UNL     1     -41.691 -48.514  11.360  1.00  0.00     0.062 A 
ENDROOT
BRANCH   1  11
HETATM   11  C   UNL     1     -41.797 -50.966  12.091  1.00  0.00     0.157 C 
BRANCH  11  12
HETATM   12  C   UNL     1     -42.656 -50.945  13.351  1.00  0.00     0.196 C 
BRANCH  12  13
HETATM   13  O   UNL     1     -44.002 -50.561  13.078  1.00  0.00    -0.347 OA
BRANCH  13  14
HETATM   14  C   UNL     1     -44.972 -51.104  13.897  1.00  0.00     0.102 A 
HETATM   15  C   UNL     1     -46.012 -52.000  13.556  1.00  0.00     0.101 A 
HETATM   16  C   UNL     1     -46.929 -52.392  14.545  1.00  0.00     0.039 A 
HETATM   17  C   UNL     1     -46.812 -51.931  15.857  1.00  0.00     0.003 A 
HETATM   18  C   UNL     1     -45.774 -51.072  16.199  1.00  0.00     0.003 A 
HETATM   19  C   UNL     1     -44.864 -50.663  15.225  1.00  0.00     0.039 A 
BRANCH  15  20
HETATM   20  O   UNL     1     -46.133 -52.416  12.257  1.00  0.00    -0.353 OA
HETATM   21  C   UNL     1     -47.116 -51.790  11.441  1.00  0.00     0.210 C 
ENDBRANCH  15  20
ENDBRANCH  13  14
ENDBRANCH  12  13
ENDBRANCH  11  12
ENDBRANCH   1  11
BRANCH   2  22
HETATM   22  C   UNL     1     -38.732 -50.602  12.110  1.00  0.00     0.147 C 
HETATM   23  C   UNL     1     -37.362 -50.265  11.517  1.00  0.00     0.040 C 
BRANCH  22  24
HETATM   24  N   UNL     1     -38.633 -50.698  13.556  1.00  0.00    -0.357 N 
HETATM   25  H   UNL     1     -38.193 -49.926  14.042  1.00  0.00     0.162 HD
BRANCH  24  26
HETATM   26  C   UNL     1     -38.767 -51.897  14.198  1.00  0.00     0.349 C 
HETATM   27  O   UNL     1     -38.734 -52.996  13.662  1.00  0.00    -0.284 OA
ENDBRANCH  24  26
ENDBRANCH  22  24
ENDBRANCH   2  22
TORSDOF 8
ENDMDL
MODEL 8
REMARK VINA RESULT:      -5.8      1.659      1.890
REMARK  8 active torsions:
REMARK  status: ('A' for Active; 'I' for Inactive)
REMARK    1  A    between atoms: O_2  and  C_3 
REMARK    2  A    between atoms: C_8  and  O_9 
REMARK    3  A    between atoms: O_9  and  C_10 
REMARK    4  A    between atoms: C_10  and  C_11 
REMARK    5  A    between atoms: C_11  and  N_12 
REMARK    6  A    between atoms: C_13  and  C_22 
REMARK    7  A    between atoms: C_22  and  N_24 
REMARK    8  A    between atoms: N_24  and  C_25 
ROOT
HETATM    1  N   UNL     1     -40.128 -49.585  12.338  1.00  0.00    -0.331 N 
HETATM    2  C   UNL     1     -40.589 -48.315  12.008  1.00  0.00     0.107 A 
HETATM    3  N   UNL     1     -39.893 -47.386  12.636  1.00  0.00    -0.342 N 
ATOM      4  HN  UNL     1     -39.989 -46.376  12.536  1.00  0.00     0.167 HD
HETATM    5  C   UNL     1     -39.018 -48.049  13.447  1.00  0.00     0.060 A 
HETATM    6  C   UNL     1     -38.096 -47.513  14.361  1.00  0.00     0.032 A 
HETATM    7  C   UNL     1     -37.272 -48.376  15.089  1.00  0.00     0.002 A 
HETATM    8  C   UNL     1     -37.374 -49.750  14.914  1.00  0.00     0.002 A 
HETATM    9  C   UNL     1     -38.307 -50.300  14.026  1.00  0.00     0.032 A 
HETATM   10  C   UNL     1     -39.128 -49.430  13.287  1.00  0.00     0.062 A 
ENDROOT
BRANCH   1  11
HETATM   11  C   UNL     1     -40.666 -50.829  11.793  1.00  0.00     0.157 C 
BRANCH  11  12
HETATM   12  C   UNL     1     -41.979 -51.300  12.411  1.00  0.00     0.196 C 
BRANCH  12  13
HETATM   13  O   UNL     1     -42.323 -52.622  11.999  1.00  0.00    -0.347 OA
BRANCH  13  14
HETATM   14  C   UNL     1     -42.720 -53.491  12.996  1.00  0.00     0.102 A 
HETATM   15  C   UNL     1     -44.009 -54.018  13.244  1.00  0.00     0.101 A 
HETATM   16  C   UNL     1     -44.204 -54.855  14.354  1.00  0.00     0.039 A 
HETATM   17  C   UNL     1     -43.143 -55.191  15.196  1.00  0.00     0.003 A 
HETATM   18  C   UNL     1     -41.871 -54.695  14.939  1.00  0.00     0.003 A 
HETATM   19  C   UNL     1     -41.664 -53.852  13.847  1.00  0.00     0.039 A 
BRANCH  15  20
HETATM   20  O   UNL     1     -45.046 -53.651  12.428  1.00  0.00    -0.353 OA
HETATM   21  C   UNL     1     -46.029 -52.764  12.949  1.00  0.00     0.210 C 
ENDBRANCH  15  20
ENDBRANCH  13  14
ENDBRANCH  12  13
ENDBRANCH  11  12
ENDBRANCH   1  11
BRANCH   2  22
HETATM   22  C   UNL     1     -41.726 -48.024  11.063  1.00  0.00     0.147 C 
HETATM   23  C   UNL     1     -42.984 -47.603  11.826  1.00  0.00     0.040 C 
BRANCH  22  24
HETATM   24  N   UNL     1     -41.303 -46.951  10.179  1.00  0.00    -0.357 N 
HETATM   25  H   UNL     1     -40.352 -46.983   9.834  1.00  0.00     0.162 HD
BRANCH  24  26
HETATM   26  C   UNL     1     -41.995 -45.774  10.112  1.00  0.00     0.349 C 
HETATM   27  O   UNL     1     -42.826 -45.488   9.261  1.00  0.00    -0.284 OA
ENDBRANCH  24  26
ENDBRANCH  22  24
ENDBRANCH   2  22
TORSDOF 8
ENDMDL
MODEL 9
REMARK VINA RESULT:      -5.7      3.006      5.372
REMARK  8 active torsions:
REMARK  status: ('A' for Active; 'I' for Inactive)
REMARK    1  A    between atoms: O_2  and  C_3 
REMARK    2  A    between atoms: C_8  and  O_9 
REMARK    3  A    between atoms: O_9  and  C_10 
REMARK    4  A    between atoms: C_10  and  C_11 
REMARK    5  A    between atoms: C_11  and  N_12 
REMARK    6  A    between atoms: C_13  and  C_22 
REMARK    7  A    between atoms: C_22  and  N_24 
REMARK    8  A    between atoms: N_24  and  C_25 
ROOT
HETATM    1  N   UNL     1     -40.319 -52.320  12.919  1.00  0.00    -0.331 N 
HETATM    2  C   UNL     1     -39.855 -52.995  14.044  1.00  0.00     0.107 A 
HETATM    3  N   UNL     1     -38.929 -52.289  14.664  1.00  0.00    -0.342 N 
ATOM      4  HN  UNL     1     -38.461 -52.527  15.539  1.00  0.00     0.167 HD
HETATM    5  C   UNL     1     -38.723 -51.176  13.901  1.00  0.00     0.060 A 
HETATM    6  C   UNL     1     -37.797 -50.139  14.101  1.00  0.00     0.032 A 
HETATM    7  C   UNL     1     -37.760 -49.071  13.201  1.00  0.00     0.002 A 
HETATM    8  C   UNL     1     -38.625 -49.044  12.115  1.00  0.00     0.002 A 
HETATM    9  C   UNL     1     -39.535 -50.084  11.888  1.00  0.00     0.032 A 
HETATM   10  C   UNL     1     -39.578 -51.153  12.800  1.00  0.00     0.062 A 
ENDROOT
BRANCH   1  11
HETATM   11  C   UNL     1     -41.366 -52.816  12.029  1.00  0.00     0.157 C 
BRANCH  11  12
HETATM   12  C   UNL     1     -42.782 -52.362  12.367  1.00  0.00     0.196 C 
BRANCH  12  13
HETATM   13  O   UNL     1     -42.859 -51.758  13.657  1.00  0.00    -0.347 OA
BRANCH  13  14
HETATM   14  C   UNL     1     -44.120 -51.656  14.212  1.00  0.00     0.102 A 
HETATM   15  C   UNL     1     -44.489 -51.700  15.576  1.00  0.00     0.101 A 
HETATM   16  C   UNL     1     -45.848 -51.626  15.920  1.00  0.00     0.039 A 
HETATM   17  C   UNL     1     -46.831 -51.487  14.940  1.00  0.00     0.003 A 
HETATM   18  C   UNL     1     -46.468 -51.416  13.600  1.00  0.00     0.003 A 
HETATM   19  C   UNL     1     -45.123 -51.501  13.242  1.00  0.00     0.039 A 
BRANCH  15  20
HETATM   20  O   UNL     1     -43.514 -51.872  16.524  1.00  0.00    -0.353 OA
HETATM   21  C   UNL     1     -42.921 -50.712  17.094  1.00  0.00     0.210 C 
ENDBRANCH  15  20
ENDBRANCH  13  14
ENDBRANCH  12  13
ENDBRANCH  11  12
ENDBRANCH   1  11
BRANCH   2  22
HETATM   22  C   UNL     1     -40.337 -54.346  14.504  1.00  0.00     0.147 C 
HETATM   23  C   UNL     1     -39.276 -55.049  15.355  1.00  0.00     0.040 C 
BRANCH  22  24
HETATM   24  N   UNL     1     -41.543 -54.144  15.288  1.00  0.00    -0.357 N 
HETATM   25  H   UNL     1     -41.464 -53.572  16.120  1.00  0.00     0.162 HD
BRANCH  24  26
HETATM   26  C   UNL     1     -42.627 -54.965  15.147  1.00  0.00     0.349 C 
HETATM   27  O   UNL     1     -42.882 -55.930  15.854  1.00  0.00    -0.284 OA
ENDBRANCH  24  26
ENDBRANCH  22  24
ENDBRANCH   2  22
TORSDOF 8
ENDMDL
