MODEL 1
REMARK VINA RESULT:      -6.3      0.000      0.000
REMARK  2 active torsions:
REMARK  status: ('A' for Active; 'I' for Inactive)
REMARK    1  A    between atoms: C_6  and  C_9 
REMARK    2  A    between atoms: C_12  and  C_16 
ROOT
HETATM    1  C   UNL     2     -40.348 -51.646  12.911  1.00  0.00     0.179 A 
HETATM    2  N   UNL     2     -41.575 -51.727  13.448  1.00  0.00    -0.324 N 
ATOM      3  HN  UNL     2     -41.902 -51.377  14.349  1.00  0.00     0.169 HD
HETATM    4  C   UNL     2     -42.265 -52.386  12.500  1.00  0.00     0.108 A 
HETATM    5  N   UNL     2     -41.488 -52.695  11.444  1.00  0.00    -0.247 N 
ATOM      6  HN  UNL     2     -41.763 -53.195  10.598  1.00  0.00     0.196 HD
HETATM    7  O   UNL     2     -40.313 -52.223  11.731  1.00  0.00    -0.220 OA
ENDROOT
BRANCH   1   8
HETATM    8  C   UNL     2     -39.191 -50.949  13.581  1.00  0.00     0.226 C 
HETATM    9  O   UNL     2     -39.379 -49.541  13.588  1.00  0.00    -0.374 OA
HETATM   10  C   UNL     2     -39.292 -49.011  12.274  1.00  0.00     0.199 C 
HETATM   11  C   UNL     2     -37.920 -49.306  11.650  1.00  0.00     0.295 C 
HETATM   12  N   UNL     2     -37.664 -50.750  11.627  1.00  0.00     0.088 N 
HETATM   13  C   UNL     2     -37.812 -51.305  12.979  1.00  0.00     0.310 C 
HETATM   14  H   UNL     2     -38.330 -51.215  10.969  1.00  0.00     0.316 HD
ENDBRANCH   1   8
BRANCH   4  15
HETATM   15  C   UNL     2     -43.718 -52.738  12.618  1.00  0.00     0.055 C 
HETATM   16  C   UNL     2     -44.458 -51.545  13.265  1.00  0.00     0.012 C 
HETATM   17  C   UNL     2     -45.974 -51.680  13.141  1.00  0.00     0.001 C 
HETATM   18  C   UNL     2     -46.668 -52.532  14.206  1.00  0.00     0.000 C 
HETATM   19  C   UNL     2     -45.975 -53.816  14.676  1.00  0.00     0.000 C 
HETATM   20  C   UNL     2     -45.258 -54.629  13.598  1.00  0.00     0.001 C 
HETATM   21  C   UNL     2     -43.838 -54.095  13.338  1.00  0.00     0.012 C 
ENDBRANCH   4  15
TORSDOF 2
ENDMDL
MODEL 2
REMARK VINA RESULT:      -6.0      1.358      1.738
REMARK  2 active torsions:
REMARK  status: ('A' for Active; 'I' for Inactive)
REMARK    1  A    between atoms: C_6  and  C_9 
REMARK    2  A    between atoms: C_12  and  C_16 
ROOT
HETATM    1  C   UNL     2     -40.911 -51.684  12.071  1.00  0.00     0.179 A 
HETATM    2  N   UNL     2     -42.209 -51.441  12.309  1.00  0.00    -0.324 N 
ATOM      3  HN  UNL     2     -42.688 -50.544  12.380  1.00  0.00     0.169 HD
HETATM    4  C   UNL     2     -42.719 -52.680  12.428  1.00  0.00     0.108 A 
HETATM    5  N   UNL     2     -41.770 -53.625  12.279  1.00  0.00    -0.247 N 
ATOM      6  HN  UNL     2     -41.892 -54.637  12.328  1.00  0.00     0.196 HD
HETATM    7  O   UNL     2     -40.669 -52.974  12.058  1.00  0.00    -0.220 OA
ENDROOT
BRANCH   1   8
HETATM    8  C   UNL     2     -39.894 -50.599  11.822  1.00  0.00     0.226 C 
HETATM    9  O   UNL     2     -38.586 -51.037  12.166  1.00  0.00    -0.374 OA
HETATM   10  C   UNL     2     -38.463 -51.209  13.570  1.00  0.00     0.199 C 
HETATM   11  C   UNL     2     -38.737 -49.894  14.313  1.00  0.00     0.295 C 
HETATM   12  N   UNL     2     -40.072 -49.384  13.985  1.00  0.00     0.088 N 
HETATM   13  C   UNL     2     -40.217 -49.263  12.528  1.00  0.00     0.310 C 
HETATM   14  H   UNL     2     -40.799 -50.031  14.369  1.00  0.00     0.316 HD
ENDBRANCH   1   8
BRANCH   4  15
HETATM   15  C   UNL     2     -44.165 -52.964  12.706  1.00  0.00     0.055 C 
HETATM   16  C   UNL     2     -44.774 -51.738  13.425  1.00  0.00     0.012 C 
HETATM   17  C   UNL     2     -46.298 -51.801  13.468  1.00  0.00     0.001 C 
HETATM   18  C   UNL     2     -46.911 -52.621  14.607  1.00  0.00     0.000 C 
HETATM   19  C   UNL     2     -46.232 -53.936  15.003  1.00  0.00     0.000 C 
HETATM   20  C   UNL     2     -45.675 -54.781  13.857  1.00  0.00     0.001 C 
HETATM   21  C   UNL     2     -44.269 -54.314  13.441  1.00  0.00     0.012 C 
ENDBRANCH   4  15
TORSDOF 2
ENDMDL
MODEL 3
REMARK VINA RESULT:      -6.0      2.552      3.237
REMARK  2 active torsions:
REMARK  status: ('A' for Active; 'I' for Inactive)
REMARK    1  A    between atoms: C_6  and  C_9 
REMARK    2  A    between atoms: C_12  and  C_16 
ROOT
HETATM    1  C   UNL     2     -41.347 -49.564  12.286  1.00  0.00     0.179 A 
HETATM    2  N   UNL     2     -42.085 -50.470  12.945  1.00  0.00    -0.324 N 
ATOM      3  HN  UNL     2     -42.736 -50.324  13.717  1.00  0.00     0.169 HD
HETATM    4  C   UNL     2     -41.750 -51.619  12.332  1.00  0.00     0.108 A 
HETATM    5  N   UNL     2     -40.846 -51.417  11.355  1.00  0.00    -0.247 N 
ATOM      6  HN  UNL     2     -40.426 -52.119  10.745  1.00  0.00     0.196 HD
HETATM    7  O   UNL     2     -40.621 -50.138  11.354  1.00  0.00    -0.220 OA
ENDROOT
BRANCH   1   8
HETATM    8  C   UNL     2     -41.390 -48.085  12.577  1.00  0.00     0.226 C 
HETATM    9  O   UNL     2     -42.724 -47.597  12.538  1.00  0.00    -0.374 OA
HETATM   10  C   UNL     2     -43.238 -47.630  11.215  1.00  0.00     0.199 C 
HETATM   11  C   UNL     2     -42.387 -46.768  10.272  1.00  0.00     0.295 C 
HETATM   12  N   UNL     2     -40.992 -47.218  10.280  1.00  0.00     0.088 N 
HETATM   13  C   UNL     2     -40.481 -47.239  11.657  1.00  0.00     0.310 C 
HETATM   14  H   UNL     2     -40.928 -48.171   9.854  1.00  0.00     0.316 HD
ENDBRANCH   1   8
BRANCH   4  15
HETATM   15  C   UNL     2     -42.312 -52.958  12.706  1.00  0.00     0.055 C 
HETATM   16  C   UNL     2     -43.855 -52.873  12.651  1.00  0.00     0.012 C 
HETATM   17  C   UNL     2     -44.505 -54.253  12.707  1.00  0.00     0.001 C 
HETATM   18  C   UNL     2     -44.709 -54.850  14.102  1.00  0.00     0.000 C 
HETATM   19  C   UNL     2     -43.606 -54.649  15.147  1.00  0.00     0.000 C 
HETATM   20  C   UNL     2     -42.168 -54.735  14.637  1.00  0.00     0.001 C 
HETATM   21  C   UNL     2     -41.694 -53.394  14.048  1.00  0.00     0.012 C 
ENDBRANCH   4  15
TORSDOF 2
ENDMDL
MODEL 4
REMARK VINA RESULT:      -5.9      2.188      6.670
REMARK  2 active torsions:
REMARK  status: ('A' for Active; 'I' for Inactive)
REMARK    1  A    between atoms: C_6  and  C_9 
REMARK    2  A    between atoms: C_12  and  C_16 
ROOT
HETATM    1  C   UNL     2     -43.429 -53.428  12.907  1.00  0.00     0.179 A 
HETATM    2  N   UNL     2     -42.813 -52.655  12.000  1.00  0.00    -0.324 N 
ATOM      3  HN  UNL     2     -43.088 -52.456  11.038  1.00  0.00     0.169 HD
HETATM    4  C   UNL     2     -41.741 -52.207  12.678  1.00  0.00     0.108 A 
HETATM    5  N   UNL     2     -41.708 -52.696  13.934  1.00  0.00    -0.247 N 
ATOM      6  HN  UNL     2     -41.003 -52.517  14.649  1.00  0.00     0.196 HD
HETATM    7  O   UNL     2     -42.765 -53.443  14.040  1.00  0.00    -0.220 OA
ENDROOT
BRANCH   1   8
HETATM    8  C   UNL     2     -44.729 -54.145  12.643  1.00  0.00     0.226 C 
HETATM    9  O   UNL     2     -45.742 -53.234  12.242  1.00  0.00    -0.374 OA
HETATM   10  C   UNL     2     -46.114 -52.383  13.317  1.00  0.00     0.199 C 
HETATM   11  C   UNL     2     -46.647 -53.197  14.505  1.00  0.00     0.295 C 
HETATM   12  N   UNL     2     -45.645 -54.168  14.956  1.00  0.00     0.088 N 
HETATM   13  C   UNL     2     -45.219 -55.008  13.828  1.00  0.00     0.310 C 
HETATM   14  H   UNL     2     -44.824 -53.663  15.362  1.00  0.00     0.316 HD
ENDBRANCH   1   8
BRANCH   4  15
HETATM   15  C   UNL     2     -40.710 -51.288  12.097  1.00  0.00     0.055 C 
HETATM   16  C   UNL     2     -39.443 -51.353  12.983  1.00  0.00     0.012 C 
HETATM   17  C   UNL     2     -38.240 -50.701  12.306  1.00  0.00     0.001 C 
HETATM   18  C   UNL     2     -38.119 -49.183  12.456  1.00  0.00     0.000 C 
HETATM   19  C   UNL     2     -39.397 -48.340  12.379  1.00  0.00     0.000 C 
HETATM   20  C   UNL     2     -40.437 -48.783  11.350  1.00  0.00     0.001 C 
HETATM   21  C   UNL     2     -41.343 -49.897  11.904  1.00  0.00     0.012 C 
ENDBRANCH   4  15
TORSDOF 2
ENDMDL
MODEL 5
REMARK VINA RESULT:      -5.3      2.093      6.535
REMARK  2 active torsions:
REMARK  status: ('A' for Active; 'I' for Inactive)
REMARK    1  A    between atoms: C_6  and  C_9 
REMARK    2  A    between atoms: C_12  and  C_16 
ROOT
HETATM    1  C   UNL     2     -43.362 -53.220  13.216  1.00  0.00     0.179 A 
HETATM    2  N   UNL     2     -42.411 -52.511  13.844  1.00  0.00    -0.324 N 
ATOM      3  HN  UNL     2     -42.257 -52.397  14.846  1.00  0.00     0.169 HD
HETATM    4  C   UNL     2     -41.713 -51.990  12.820  1.00  0.00     0.108 A 
HETATM    5  N   UNL     2     -42.225 -52.359  11.629  1.00  0.00    -0.247 N 
ATOM      6  HN  UNL     2     -41.887 -52.098  10.703  1.00  0.00     0.196 HD
HETATM    7  O   UNL     2     -43.239 -53.118  11.913  1.00  0.00    -0.220 OA
ENDROOT
BRANCH   1   8
HETATM    8  C   UNL     2     -44.400 -54.041  13.937  1.00  0.00     0.226 C 
HETATM    9  O   UNL     2     -45.612 -54.096  13.197  1.00  0.00    -0.374 OA
HETATM   10  C   UNL     2     -46.244 -52.825  13.164  1.00  0.00     0.199 C 
HETATM   11  C   UNL     2     -46.573 -52.337  14.582  1.00  0.00     0.295 C 
HETATM   12  N   UNL     2     -45.358 -52.272  15.401  1.00  0.00     0.088 N 
HETATM   13  C   UNL     2     -44.675 -53.573  15.385  1.00  0.00     0.310 C 
HETATM   14  H   UNL     2     -44.725 -51.526  15.032  1.00  0.00     0.316 HD
ENDBRANCH   1   8
BRANCH   4  15
HETATM   15  C   UNL     2     -40.520 -51.098  12.992  1.00  0.00     0.055 C 
HETATM   16  C   UNL     2     -40.259 -50.369  11.653  1.00  0.00     0.012 C 
HETATM   17  C   UNL     2     -39.271 -49.217  11.814  1.00  0.00     0.001 C 
HETATM   18  C   UNL     2     -37.786 -49.585  11.764  1.00  0.00     0.000 C 
HETATM   19  C   UNL     2     -37.334 -50.880  12.447  1.00  0.00     0.000 C 
HETATM   20  C   UNL     2     -38.014 -51.216  13.775  1.00  0.00     0.001 C 
HETATM   21  C   UNL     2     -39.357 -51.935  13.557  1.00  0.00     0.012 C 
ENDBRANCH   4  15
TORSDOF 2
ENDMDL
MODEL 6
REMARK VINA RESULT:      -5.3      1.766      2.451
REMARK  2 active torsions:
REMARK  status: ('A' for Active; 'I' for Inactive)
REMARK    1  A    between atoms: C_6  and  C_9 
REMARK    2  A    between atoms: C_12  and  C_16 
ROOT
HETATM    1  C   UNL     2     -41.631 -49.436  12.443  1.00  0.00     0.179 A 
HETATM    2  N   UNL     2     -42.564 -50.302  12.018  1.00  0.00    -0.324 N 
ATOM      3  HN  UNL     2     -42.692 -50.698  11.087  1.00  0.00     0.169 HD
HETATM    4  C   UNL     2     -43.289 -50.517  13.131  1.00  0.00     0.108 A 
HETATM    5  N   UNL     2     -42.820 -49.806  14.175  1.00  0.00    -0.247 N 
ATOM      6  HN  UNL     2     -43.190 -49.786  15.125  1.00  0.00     0.196 HD
HETATM    7  O   UNL     2     -41.797 -49.153  13.714  1.00  0.00    -0.220 OA
ENDROOT
BRANCH   1   8
HETATM    8  C   UNL     2     -40.530 -48.902  11.562  1.00  0.00     0.226 C 
HETATM    9  O   UNL     2     -39.656 -49.944  11.149  1.00  0.00    -0.374 OA
HETATM   10  C   UNL     2     -38.908 -50.444  12.248  1.00  0.00     0.199 C 
HETATM   11  C   UNL     2     -38.060 -49.334  12.887  1.00  0.00     0.295 C 
HETATM   12  N   UNL     2     -38.910 -48.221  13.322  1.00  0.00     0.088 N 
HETATM   13  C   UNL     2     -39.726 -47.745  12.197  1.00  0.00     0.310 C 
HETATM   14  H   UNL     2     -39.524 -48.535  14.109  1.00  0.00     0.316 HD
ENDBRANCH   1   8
BRANCH   4  15
HETATM   15  C   UNL     2     -44.478 -51.428  13.189  1.00  0.00     0.055 C 
HETATM   16  C   UNL     2     -45.301 -51.077  14.450  1.00  0.00     0.012 C 
HETATM   17  C   UNL     2     -46.681 -51.729  14.431  1.00  0.00     0.001 C 
HETATM   18  C   UNL     2     -46.756 -53.173  14.932  1.00  0.00     0.000 C 
HETATM   19  C   UNL     2     -45.620 -54.132  14.559  1.00  0.00     0.000 C 
HETATM   20  C   UNL     2     -45.055 -53.992  13.145  1.00  0.00     0.001 C 
HETATM   21  C   UNL     2     -43.989 -52.884  13.069  1.00  0.00     0.012 C 
ENDBRANCH   4  15
TORSDOF 2
ENDMDL
MODEL 7
REMARK VINA RESULT:      -5.1      3.790      4.986
REMARK  2 active torsions:
REMARK  status: ('A' for Active; 'I' for Inactive)
REMARK    1  A    between atoms: C_6  and  C_9 
REMARK    2  A    between atoms: C_12  and  C_16 
ROOT
HETATM    1  C   UNL     2     -42.146 -48.120  11.304  1.00  0.00     0.179 A 
HETATM    2  N   UNL     2     -42.405 -48.881  12.378  1.00  0.00    -0.324 N 
ATOM      3  HN  UNL     2     -43.007 -48.676  13.176  1.00  0.00     0.169 HD
HETATM    4  C   UNL     2     -41.671 -49.982  12.139  1.00  0.00     0.108 A 
HETATM    5  N   UNL     2     -40.994 -49.886  10.977  1.00  0.00    -0.247 N 
ATOM      6  HN  UNL     2     -40.365 -50.578  10.569  1.00  0.00     0.196 HD
HETATM    7  O   UNL     2     -41.312 -48.725  10.490  1.00  0.00    -0.220 OA
ENDROOT
BRANCH   1   8
HETATM    8  C   UNL     2     -42.770 -46.768  11.072  1.00  0.00     0.226 C 
HETATM    9  O   UNL     2     -44.188 -46.861  11.033  1.00  0.00    -0.374 OA
HETATM   10  C   UNL     2     -44.618 -47.561   9.875  1.00  0.00     0.199 C 
HETATM   11  C   UNL     2     -44.151 -46.852   8.596  1.00  0.00     0.295 C 
HETATM   12  N   UNL     2     -42.691 -46.714   8.587  1.00  0.00     0.088 N 
HETATM   13  C   UNL     2     -42.244 -46.042   9.813  1.00  0.00     0.310 C 
HETATM   14  H   UNL     2     -42.250 -47.660   8.510  1.00  0.00     0.316 HD
ENDBRANCH   1   8
BRANCH   4  15
HETATM   15  C   UNL     2     -41.611 -51.163  13.061  1.00  0.00     0.055 C 
HETATM   16  C   UNL     2     -40.625 -52.196  12.469  1.00  0.00     0.012 C 
HETATM   17  C   UNL     2     -40.260 -53.280  13.479  1.00  0.00     0.001 C 
HETATM   18  C   UNL     2     -41.234 -54.456  13.593  1.00  0.00     0.000 C 
HETATM   19  C   UNL     2     -42.736 -54.165  13.523  1.00  0.00     0.000 C 
HETATM   20  C   UNL     2     -43.211 -52.892  14.225  1.00  0.00     0.001 C 
HETATM   21  C   UNL     2     -43.047 -51.655  13.325  1.00  0.00     0.012 C 
ENDBRANCH   4  15
TORSDOF 2
ENDMDL
MODEL 8
REMARK VINA RESULT:      -5.1      2.667      3.725
REMARK  2 active torsions:
REMARK  status: ('A' for Active; 'I' for Inactive)
REMARK    1  A    between atoms: C_6  and  C_9 
REMARK    2  A    between atoms: C_12  and  C_16 
ROOT
HETATM    1  C   UNL     2     -42.848 -53.178  14.033  1.00  0.00     0.179 A 
HETATM    2  N   UNL     2     -43.507 -52.824  15.147  1.00  0.00    -0.324 N 
ATOM      3  HN  UNL     2     -43.135 -52.421  16.008  1.00  0.00     0.169 HD
HETATM    4  C   UNL     2     -44.780 -53.134  14.844  1.00  0.00     0.108 A 
HETATM    5  N   UNL     2     -44.882 -53.659  13.607  1.00  0.00    -0.247 N 
ATOM      6  HN  UNL     2     -45.730 -53.980  13.139  1.00  0.00     0.196 HD
HETATM    7  O   UNL     2     -43.672 -53.669  13.136  1.00  0.00    -0.220 OA
ENDROOT
BRANCH   1   8
HETATM    8  C   UNL     2     -41.363 -52.992  13.850  1.00  0.00     0.226 C 
HETATM    9  O   UNL     2     -40.976 -51.657  14.145  1.00  0.00    -0.374 OA
HETATM   10  C   UNL     2     -41.484 -50.755  13.174  1.00  0.00     0.199 C 
HETATM   11  C   UNL     2     -40.964 -51.104  11.772  1.00  0.00     0.295 C 
HETATM   12  N   UNL     2     -41.324 -52.480  11.416  1.00  0.00     0.088 N 
HETATM   13  C   UNL     2     -40.847 -53.406  12.453  1.00  0.00     0.310 C 
HETATM   14  H   UNL     2     -42.362 -52.556  11.312  1.00  0.00     0.316 HD
ENDBRANCH   1   8
BRANCH   4  15
HETATM   15  C   UNL     2     -45.934 -52.928  15.777  1.00  0.00     0.055 C 
HETATM   16  C   UNL     2     -46.520 -51.519  15.527  1.00  0.00     0.012 C 
HETATM   17  C   UNL     2     -47.878 -51.338  16.200  1.00  0.00     0.001 C 
HETATM   18  C   UNL     2     -47.854 -50.933  17.676  1.00  0.00     0.000 C 
HETATM   19  C   UNL     2     -46.798 -51.567  18.587  1.00  0.00     0.000 C 
HETATM   20  C   UNL     2     -46.495 -53.046  18.342  1.00  0.00     0.001 C 
HETATM   21  C   UNL     2     -45.466 -53.233  17.213  1.00  0.00     0.012 C 
ENDBRANCH   4  15
TORSDOF 2
ENDMDL
MODEL 9
REMARK VINA RESULT:      -5.1      2.203      2.858
REMARK  2 active torsions:
REMARK  status: ('A' for Active; 'I' for Inactive)
REMARK    1  A    between atoms: C_6  and  C_9 
REMARK    2  A    between atoms: C_12  and  C_16 
ROOT
HETATM    1  C   UNL     2     -41.540 -50.842  12.453  1.00  0.00     0.179 A 
HETATM    2  N   UNL     2     -42.296 -51.293  13.466  1.00  0.00    -0.324 N 
ATOM      3  HN  UNL     2     -42.579 -50.806  14.317  1.00  0.00     0.169 HD
HETATM    4  C   UNL     2     -42.588 -52.546  13.076  1.00  0.00     0.108 A 
HETATM    5  N   UNL     2     -42.025 -52.841  11.888  1.00  0.00    -0.247 N 
ATOM      6  HN  UNL     2     -42.087 -53.721  11.375  1.00  0.00     0.196 HD
HETATM    7  O   UNL     2     -41.388 -51.767  11.533  1.00  0.00    -0.220 OA
ENDROOT
BRANCH   1   8
HETATM    8  C   UNL     2     -40.979 -49.444  12.391  1.00  0.00     0.226 C 
HETATM    9  O   UNL     2     -41.730 -48.557  13.210  1.00  0.00    -0.374 OA
HETATM   10  C   UNL     2     -43.030 -48.353  12.678  1.00  0.00     0.199 C 
HETATM   11  C   UNL     2     -42.960 -47.755  11.266  1.00  0.00     0.295 C 
HETATM   12  N   UNL     2     -42.183 -48.623  10.375  1.00  0.00     0.088 N 
HETATM   13  C   UNL     2     -40.859 -48.880  10.957  1.00  0.00     0.310 C 
HETATM   14  H   UNL     2     -42.696 -49.523  10.228  1.00  0.00     0.316 HD
ENDBRANCH   1   8
BRANCH   4  15
HETATM   15  C   UNL     2     -43.427 -53.496  13.878  1.00  0.00     0.055 C 
HETATM   16  C   UNL     2     -44.674 -53.869  13.043  1.00  0.00     0.012 C 
HETATM   17  C   UNL     2     -45.422 -55.060  13.637  1.00  0.00     0.001 C 
HETATM   18  C   UNL     2     -46.416 -54.746  14.758  1.00  0.00     0.000 C 
HETATM   19  C   UNL     2     -46.031 -53.685  15.795  1.00  0.00     0.000 C 
HETATM   20  C   UNL     2     -44.568 -53.674  16.239  1.00  0.00     0.001 C 
HETATM   21  C   UNL     2     -43.687 -52.873  15.263  1.00  0.00     0.012 C 
ENDBRANCH   4  15
TORSDOF 2
ENDMDL
