MODEL 1
REMARK VINA RESULT:      -5.1      0.000      0.000
REMARK  4 active torsions:
REMARK  status: ('A' for Active; 'I' for Inactive)
REMARK       I    between atoms: N_2  and  C_3 
REMARK    1  A    between atoms: C_3  and  C_5 
REMARK    2  A    between atoms: C_5  and  N_6 
REMARK       I    between atoms: N_6  and  C_7 
REMARK    3  A    between atoms: C_7  and  C_9 
REMARK    4  A    between atoms: C_9  and  N_11 
ROOT
HETATM    1  N   UNL     1     -43.472 -45.266  10.353  1.00  0.00    -0.351 N 
HETATM    2  C   UNL     1     -42.331 -45.316  11.108  1.00  0.00     0.240 C 
HETATM    3  O   UNL     1     -42.354 -44.908  12.270  1.00  0.00    -0.271 OA
HETATM    4  H   UNL     1     -44.299 -44.887  10.810  1.00  0.00     0.163 HD
ENDROOT
BRANCH   2   5
HETATM    5  C   UNL     1     -41.076 -45.923  10.472  1.00  0.00     0.178 C 
HETATM    6  C   UNL     1     -39.839 -45.073  10.741  1.00  0.00     0.043 C 
BRANCH   5   7
HETATM    7  N   UNL     1     -40.876 -47.309  10.886  1.00  0.00    -0.338 N 
HETATM    8  C   UNL     1     -39.856 -47.758  11.685  1.00  0.00     0.109 A 
HETATM    9  C   UNL     1     -40.038 -49.118  11.766  1.00  0.00     0.106 A 
HETATM   10  N   UNL     1     -41.129 -49.505  11.035  1.00  0.00    -0.361 N 
HETATM   11  C   UNL     1     -41.621 -48.396  10.526  1.00  0.00     0.183 A 
ATOM     12  HN  UNL     1     -41.484 -50.453  10.911  1.00  0.00     0.166 HD
ENDBRANCH   5   7
ENDBRANCH   2   5
BRANCH   1  13
HETATM   13  C   UNL     1     -43.595 -45.660   8.965  1.00  0.00     0.225 C 
BRANCH  13  14
HETATM   14  C   UNL     1     -44.577 -46.806   8.745  1.00  0.00     0.234 C 
HETATM   15  N   UNL     1     -45.833 -46.528   9.246  1.00  0.00    -0.364 N 
HETATM   16  C   UNL     1     -46.910 -47.473   9.126  1.00  0.00     0.149 C 
HETATM   17  H   UNL     1     -46.031 -45.617   9.638  1.00  0.00     0.161 HD
HETATM   18  O   UNL     1     -44.268 -47.859   8.198  1.00  0.00    -0.272 OA
ENDBRANCH  13  14
ENDBRANCH   1  13
TORSDOF 4
ENDMDL
MODEL 2
REMARK VINA RESULT:      -4.8      2.193      5.300
REMARK  4 active torsions:
REMARK  status: ('A' for Active; 'I' for Inactive)
REMARK       I    between atoms: N_2  and  C_3 
REMARK    1  A    between atoms: C_3  and  C_5 
REMARK    2  A    between atoms: C_5  and  N_6 
REMARK       I    between atoms: N_6  and  C_7 
REMARK    3  A    between atoms: C_7  and  C_9 
REMARK    4  A    between atoms: C_9  and  N_11 
ROOT
HETATM    1  N   UNL     1     -39.883 -46.749  10.848  1.00  0.00    -0.351 N 
HETATM    2  C   UNL     1     -40.669 -45.677  10.521  1.00  0.00     0.240 C 
HETATM    3  O   UNL     1     -40.250 -44.838   9.722  1.00  0.00    -0.271 OA
HETATM    4  H   UNL     1     -38.973 -46.795  10.395  1.00  0.00     0.163 HD
ENDROOT
BRANCH   2   5
HETATM    5  C   UNL     1     -42.067 -45.595  11.144  1.00  0.00     0.178 C 
HETATM    6  C   UNL     1     -42.494 -44.152  11.388  1.00  0.00     0.043 C 
BRANCH   5   7
HETATM    7  N   UNL     1     -43.056 -46.321  10.353  1.00  0.00    -0.338 N 
HETATM    8  C   UNL     1     -43.539 -45.927   9.132  1.00  0.00     0.109 A 
HETATM    9  C   UNL     1     -44.471 -46.878   8.791  1.00  0.00     0.106 A 
HETATM   10  N   UNL     1     -44.572 -47.828   9.772  1.00  0.00    -0.361 N 
HETATM   11  C   UNL     1     -43.702 -47.476  10.694  1.00  0.00     0.183 A 
ATOM     12  HN  UNL     1     -45.193 -48.638   9.784  1.00  0.00     0.166 HD
ENDBRANCH   5   7
ENDBRANCH   2   5
BRANCH   1  13
HETATM   13  C   UNL     1     -40.211 -47.789  11.800  1.00  0.00     0.225 C 
BRANCH  13  14
HETATM   14  C   UNL     1     -39.026 -48.678  12.160  1.00  0.00     0.234 C 
HETATM   15  N   UNL     1     -38.445 -49.257  11.049  1.00  0.00    -0.364 N 
HETATM   16  C   UNL     1     -37.301 -50.120  11.169  1.00  0.00     0.149 C 
HETATM   17  H   UNL     1     -38.775 -49.018  10.123  1.00  0.00     0.161 HD
HETATM   18  O   UNL     1     -38.650 -48.864  13.312  1.00  0.00    -0.272 OA
ENDBRANCH  13  14
ENDBRANCH   1  13
TORSDOF 4
ENDMDL
MODEL 3
REMARK VINA RESULT:      -4.8      2.114      3.206
REMARK  4 active torsions:
REMARK  status: ('A' for Active; 'I' for Inactive)
REMARK       I    between atoms: N_2  and  C_3 
REMARK    1  A    between atoms: C_3  and  C_5 
REMARK    2  A    between atoms: C_5  and  N_6 
REMARK       I    between atoms: N_6  and  C_7 
REMARK    3  A    between atoms: C_7  and  C_9 
REMARK    4  A    between atoms: C_9  and  N_11 
ROOT
HETATM    1  N   UNL     1     -42.581 -47.862   9.020  1.00  0.00    -0.351 N 
HETATM    2  C   UNL     1     -42.152 -47.889  10.319  1.00  0.00     0.240 C 
HETATM    3  O   UNL     1     -41.485 -48.844  10.718  1.00  0.00    -0.271 OA
HETATM    4  H   UNL     1     -42.313 -48.654   8.440  1.00  0.00     0.163 HD
ENDROOT
BRANCH   2   5
HETATM    5  C   UNL     1     -42.494 -46.692  11.213  1.00  0.00     0.178 C 
HETATM    6  C   UNL     1     -42.707 -47.112  12.664  1.00  0.00     0.043 C 
BRANCH   5   7
HETATM    7  N   UNL     1     -41.498 -45.630  11.101  1.00  0.00    -0.338 N 
HETATM    8  C   UNL     1     -41.718 -44.305  11.378  1.00  0.00     0.109 A 
HETATM    9  C   UNL     1     -40.529 -43.678  11.090  1.00  0.00     0.106 A 
HETATM   10  N   UNL     1     -39.603 -44.580  10.640  1.00  0.00    -0.361 N 
HETATM   11  C   UNL     1     -40.208 -45.748  10.668  1.00  0.00     0.183 A 
ATOM     12  HN  UNL     1     -38.646 -44.387  10.344  1.00  0.00     0.166 HD
ENDBRANCH   5   7
ENDBRANCH   2   5
BRANCH   1  13
HETATM   13  C   UNL     1     -43.408 -46.839   8.415  1.00  0.00     0.225 C 
BRANCH  13  14
HETATM   14  C   UNL     1     -44.903 -47.104   8.557  1.00  0.00     0.234 C 
HETATM   15  N   UNL     1     -45.262 -48.357   8.100  1.00  0.00    -0.364 N 
HETATM   16  C   UNL     1     -46.625 -48.810   8.160  1.00  0.00     0.149 C 
HETATM   17  H   UNL     1     -44.550 -49.003   7.785  1.00  0.00     0.161 HD
HETATM   18  O   UNL     1     -45.691 -46.282   9.013  1.00  0.00    -0.272 OA
ENDBRANCH  13  14
ENDBRANCH   1  13
TORSDOF 4
ENDMDL
MODEL 4
REMARK VINA RESULT:      -4.8      5.442      6.920
REMARK  4 active torsions:
REMARK  status: ('A' for Active; 'I' for Inactive)
REMARK       I    between atoms: N_2  and  C_3 
REMARK    1  A    between atoms: C_3  and  C_5 
REMARK    2  A    between atoms: C_5  and  N_6 
REMARK       I    between atoms: N_6  and  C_7 
REMARK    3  A    between atoms: C_7  and  C_9 
REMARK    4  A    between atoms: C_9  and  N_11 
ROOT
HETATM    1  N   UNL     1     -41.956 -53.560  12.566  1.00  0.00    -0.351 N 
HETATM    2  C   UNL     1     -40.748 -53.243  13.126  1.00  0.00     0.240 C 
HETATM    3  O   UNL     1     -39.874 -54.106  13.210  1.00  0.00    -0.271 OA
HETATM    4  H   UNL     1     -42.064 -54.517  12.238  1.00  0.00     0.163 HD
ENDROOT
BRANCH   2   5
HETATM    5  C   UNL     1     -40.528 -51.799  13.589  1.00  0.00     0.178 C 
HETATM    6  C   UNL     1     -39.853 -51.740  14.955  1.00  0.00     0.043 C 
BRANCH   5   7
HETATM    7  N   UNL     1     -39.800 -51.017  12.595  1.00  0.00    -0.338 N 
HETATM    8  C   UNL     1     -38.449 -50.780  12.607  1.00  0.00     0.109 A 
HETATM    9  C   UNL     1     -38.218 -49.969  11.522  1.00  0.00     0.106 A 
HETATM   10  N   UNL     1     -39.386 -49.701  10.861  1.00  0.00    -0.361 N 
HETATM   11  C   UNL     1     -40.320 -50.353  11.520  1.00  0.00     0.183 A 
ATOM     12  HN  UNL     1     -39.507 -49.118  10.033  1.00  0.00     0.166 HD
ENDBRANCH   5   7
ENDBRANCH   2   5
BRANCH   1  13
HETATM   13  C   UNL     1     -43.096 -52.676  12.438  1.00  0.00     0.225 C 
BRANCH  13  14
HETATM   14  C   UNL     1     -44.434 -53.377  12.644  1.00  0.00     0.234 C 
HETATM   15  N   UNL     1     -44.338 -54.454  13.503  1.00  0.00    -0.364 N 
HETATM   16  C   UNL     1     -45.492 -55.242  13.844  1.00  0.00     0.149 C 
HETATM   17  H   UNL     1     -43.461 -54.656  13.965  1.00  0.00     0.161 HD
HETATM   18  O   UNL     1     -45.470 -53.025  12.090  1.00  0.00    -0.272 OA
ENDBRANCH  13  14
ENDBRANCH   1  13
TORSDOF 4
ENDMDL
MODEL 5
REMARK VINA RESULT:      -4.8      2.359      4.241
REMARK  4 active torsions:
REMARK  status: ('A' for Active; 'I' for Inactive)
REMARK       I    between atoms: N_2  and  C_3 
REMARK    1  A    between atoms: C_3  and  C_5 
REMARK    2  A    between atoms: C_5  and  N_6 
REMARK       I    between atoms: N_6  and  C_7 
REMARK    3  A    between atoms: C_7  and  C_9 
REMARK    4  A    between atoms: C_9  and  N_11 
ROOT
HETATM    1  N   UNL     1     -40.425 -46.624  10.235  1.00  0.00    -0.351 N 
HETATM    2  C   UNL     1     -39.928 -45.384  10.533  1.00  0.00     0.240 C 
HETATM    3  O   UNL     1     -39.100 -44.866   9.783  1.00  0.00    -0.271 OA
HETATM    4  H   UNL     1     -40.074 -47.058   9.385  1.00  0.00     0.163 HD
ENDROOT
BRANCH   2   5
HETATM    5  C   UNL     1     -40.466 -44.676  11.782  1.00  0.00     0.178 C 
HETATM    6  C   UNL     1     -39.342 -44.079  12.622  1.00  0.00     0.043 C 
BRANCH   5   7
HETATM    7  N   UNL     1     -41.474 -43.675  11.444  1.00  0.00    -0.338 N 
HETATM    8  C   UNL     1     -41.283 -42.317  11.470  1.00  0.00     0.109 A 
HETATM    9  C   UNL     1     -42.501 -41.778  11.130  1.00  0.00     0.106 A 
HETATM   10  N   UNL     1     -43.422 -42.766  10.909  1.00  0.00    -0.361 N 
HETATM   11  C   UNL     1     -42.776 -43.897  11.093  1.00  0.00     0.183 A 
ATOM     12  HN  UNL     1     -44.404 -42.649  10.656  1.00  0.00     0.166 HD
ENDBRANCH   5   7
ENDBRANCH   2   5
BRANCH   1  13
HETATM   13  C   UNL     1     -41.364 -47.383  11.036  1.00  0.00     0.225 C 
BRANCH  13  14
HETATM   14  C   UNL     1     -42.721 -47.567  10.368  1.00  0.00     0.234 C 
HETATM   15  N   UNL     1     -42.641 -47.519   8.990  1.00  0.00    -0.364 N 
HETATM   16  C   UNL     1     -43.810 -47.687   8.168  1.00  0.00     0.149 C 
HETATM   17  H   UNL     1     -41.740 -47.440   8.538  1.00  0.00     0.161 HD
HETATM   18  O   UNL     1     -43.764 -47.724  10.995  1.00  0.00    -0.272 OA
ENDBRANCH  13  14
ENDBRANCH   1  13
TORSDOF 4
ENDMDL
MODEL 6
REMARK VINA RESULT:      -4.6      6.614      8.715
REMARK  4 active torsions:
REMARK  status: ('A' for Active; 'I' for Inactive)
REMARK       I    between atoms: N_2  and  C_3 
REMARK    1  A    between atoms: C_3  and  C_5 
REMARK    2  A    between atoms: C_5  and  N_6 
REMARK       I    between atoms: N_6  and  C_7 
REMARK    3  A    between atoms: C_7  and  C_9 
REMARK    4  A    between atoms: C_9  and  N_11 
ROOT
HETATM    1  N   UNL     1     -43.066 -53.351  12.161  1.00  0.00    -0.351 N 
HETATM    2  C   UNL     1     -44.292 -53.474  12.758  1.00  0.00     0.240 C 
HETATM    3  O   UNL     1     -44.992 -54.455  12.508  1.00  0.00    -0.271 OA
HETATM    4  H   UNL     1     -42.795 -54.101  11.529  1.00  0.00     0.163 HD
ENDROOT
BRANCH   2   5
HETATM    5  C   UNL     1     -44.718 -52.388  13.752  1.00  0.00     0.178 C 
HETATM    6  C   UNL     1     -45.952 -51.634  13.271  1.00  0.00     0.043 C 
BRANCH   5   7
HETATM    7  N   UNL     1     -44.908 -52.929  15.095  1.00  0.00    -0.338 N 
HETATM    8  C   UNL     1     -43.903 -53.323  15.941  1.00  0.00     0.109 A 
HETATM    9  C   UNL     1     -44.544 -53.803  17.058  1.00  0.00     0.106 A 
HETATM   10  N   UNL     1     -45.902 -53.719  16.910  1.00  0.00    -0.361 N 
HETATM   11  C   UNL     1     -46.094 -53.178  15.726  1.00  0.00     0.183 A 
ATOM     12  HN  UNL     1     -46.615 -54.014  17.578  1.00  0.00     0.166 HD
ENDBRANCH   5   7
ENDBRANCH   2   5
BRANCH   1  13
HETATM   13  C   UNL     1     -42.149 -52.240  12.314  1.00  0.00     0.225 C 
BRANCH  13  14
HETATM   14  C   UNL     1     -40.741 -52.666  12.714  1.00  0.00     0.234 C 
HETATM   15  N   UNL     1     -40.731 -53.845  13.433  1.00  0.00    -0.364 N 
HETATM   16  C   UNL     1     -39.499 -54.428  13.892  1.00  0.00     0.149 C 
HETATM   17  H   UNL     1     -41.592 -54.355  13.580  1.00  0.00     0.161 HD
HETATM   18  O   UNL     1     -39.738 -52.016  12.436  1.00  0.00    -0.272 OA
ENDBRANCH  13  14
ENDBRANCH   1  13
TORSDOF 4
ENDMDL
MODEL 7
REMARK VINA RESULT:      -4.6      2.877      4.926
REMARK  4 active torsions:
REMARK  status: ('A' for Active; 'I' for Inactive)
REMARK       I    between atoms: N_2  and  C_3 
REMARK    1  A    between atoms: C_3  and  C_5 
REMARK    2  A    between atoms: C_5  and  N_6 
REMARK       I    between atoms: N_6  and  C_7 
REMARK    3  A    between atoms: C_7  and  C_9 
REMARK    4  A    between atoms: C_9  and  N_11 
ROOT
HETATM    1  N   UNL     1     -41.223 -49.243  10.472  1.00  0.00    -0.351 N 
HETATM    2  C   UNL     1     -41.557 -47.916  10.455  1.00  0.00     0.240 C 
HETATM    3  O   UNL     1     -42.436 -47.521   9.689  1.00  0.00    -0.271 OA
HETATM    4  H   UNL     1     -41.738 -49.845   9.833  1.00  0.00     0.163 HD
ENDROOT
BRANCH   2   5
HETATM    5  C   UNL     1     -40.838 -46.982  11.436  1.00  0.00     0.178 C 
HETATM    6  C   UNL     1     -39.983 -45.949  10.710  1.00  0.00     0.043 C 
BRANCH   5   7
HETATM    7  N   UNL     1     -41.770 -46.351  12.365  1.00  0.00    -0.338 N 
HETATM    8  C   UNL     1     -42.464 -46.999  13.355  1.00  0.00     0.109 A 
HETATM    9  C   UNL     1     -43.245 -46.029  13.938  1.00  0.00     0.106 A 
HETATM   10  N   UNL     1     -43.051 -44.820  13.327  1.00  0.00    -0.361 N 
HETATM   11  C   UNL     1     -42.150 -45.038  12.392  1.00  0.00     0.183 A 
ATOM     12  HN  UNL     1     -43.508 -43.935  13.549  1.00  0.00     0.166 HD
ENDBRANCH   5   7
ENDBRANCH   2   5
BRANCH   1  13
HETATM   13  C   UNL     1     -40.185 -49.852  11.277  1.00  0.00     0.225 C 
BRANCH  13  14
HETATM   14  C   UNL     1     -40.609 -51.169  11.918  1.00  0.00     0.234 C 
HETATM   15  N   UNL     1     -41.977 -51.354  11.887  1.00  0.00    -0.364 N 
HETATM   16  C   UNL     1     -42.581 -52.542  12.428  1.00  0.00     0.149 C 
HETATM   17  H   UNL     1     -42.567 -50.684  11.412  1.00  0.00     0.161 HD
HETATM   18  O   UNL     1     -39.815 -51.959  12.418  1.00  0.00    -0.272 OA
ENDBRANCH  13  14
ENDBRANCH   1  13
TORSDOF 4
ENDMDL
MODEL 8
REMARK VINA RESULT:      -4.4      3.785      5.571
REMARK  4 active torsions:
REMARK  status: ('A' for Active; 'I' for Inactive)
REMARK       I    between atoms: N_2  and  C_3 
REMARK    1  A    between atoms: C_3  and  C_5 
REMARK    2  A    between atoms: C_5  and  N_6 
REMARK       I    between atoms: N_6  and  C_7 
REMARK    3  A    between atoms: C_7  and  C_9 
REMARK    4  A    between atoms: C_9  and  N_11 
ROOT
HETATM    1  N   UNL     1     -39.352 -49.816  10.966  1.00  0.00    -0.351 N 
HETATM    2  C   UNL     1     -38.378 -50.211  11.844  1.00  0.00     0.240 C 
HETATM    3  O   UNL     1     -37.235 -50.410  11.432  1.00  0.00    -0.271 OA
HETATM    4  H   UNL     1     -39.066 -49.702   9.997  1.00  0.00     0.163 HD
ENDROOT
BRANCH   2   5
HETATM    5  C   UNL     1     -38.757 -50.349  13.322  1.00  0.00     0.178 C 
HETATM    6  C   UNL     1     -38.713 -51.801  13.785  1.00  0.00     0.043 C 
BRANCH   5   7
HETATM    7  N   UNL     1     -37.940 -49.489  14.173  1.00  0.00    -0.338 N 
HETATM    8  C   UNL     1     -37.832 -48.127  14.053  1.00  0.00     0.109 A 
HETATM    9  C   UNL     1     -36.930 -47.753  15.020  1.00  0.00     0.106 A 
HETATM   10  N   UNL     1     -36.484 -48.845  15.714  1.00  0.00    -0.361 N 
HETATM   11  C   UNL     1     -37.116 -49.875  15.193  1.00  0.00     0.183 A 
ATOM     12  HN  UNL     1     -35.804 -48.858  16.475  1.00  0.00     0.166 HD
ENDBRANCH   5   7
ENDBRANCH   2   5
BRANCH   1  13
HETATM   13  C   UNL     1     -40.746 -49.589  11.284  1.00  0.00     0.225 C 
BRANCH  13  14
HETATM   14  C   UNL     1     -41.277 -48.256  10.768  1.00  0.00     0.234 C 
HETATM   15  N   UNL     1     -42.447 -48.396  10.049  1.00  0.00    -0.364 N 
HETATM   16  C   UNL     1     -43.119 -47.256   9.488  1.00  0.00     0.149 C 
HETATM   17  H   UNL     1     -42.887 -49.304   9.972  1.00  0.00     0.161 HD
HETATM   18  O   UNL     1     -40.709 -47.186  10.963  1.00  0.00    -0.272 OA
ENDBRANCH  13  14
ENDBRANCH   1  13
TORSDOF 4
ENDMDL
MODEL 9
REMARK VINA RESULT:      -4.4      5.714      7.842
REMARK  4 active torsions:
REMARK  status: ('A' for Active; 'I' for Inactive)
REMARK       I    between atoms: N_2  and  C_3 
REMARK    1  A    between atoms: C_3  and  C_5 
REMARK    2  A    between atoms: C_5  and  N_6 
REMARK       I    between atoms: N_6  and  C_7 
REMARK    3  A    between atoms: C_7  and  C_9 
REMARK    4  A    between atoms: C_9  and  N_11 
ROOT
HETATM    1  N   UNL     1     -41.502 -50.851  13.583  1.00  0.00    -0.351 N 
HETATM    2  C   UNL     1     -42.168 -51.917  14.127  1.00  0.00     0.240 C 
HETATM    3  O   UNL     1     -42.539 -51.865  15.300  1.00  0.00    -0.271 OA
HETATM    4  H   UNL     1     -41.351 -50.053  14.196  1.00  0.00     0.163 HD
ENDROOT
BRANCH   2   5
HETATM    5  C   UNL     1     -42.457 -53.120  13.223  1.00  0.00     0.178 C 
HETATM    6  C   UNL     1     -41.425 -54.228  13.410  1.00  0.00     0.043 C 
BRANCH   5   7
HETATM    7  N   UNL     1     -43.817 -53.617  13.402  1.00  0.00    -0.338 N 
HETATM    8  C   UNL     1     -44.163 -54.748  14.097  1.00  0.00     0.109 A 
HETATM    9  C   UNL     1     -45.527 -54.849  13.961  1.00  0.00     0.106 A 
HETATM   10  N   UNL     1     -46.014 -53.821  13.199  1.00  0.00    -0.361 N 
HETATM   11  C   UNL     1     -44.967 -53.088  12.886  1.00  0.00     0.183 A 
ATOM     12  HN  UNL     1     -46.985 -53.658  12.930  1.00  0.00     0.166 HD
ENDBRANCH   5   7
ENDBRANCH   2   5
BRANCH   1  13
HETATM   13  C   UNL     1     -40.963 -50.777  12.241  1.00  0.00     0.225 C 
BRANCH  13  14
HETATM   14  C   UNL     1     -39.445 -50.913  12.189  1.00  0.00     0.234 C 
HETATM   15  N   UNL     1     -38.870 -50.050  11.277  1.00  0.00    -0.364 N 
HETATM   16  C   UNL     1     -37.445 -50.009  11.085  1.00  0.00     0.149 C 
HETATM   17  H   UNL     1     -39.443 -49.378  10.785  1.00  0.00     0.161 HD
HETATM   18  O   UNL     1     -38.818 -51.715  12.873  1.00  0.00    -0.272 OA
ENDBRANCH  13  14
ENDBRANCH   1  13
TORSDOF 4
ENDMDL
