MODEL 1
REMARK VINA RESULT:      -6.1      0.000      0.000
REMARK  5 active torsions:
REMARK  status: ('A' for Active; 'I' for Inactive)
REMARK       I    between atoms: N_2  and  C_3 
REMARK    1  A    between atoms: C_3  and  C_5 
REMARK    2  A    between atoms: C_5  and  C_6 
REMARK    3  A    between atoms: C_10  and  C_11 
REMARK    4  A    between atoms: C_11  and  O_12 
REMARK    5  A    between atoms: O_12  and  C_13 
ROOT
HETATM    1  C   UNL     1     -40.825 -50.380  11.614  1.00  0.00     0.112 A 
HETATM    2  N   UNL     1     -39.792 -51.201  11.837  1.00  0.00    -0.247 N 
ATOM      3  HN  UNL     1     -38.797 -51.012  11.718  1.00  0.00     0.196 HD
HETATM    4  O   UNL     1     -40.404 -52.376  12.269  1.00  0.00    -0.221 OA
HETATM    5  C   UNL     1     -41.751 -52.143  12.269  1.00  0.00     0.172 A 
HETATM    6  N   UNL     1     -42.062 -50.929  11.858  1.00  0.00    -0.325 N 
ATOM      7  HN  UNL     1     -42.984 -50.507  11.749  1.00  0.00     0.169 HD
ENDROOT
BRANCH   5   8
HETATM    8  C   UNL     1     -42.581 -53.227  12.857  1.00  0.00     0.254 C 
BRANCH   8   9
HETATM    9  O   UNL     1     -43.778 -52.676  13.417  1.00  0.00    -0.378 OA
BRANCH   9  10
HETATM   10  C   UNL     1     -44.974 -53.229  12.851  1.00  0.00     0.122 C 
HETATM   11  C   UNL     1     -46.009 -52.105  12.718  1.00  0.00     0.032 C 
HETATM   12  C   UNL     1     -46.493 -51.596  14.077  1.00  0.00     0.002 C 
HETATM   13  C   UNL     1     -47.010 -52.725  14.965  1.00  0.00     0.000 C 
HETATM   14  C   UNL     1     -46.025 -53.885  15.071  1.00  0.00     0.002 C 
HETATM   15  C   UNL     1     -45.559 -54.366  13.699  1.00  0.00     0.032 C 
ENDBRANCH   9  10
ENDBRANCH   8   9
ENDBRANCH   5   8
BRANCH   1  16
HETATM   16  C   UNL     1     -40.659 -48.965  11.220  1.00  0.00     0.181 C 
BRANCH  16  17
HETATM   17  C   UNL     1     -41.974 -48.329  10.835  1.00  0.00     0.224 C 
HETATM   18  N   UNL     1     -42.164 -48.139   9.483  1.00  0.00    -0.365 N 
HETATM   19  C   UNL     1     -43.376 -47.541   8.986  1.00  0.00     0.149 C 
HETATM   20  H   UNL     1     -41.371 -48.252   8.853  1.00  0.00     0.161 HD
HETATM   21  O   UNL     1     -42.843 -48.077  11.667  1.00  0.00    -0.273 OA
ENDBRANCH  16  17
ENDBRANCH   1  16
TORSDOF 5
ENDMDL
MODEL 2
REMARK VINA RESULT:      -6.0      1.292      1.806
REMARK  5 active torsions:
REMARK  status: ('A' for Active; 'I' for Inactive)
REMARK       I    between atoms: N_2  and  C_3 
REMARK    1  A    between atoms: C_3  and  C_5 
REMARK    2  A    between atoms: C_5  and  C_6 
REMARK    3  A    between atoms: C_10  and  C_11 
REMARK    4  A    between atoms: C_11  and  O_12 
REMARK    5  A    between atoms: O_12  and  C_13 
ROOT
HETATM    1  C   UNL     1     -41.208 -49.022  11.150  1.00  0.00     0.112 A 
HETATM    2  N   UNL     1     -39.946 -49.466  11.165  1.00  0.00    -0.247 N 
ATOM      3  HN  UNL     1     -39.104 -48.990  10.839  1.00  0.00     0.196 HD
HETATM    4  O   UNL     1     -40.057 -50.734  11.731  1.00  0.00    -0.221 OA
HETATM    5  C   UNL     1     -41.382 -50.927  12.008  1.00  0.00     0.172 A 
HETATM    6  N   UNL     1     -42.135 -49.905  11.654  1.00  0.00    -0.325 N 
ATOM      7  HN  UNL     1     -43.146 -49.796  11.732  1.00  0.00     0.169 HD
ENDROOT
BRANCH   5   8
HETATM    8  C   UNL     1     -41.696 -52.164  12.770  1.00  0.00     0.254 C 
BRANCH   8   9
HETATM    9  O   UNL     1     -43.006 -52.628  12.428  1.00  0.00    -0.378 OA
BRANCH   9  10
HETATM   10  C   UNL     1     -43.728 -53.160  13.548  1.00  0.00     0.122 C 
HETATM   11  C   UNL     1     -45.079 -53.682  13.046  1.00  0.00     0.032 C 
HETATM   12  C   UNL     1     -45.998 -52.557  12.568  1.00  0.00     0.002 C 
HETATM   13  C   UNL     1     -46.181 -51.472  13.625  1.00  0.00     0.000 C 
HETATM   14  C   UNL     1     -44.854 -50.971  14.186  1.00  0.00     0.002 C 
HETATM   15  C   UNL     1     -43.959 -52.118  14.651  1.00  0.00     0.032 C 
ENDBRANCH   9  10
ENDBRANCH   8   9
ENDBRANCH   5   8
BRANCH   1  16
HETATM   16  C   UNL     1     -41.578 -47.661  10.710  1.00  0.00     0.181 C 
BRANCH  16  17
HETATM   17  C   UNL     1     -42.841 -47.660   9.880  1.00  0.00     0.224 C 
HETATM   18  N   UNL     1     -42.669 -47.950   8.543  1.00  0.00    -0.365 N 
HETATM   19  C   UNL     1     -43.794 -47.980   7.645  1.00  0.00     0.149 C 
HETATM   20  H   UNL     1     -41.725 -47.958   8.158  1.00  0.00     0.161 HD
HETATM   21  O   UNL     1     -43.950 -47.495  10.384  1.00  0.00    -0.273 OA
ENDBRANCH  16  17
ENDBRANCH   1  16
TORSDOF 5
ENDMDL
MODEL 3
REMARK VINA RESULT:      -5.6      2.823      6.102
REMARK  5 active torsions:
REMARK  status: ('A' for Active; 'I' for Inactive)
REMARK       I    between atoms: N_2  and  C_3 
REMARK    1  A    between atoms: C_3  and  C_5 
REMARK    2  A    between atoms: C_5  and  C_6 
REMARK    3  A    between atoms: C_10  and  C_11 
REMARK    4  A    between atoms: C_11  and  O_12 
REMARK    5  A    between atoms: O_12  and  C_13 
ROOT
HETATM    1  C   UNL     1     -43.580 -53.390  12.733  1.00  0.00     0.112 A 
HETATM    2  N   UNL     1     -43.073 -52.654  11.738  1.00  0.00    -0.247 N 
ATOM      3  HN  UNL     1     -43.568 -52.207  10.965  1.00  0.00     0.196 HD
HETATM    4  O   UNL     1     -41.707 -52.643  12.010  1.00  0.00    -0.221 OA
HETATM    5  C   UNL     1     -41.526 -53.374  13.151  1.00  0.00     0.172 A 
HETATM    6  N   UNL     1     -42.651 -53.869  13.627  1.00  0.00    -0.325 N 
ATOM      7  HN  UNL     1     -42.796 -54.457  14.448  1.00  0.00     0.169 HD
ENDROOT
BRANCH   5   8
HETATM    8  C   UNL     1     -40.147 -53.351  13.706  1.00  0.00     0.254 C 
BRANCH   8   9
HETATM    9  O   UNL     1     -39.311 -52.517  12.898  1.00  0.00    -0.378 OA
BRANCH   9  10
HETATM   10  C   UNL     1     -38.500 -51.616  13.665  1.00  0.00     0.122 C 
HETATM   11  C   UNL     1     -39.349 -50.392  14.026  1.00  0.00     0.032 C 
HETATM   12  C   UNL     1     -39.707 -49.549  12.801  1.00  0.00     0.002 C 
HETATM   13  C   UNL     1     -38.474 -49.151  11.994  1.00  0.00     0.000 C 
HETATM   14  C   UNL     1     -37.578 -50.341  11.667  1.00  0.00     0.002 C 
HETATM   15  C   UNL     1     -37.243 -51.163  12.910  1.00  0.00     0.032 C 
ENDBRANCH   9  10
ENDBRANCH   8   9
ENDBRANCH   5   8
BRANCH   1  16
HETATM   16  C   UNL     1     -45.030 -53.608  12.915  1.00  0.00     0.181 C 
BRANCH  16  17
HETATM   17  C   UNL     1     -45.835 -52.379  12.560  1.00  0.00     0.224 C 
HETATM   18  N   UNL     1     -46.702 -52.528  11.499  1.00  0.00    -0.365 N 
HETATM   19  C   UNL     1     -47.525 -51.431  11.060  1.00  0.00     0.149 C 
HETATM   20  H   UNL     1     -46.623 -53.356  10.910  1.00  0.00     0.161 HD
HETATM   21  O   UNL     1     -45.777 -51.349  13.228  1.00  0.00    -0.273 OA
ENDBRANCH  16  17
ENDBRANCH   1  16
TORSDOF 5
ENDMDL
MODEL 4
REMARK VINA RESULT:      -5.4      1.879      2.387
REMARK  5 active torsions:
REMARK  status: ('A' for Active; 'I' for Inactive)
REMARK       I    between atoms: N_2  and  C_3 
REMARK    1  A    between atoms: C_3  and  C_5 
REMARK    2  A    between atoms: C_5  and  C_6 
REMARK    3  A    between atoms: C_10  and  C_11 
REMARK    4  A    between atoms: C_11  and  O_12 
REMARK    5  A    between atoms: O_12  and  C_13 
ROOT
HETATM    1  C   UNL     1     -41.507 -49.191  11.015  1.00  0.00     0.112 A 
HETATM    2  N   UNL     1     -40.363 -49.845  10.782  1.00  0.00    -0.247 N 
ATOM      3  HN  UNL     1     -39.576 -49.555  10.201  1.00  0.00     0.196 HD
HETATM    4  O   UNL     1     -40.507 -51.017  11.521  1.00  0.00    -0.221 OA
HETATM    5  C   UNL     1     -41.727 -50.951  12.134  1.00  0.00     0.172 A 
HETATM    6  N   UNL     1     -42.389 -49.849  11.841  1.00  0.00    -0.325 N 
ATOM      7  HN  UNL     1     -43.317 -49.559  12.147  1.00  0.00     0.169 HD
ENDROOT
BRANCH   5   8
HETATM    8  C   UNL     1     -42.008 -52.040  13.106  1.00  0.00     0.254 C 
BRANCH   8   9
HETATM    9  O   UNL     1     -43.421 -52.231  13.229  1.00  0.00    -0.378 OA
BRANCH   9  10
HETATM   10  C   UNL     1     -43.889 -52.138  14.582  1.00  0.00     0.122 C 
HETATM   11  C   UNL     1     -44.411 -53.515  15.007  1.00  0.00     0.032 C 
HETATM   12  C   UNL     1     -45.677 -53.919  14.249  1.00  0.00     0.002 C 
HETATM   13  C   UNL     1     -46.770 -52.857  14.344  1.00  0.00     0.000 C 
HETATM   14  C   UNL     1     -46.266 -51.464  13.981  1.00  0.00     0.002 C 
HETATM   15  C   UNL     1     -45.001 -51.094  14.751  1.00  0.00     0.032 C 
ENDBRANCH   9  10
ENDBRANCH   8   9
ENDBRANCH   5   8
BRANCH   1  16
HETATM   16  C   UNL     1     -41.777 -47.832  10.502  1.00  0.00     0.181 C 
BRANCH  16  17
HETATM   17  C   UNL     1     -40.673 -46.864  10.860  1.00  0.00     0.224 C 
HETATM   18  N   UNL     1     -40.588 -45.744  10.060  1.00  0.00    -0.365 N 
HETATM   19  C   UNL     1     -39.578 -44.745  10.297  1.00  0.00     0.149 C 
HETATM   20  H   UNL     1     -41.119 -45.718   9.191  1.00  0.00     0.161 HD
HETATM   21  O   UNL     1     -39.960 -47.028  11.848  1.00  0.00    -0.273 OA
ENDBRANCH  16  17
ENDBRANCH   1  16
TORSDOF 5
ENDMDL
MODEL 5
REMARK VINA RESULT:      -5.3      1.988      3.202
REMARK  5 active torsions:
REMARK  status: ('A' for Active; 'I' for Inactive)
REMARK       I    between atoms: N_2  and  C_3 
REMARK    1  A    between atoms: C_3  and  C_5 
REMARK    2  A    between atoms: C_5  and  C_6 
REMARK    3  A    between atoms: C_10  and  C_11 
REMARK    4  A    between atoms: C_11  and  O_12 
REMARK    5  A    between atoms: O_12  and  C_13 
ROOT
HETATM    1  C   UNL     1     -42.768 -47.944  11.285  1.00  0.00     0.112 A 
HETATM    2  N   UNL     1     -43.199 -47.774  12.540  1.00  0.00    -0.247 N 
ATOM      3  HN  UNL     1     -43.722 -46.988  12.928  1.00  0.00     0.196 HD
HETATM    4  O   UNL     1     -42.762 -48.927  13.189  1.00  0.00    -0.221 OA
HETATM    5  C   UNL     1     -42.112 -49.683  12.253  1.00  0.00     0.172 A 
HETATM    6  N   UNL     1     -42.075 -49.112  11.066  1.00  0.00    -0.325 N 
ATOM      7  HN  UNL     1     -41.644 -49.450  10.206  1.00  0.00     0.169 HD
ENDROOT
BRANCH   5   8
HETATM    8  C   UNL     1     -41.706 -51.040  12.708  1.00  0.00     0.254 C 
BRANCH   8   9
HETATM    9  O   UNL     1     -42.866 -51.810  13.038  1.00  0.00    -0.378 OA
BRANCH   9  10
HETATM   10  C   UNL     1     -42.874 -53.110  12.430  1.00  0.00     0.122 C 
HETATM   11  C   UNL     1     -44.288 -53.689  12.548  1.00  0.00     0.032 C 
HETATM   12  C   UNL     1     -44.671 -54.001  13.996  1.00  0.00     0.002 C 
HETATM   13  C   UNL     1     -43.645 -54.898  14.684  1.00  0.00     0.000 C 
HETATM   14  C   UNL     1     -42.219 -54.377  14.535  1.00  0.00     0.002 C 
HETATM   15  C   UNL     1     -41.870 -54.072  13.080  1.00  0.00     0.032 C 
ENDBRANCH   9  10
ENDBRANCH   8   9
ENDBRANCH   5   8
BRANCH   1  16
HETATM   16  C   UNL     1     -43.077 -46.999  10.191  1.00  0.00     0.181 C 
BRANCH  16  17
HETATM   17  C   UNL     1     -43.959 -47.626   9.136  1.00  0.00     0.224 C 
HETATM   18  N   UNL     1     -45.280 -47.794   9.495  1.00  0.00    -0.365 N 
HETATM   19  C   UNL     1     -46.223 -48.381   8.579  1.00  0.00     0.149 C 
HETATM   20  H   UNL     1     -45.544 -47.675  10.472  1.00  0.00     0.161 HD
HETATM   21  O   UNL     1     -43.541 -47.887   8.011  1.00  0.00    -0.273 OA
ENDBRANCH  16  17
ENDBRANCH   1  16
TORSDOF 5
ENDMDL
MODEL 6
REMARK VINA RESULT:      -5.2      1.962      2.204
REMARK  5 active torsions:
REMARK  status: ('A' for Active; 'I' for Inactive)
REMARK       I    between atoms: N_2  and  C_3 
REMARK    1  A    between atoms: C_3  and  C_5 
REMARK    2  A    between atoms: C_5  and  C_6 
REMARK    3  A    between atoms: C_10  and  C_11 
REMARK    4  A    between atoms: C_11  and  O_12 
REMARK    5  A    between atoms: O_12  and  C_13 
ROOT
HETATM    1  C   UNL     1     -40.227 -50.913  12.134  1.00  0.00     0.112 A 
HETATM    2  N   UNL     1     -40.101 -51.330  13.400  1.00  0.00    -0.247 N 
ATOM      3  HN  UNL     1     -39.398 -51.060  14.087  1.00  0.00     0.196 HD
HETATM    4  O   UNL     1     -41.161 -52.221  13.552  1.00  0.00    -0.221 OA
HETATM    5  C   UNL     1     -41.828 -52.249  12.358  1.00  0.00     0.172 A 
HETATM    6  N   UNL     1     -41.280 -51.470  11.447  1.00  0.00    -0.325 N 
ATOM      7  HN  UNL     1     -41.565 -51.319  10.479  1.00  0.00     0.169 HD
ENDROOT
BRANCH   5   8
HETATM    8  C   UNL     1     -43.097 -53.023  12.360  1.00  0.00     0.254 C 
BRANCH   8   9
HETATM    9  O   UNL     1     -43.896 -52.645  13.486  1.00  0.00    -0.378 OA
BRANCH   9  10
HETATM   10  C   UNL     1     -44.470 -51.336  13.359  1.00  0.00     0.122 C 
HETATM   11  C   UNL     1     -44.270 -50.591  14.683  1.00  0.00     0.032 C 
HETATM   12  C   UNL     1     -45.089 -51.199  15.823  1.00  0.00     0.002 C 
HETATM   13  C   UNL     1     -46.570 -51.318  15.471  1.00  0.00     0.000 C 
HETATM   14  C   UNL     1     -46.799 -52.005  14.129  1.00  0.00     0.002 C 
HETATM   15  C   UNL     1     -45.965 -51.377  13.014  1.00  0.00     0.032 C 
ENDBRANCH   9  10
ENDBRANCH   8   9
ENDBRANCH   5   8
BRANCH   1  16
HETATM   16  C   UNL     1     -39.362 -49.875  11.538  1.00  0.00     0.181 C 
BRANCH  16  17
HETATM   17  C   UNL     1     -39.719 -48.491  12.031  1.00  0.00     0.224 C 
HETATM   18  N   UNL     1     -40.026 -47.576  11.046  1.00  0.00    -0.365 N 
HETATM   19  C   UNL     1     -40.382 -46.222  11.385  1.00  0.00     0.149 C 
HETATM   20  H   UNL     1     -39.819 -47.807  10.076  1.00  0.00     0.161 HD
HETATM   21  O   UNL     1     -39.810 -48.231  13.228  1.00  0.00    -0.273 OA
ENDBRANCH  16  17
ENDBRANCH   1  16
TORSDOF 5
ENDMDL
MODEL 7
REMARK VINA RESULT:      -5.1      4.165      6.507
REMARK  5 active torsions:
REMARK  status: ('A' for Active; 'I' for Inactive)
REMARK       I    between atoms: N_2  and  C_3 
REMARK    1  A    between atoms: C_3  and  C_5 
REMARK    2  A    between atoms: C_5  and  C_6 
REMARK    3  A    between atoms: C_10  and  C_11 
REMARK    4  A    between atoms: C_11  and  O_12 
REMARK    5  A    between atoms: O_12  and  C_13 
ROOT
HETATM    1  C   UNL     1     -39.646 -54.681  15.313  1.00  0.00     0.112 A 
HETATM    2  N   UNL     1     -38.915 -54.661  14.193  1.00  0.00    -0.247 N 
ATOM      3  HN  UNL     1     -37.931 -54.907  14.075  1.00  0.00     0.196 HD
HETATM    4  O   UNL     1     -39.818 -54.224  13.227  1.00  0.00    -0.221 OA
HETATM    5  C   UNL     1     -41.012 -54.027  13.863  1.00  0.00     0.172 A 
HETATM    6  N   UNL     1     -40.953 -54.282  15.155  1.00  0.00    -0.325 N 
ATOM      7  HN  UNL     1     -41.688 -54.202  15.858  1.00  0.00     0.169 HD
ENDROOT
BRANCH   5   8
HETATM    8  C   UNL     1     -42.160 -53.712  12.972  1.00  0.00     0.254 C 
BRANCH   8   9
HETATM    9  O   UNL     1     -43.372 -53.677  13.733  1.00  0.00    -0.378 OA
BRANCH   9  10
HETATM   10  C   UNL     1     -44.522 -54.097  12.984  1.00  0.00     0.122 C 
HETATM   11  C   UNL     1     -45.311 -52.850  12.573  1.00  0.00     0.032 C 
HETATM   12  C   UNL     1     -45.942 -52.138  13.771  1.00  0.00     0.002 C 
HETATM   13  C   UNL     1     -46.793 -53.079  14.619  1.00  0.00     0.000 C 
HETATM   14  C   UNL     1     -46.053 -54.357  14.998  1.00  0.00     0.002 C 
HETATM   15  C   UNL     1     -45.432 -55.041  13.782  1.00  0.00     0.032 C 
ENDBRANCH   9  10
ENDBRANCH   8   9
ENDBRANCH   5   8
BRANCH   1  16
HETATM   16  C   UNL     1     -39.127 -55.172  16.606  1.00  0.00     0.181 C 
BRANCH  16  17
HETATM   17  C   UNL     1     -39.714 -56.514  16.977  1.00  0.00     0.224 C 
HETATM   18  N   UNL     1     -38.841 -57.394  17.582  1.00  0.00    -0.365 N 
HETATM   19  C   UNL     1     -39.277 -58.706  17.983  1.00  0.00     0.149 C 
HETATM   20  H   UNL     1     -37.844 -57.182  17.574  1.00  0.00     0.161 HD
HETATM   21  O   UNL     1     -40.907 -56.767  16.825  1.00  0.00    -0.273 OA
ENDBRANCH  16  17
ENDBRANCH   1  16
TORSDOF 5
ENDMDL
MODEL 8
REMARK VINA RESULT:      -5.1      2.277      2.462
REMARK  5 active torsions:
REMARK  status: ('A' for Active; 'I' for Inactive)
REMARK       I    between atoms: N_2  and  C_3 
REMARK    1  A    between atoms: C_3  and  C_5 
REMARK    2  A    between atoms: C_5  and  C_6 
REMARK    3  A    between atoms: C_10  and  C_11 
REMARK    4  A    between atoms: C_11  and  O_12 
REMARK    5  A    between atoms: O_12  and  C_13 
ROOT
HETATM    1  C   UNL     1     -39.957 -51.424  12.429  1.00  0.00     0.112 A 
HETATM    2  N   UNL     1     -40.770 -51.433  11.367  1.00  0.00    -0.247 N 
ATOM      3  HN  UNL     1     -40.703 -50.878  10.514  1.00  0.00     0.196 HD
HETATM    4  O   UNL     1     -41.730 -52.384  11.706  1.00  0.00    -0.221 OA
HETATM    5  C   UNL     1     -41.396 -52.859  12.944  1.00  0.00     0.172 A 
HETATM    6  N   UNL     1     -40.317 -52.286  13.439  1.00  0.00    -0.325 N 
ATOM      7  HN  UNL     1     -39.865 -52.442  14.340  1.00  0.00     0.169 HD
ENDROOT
BRANCH   5   8
HETATM    8  C   UNL     1     -42.209 -54.008  13.422  1.00  0.00     0.254 C 
BRANCH   8   9
HETATM    9  O   UNL     1     -43.482 -53.545  13.885  1.00  0.00    -0.378 OA
BRANCH   9  10
HETATM   10  C   UNL     1     -44.577 -53.996  13.076  1.00  0.00     0.122 C 
HETATM   11  C   UNL     1     -45.393 -52.773  12.643  1.00  0.00     0.032 C 
HETATM   12  C   UNL     1     -46.107 -52.103  13.818  1.00  0.00     0.002 C 
HETATM   13  C   UNL     1     -46.962 -53.089  14.611  1.00  0.00     0.000 C 
HETATM   14  C   UNL     1     -46.193 -54.344  15.008  1.00  0.00     0.002 C 
HETATM   15  C   UNL     1     -45.489 -54.985  13.814  1.00  0.00     0.032 C 
ENDBRANCH   9  10
ENDBRANCH   8   9
ENDBRANCH   5   8
BRANCH   1  16
HETATM   16  C   UNL     1     -38.721 -50.617  12.490  1.00  0.00     0.181 C 
BRANCH  16  17
HETATM   17  C   UNL     1     -38.964 -49.255  13.098  1.00  0.00     0.224 C 
HETATM   18  N   UNL     1     -39.416 -48.290  12.222  1.00  0.00    -0.365 N 
HETATM   19  C   UNL     1     -39.685 -46.951  12.677  1.00  0.00     0.149 C 
HETATM   20  H   UNL     1     -39.379 -48.478  11.221  1.00  0.00     0.161 HD
HETATM   21  O   UNL     1     -38.847 -49.051  14.304  1.00  0.00    -0.273 OA
ENDBRANCH  16  17
ENDBRANCH   1  16
TORSDOF 5
ENDMDL
MODEL 9
REMARK VINA RESULT:      -5.1      2.644      6.520
REMARK  5 active torsions:
REMARK  status: ('A' for Active; 'I' for Inactive)
REMARK       I    between atoms: N_2  and  C_3 
REMARK    1  A    between atoms: C_3  and  C_5 
REMARK    2  A    between atoms: C_5  and  C_6 
REMARK    3  A    between atoms: C_10  and  C_11 
REMARK    4  A    between atoms: C_11  and  O_12 
REMARK    5  A    between atoms: O_12  and  C_13 
ROOT
HETATM    1  C   UNL     1     -42.572 -53.363  12.846  1.00  0.00     0.112 A 
HETATM    2  N   UNL     1     -41.437 -53.991  12.518  1.00  0.00    -0.247 N 
ATOM      3  HN  UNL     1     -41.225 -54.987  12.580  1.00  0.00     0.196 HD
HETATM    4  O   UNL     1     -40.615 -52.959  12.072  1.00  0.00    -0.221 OA
HETATM    5  C   UNL     1     -41.342 -51.804  12.171  1.00  0.00     0.172 A 
HETATM    6  N   UNL     1     -42.551 -52.000  12.658  1.00  0.00    -0.325 N 
ATOM      7  HN  UNL     1     -43.284 -51.316  12.847  1.00  0.00     0.169 HD
ENDROOT
BRANCH   5   8
HETATM    8  C   UNL     1     -40.697 -50.598  11.589  1.00  0.00     0.254 C 
BRANCH   8   9
HETATM    9  O   UNL     1     -40.201 -49.758  12.637  1.00  0.00    -0.378 OA
BRANCH   9  10
HETATM   10  C   UNL     1     -38.942 -49.146  12.322  1.00  0.00     0.122 C 
HETATM   11  C   UNL     1     -37.919 -50.257  12.056  1.00  0.00     0.032 C 
HETATM   12  C   UNL     1     -37.588 -51.058  13.316  1.00  0.00     0.002 C 
HETATM   13  C   UNL     1     -37.148 -50.162  14.471  1.00  0.00     0.000 C 
HETATM   14  C   UNL     1     -38.117 -49.012  14.723  1.00  0.00     0.002 C 
HETATM   15  C   UNL     1     -38.429 -48.236  13.446  1.00  0.00     0.032 C 
ENDBRANCH   9  10
ENDBRANCH   8   9
ENDBRANCH   5   8
BRANCH   1  16
HETATM   16  C   UNL     1     -43.787 -54.075  13.294  1.00  0.00     0.181 C 
BRANCH  16  17
HETATM   17  C   UNL     1     -45.025 -53.220  13.155  1.00  0.00     0.224 C 
HETATM   18  N   UNL     1     -45.468 -52.630  14.320  1.00  0.00    -0.365 N 
HETATM   19  C   UNL     1     -46.639 -51.792  14.322  1.00  0.00     0.149 C 
HETATM   20  H   UNL     1     -45.076 -52.937  15.209  1.00  0.00     0.161 HD
HETATM   21  O   UNL     1     -45.547 -53.004  12.064  1.00  0.00    -0.273 OA
ENDBRANCH  16  17
ENDBRANCH   1  16
TORSDOF 5
ENDMDL
