MODEL 1
REMARK VINA RESULT:      -6.6      0.000      0.000
REMARK  4 active torsions:
REMARK  status: ('A' for Active; 'I' for Inactive)
REMARK    1  A    between atoms: C_8  and  N_9 
REMARK       I    between atoms: N_9  and  C_10 
REMARK       I    between atoms: C_10  and  N_12 
REMARK    2  A    between atoms: N_12  and  C_13 
REMARK    3  A    between atoms: C_13  and  C_14 
REMARK    4  A    between atoms: C_14  and  O_15 
ROOT
HETATM    1  N   UNL     1     -41.071 -48.293  10.574  1.00  0.00    -0.294 N 
HETATM    2  C   UNL     1     -40.837 -49.399  11.308  1.00  0.00     0.321 C 
HETATM    3  O   UNL     1     -39.687 -49.602  11.700  1.00  0.00    -0.247 OA
HETATM    4  N   UNL     1     -41.886 -50.200  11.684  1.00  0.00    -0.340 N 
HETATM    5  H   UNL     1     -40.411 -47.571  10.821  1.00  0.00     0.172 HD
HETATM    6  H   UNL     1     -42.786 -49.744  11.765  1.00  0.00     0.164 HD
ENDROOT
BRANCH   1   7
HETATM    7  C   UNL     1     -42.249 -47.785  10.050  1.00  0.00     0.114 A 
HETATM    8  C   UNL     1     -43.215 -47.129  10.813  1.00  0.00    -0.018 A 
HETATM    9  C   UNL     1     -43.098 -46.903  12.292  1.00  0.00     0.052 C 
HETATM   10  C   UNL     1     -44.399 -46.759  10.158  1.00  0.00     0.012 A 
HETATM   11  C   UNL     1     -44.581 -47.067   8.816  1.00  0.00     0.018 A 
HETATM   12  C   UNL     1     -43.584 -47.760   8.164  1.00  0.00     0.089 A 
HETATM   13  N   UNL     1     -42.440 -48.144   8.761  1.00  0.00    -0.352 N 
ATOM     14  HN  UNL     1     -41.741 -48.690   8.257  1.00  0.00     0.166 HD
ENDBRANCH   1   7
BRANCH   4  15
HETATM   15  C   UNL     1     -41.567 -51.202  12.690  1.00  0.00     0.162 C 
BRANCH  15  16
HETATM   16  C   UNL     1     -41.628 -52.692  12.282  1.00  0.00     0.074 C 
HETATM   17  C   UNL     1     -43.090 -53.186  12.385  1.00  0.00     0.039 C 
HETATM   18  C   UNL     1     -43.599 -53.222  13.830  1.00  0.00     0.003 C 
HETATM   19  C   UNL     1     -42.662 -53.997  14.759  1.00  0.00     0.000 C 
HETATM   20  C   UNL     1     -41.186 -53.633  14.597  1.00  0.00     0.003 C 
HETATM   21  C   UNL     1     -40.748 -53.615  13.135  1.00  0.00     0.039 C 
BRANCH  16  22
HETATM   22  O   UNL     1     -41.194 -52.819  10.920  1.00  0.00    -0.388 OA
HETATM   23  H   UNL     1     -40.228 -52.709  10.900  1.00  0.00     0.210 HD
ENDBRANCH  16  22
ENDBRANCH  15  16
ENDBRANCH   4  15
TORSDOF 4
ENDMDL
MODEL 2
REMARK VINA RESULT:      -6.6      2.080      3.494
REMARK  4 active torsions:
REMARK  status: ('A' for Active; 'I' for Inactive)
REMARK    1  A    between atoms: C_8  and  N_9 
REMARK       I    between atoms: N_9  and  C_10 
REMARK       I    between atoms: C_10  and  N_12 
REMARK    2  A    between atoms: N_12  and  C_13 
REMARK    3  A    between atoms: C_13  and  C_14 
REMARK    4  A    between atoms: C_14  and  O_15 
ROOT
HETATM    1  N   UNL     1     -40.720 -50.922  11.424  1.00  0.00    -0.294 N 
HETATM    2  C   UNL     1     -41.611 -51.720  12.045  1.00  0.00     0.321 C 
HETATM    3  O   UNL     1     -41.352 -52.922  12.131  1.00  0.00    -0.247 OA
HETATM    4  N   UNL     1     -42.713 -51.169  12.650  1.00  0.00    -0.340 N 
HETATM    5  H   UNL     1     -39.792 -51.306  11.519  1.00  0.00     0.172 HD
HETATM    6  H   UNL     1     -42.614 -50.212  12.967  1.00  0.00     0.164 HD
ENDROOT
BRANCH   1   7
HETATM    7  C   UNL     1     -40.714 -49.550  11.227  1.00  0.00     0.114 A 
HETATM    8  C   UNL     1     -39.795 -48.687  11.823  1.00  0.00    -0.018 A 
HETATM    9  C   UNL     1     -38.708 -49.139  12.754  1.00  0.00     0.052 C 
HETATM   10  C   UNL     1     -39.979 -47.313  11.605  1.00  0.00     0.012 A 
HETATM   11  C   UNL     1     -41.052 -46.864  10.846  1.00  0.00     0.018 A 
HETATM   12  C   UNL     1     -41.931 -47.797  10.341  1.00  0.00     0.089 A 
HETATM   13  N   UNL     1     -41.796 -49.122  10.539  1.00  0.00    -0.352 N 
ATOM     14  HN  UNL     1     -42.488 -49.781  10.182  1.00  0.00     0.166 HD
ENDBRANCH   1   7
BRANCH   4  15
HETATM   15  C   UNL     1     -43.458 -52.070  13.515  1.00  0.00     0.162 C 
BRANCH  15  16
HETATM   16  C   UNL     1     -44.654 -52.841  12.911  1.00  0.00     0.074 C 
HETATM   17  C   UNL     1     -45.850 -51.873  12.745  1.00  0.00     0.039 C 
HETATM   18  C   UNL     1     -46.413 -51.398  14.088  1.00  0.00     0.003 C 
HETATM   19  C   UNL     1     -46.739 -52.560  15.027  1.00  0.00     0.000 C 
HETATM   20  C   UNL     1     -45.633 -53.613  15.120  1.00  0.00     0.003 C 
HETATM   21  C   UNL     1     -45.120 -54.039  13.748  1.00  0.00     0.039 C 
BRANCH  16  22
HETATM   22  O   UNL     1     -44.281 -53.337  11.617  1.00  0.00    -0.388 OA
HETATM   23  H   UNL     1     -44.376 -52.610  10.977  1.00  0.00     0.210 HD
ENDBRANCH  16  22
ENDBRANCH  15  16
ENDBRANCH   4  15
TORSDOF 4
ENDMDL
MODEL 3
REMARK VINA RESULT:      -6.4      1.325      1.686
REMARK  4 active torsions:
REMARK  status: ('A' for Active; 'I' for Inactive)
REMARK    1  A    between atoms: C_8  and  N_9 
REMARK       I    between atoms: N_9  and  C_10 
REMARK       I    between atoms: C_10  and  N_12 
REMARK    2  A    between atoms: N_12  and  C_13 
REMARK    3  A    between atoms: C_13  and  C_14 
REMARK    4  A    between atoms: C_14  and  O_15 
ROOT
HETATM    1  N   UNL     1     -39.790 -49.081  11.240  1.00  0.00    -0.294 N 
HETATM    2  C   UNL     1     -39.717 -50.264  11.881  1.00  0.00     0.321 C 
HETATM    3  O   UNL     1     -38.620 -50.823  11.944  1.00  0.00    -0.247 OA
HETATM    4  N   UNL     1     -40.822 -50.758  12.527  1.00  0.00    -0.340 N 
HETATM    5  H   UNL     1     -38.903 -48.603  11.301  1.00  0.00     0.172 HD
HETATM    6  H   UNL     1     -41.491 -50.070  12.851  1.00  0.00     0.164 HD
ENDROOT
BRANCH   1   7
HETATM    7  C   UNL     1     -40.855 -48.212  11.059  1.00  0.00     0.114 A 
HETATM    8  C   UNL     1     -41.238 -47.252  11.996  1.00  0.00    -0.018 A 
HETATM    9  C   UNL     1     -40.549 -47.051  13.314  1.00  0.00     0.052 C 
HETATM   10  C   UNL     1     -42.396 -46.514  11.712  1.00  0.00     0.012 A 
HETATM   11  C   UNL     1     -43.121 -46.768  10.554  1.00  0.00     0.018 A 
HETATM   12  C   UNL     1     -42.683 -47.770   9.717  1.00  0.00     0.089 A 
HETATM   13  N   UNL     1     -41.584 -48.510   9.961  1.00  0.00    -0.352 N 
ATOM     14  HN  UNL     1     -41.312 -49.270   9.338  1.00  0.00     0.166 HD
ENDBRANCH   1   7
BRANCH   4  15
HETATM   15  C   UNL     1     -40.570 -51.890  13.406  1.00  0.00     0.162 C 
BRANCH  15  16
HETATM   16  C   UNL     1     -40.853 -53.310  12.866  1.00  0.00     0.074 C 
HETATM   17  C   UNL     1     -42.365 -53.612  13.003  1.00  0.00     0.039 C 
HETATM   18  C   UNL     1     -42.813 -53.722  14.464  1.00  0.00     0.003 C 
HETATM   19  C   UNL     1     -41.955 -54.702  15.265  1.00  0.00     0.000 C 
HETATM   20  C   UNL     1     -40.450 -54.525  15.057  1.00  0.00     0.003 C 
HETATM   21  C   UNL     1     -40.076 -54.423  13.581  1.00  0.00     0.039 C 
BRANCH  16  22
HETATM   22  O   UNL     1     -40.498 -53.360  11.476  1.00  0.00    -0.388 OA
HETATM   23  H   UNL     1     -41.151 -52.836  10.980  1.00  0.00     0.210 HD
ENDBRANCH  16  22
ENDBRANCH  15  16
ENDBRANCH   4  15
TORSDOF 4
ENDMDL
MODEL 4
REMARK VINA RESULT:      -6.2      1.580      1.942
REMARK  4 active torsions:
REMARK  status: ('A' for Active; 'I' for Inactive)
REMARK    1  A    between atoms: C_8  and  N_9 
REMARK       I    between atoms: N_9  and  C_10 
REMARK       I    between atoms: C_10  and  N_12 
REMARK    2  A    between atoms: N_12  and  C_13 
REMARK    3  A    between atoms: C_13  and  C_14 
REMARK    4  A    between atoms: C_14  and  O_15 
ROOT
HETATM    1  N   UNL     1     -41.135 -48.970  10.642  1.00  0.00    -0.294 N 
HETATM    2  C   UNL     1     -41.453 -49.927  11.536  1.00  0.00     0.321 C 
HETATM    3  O   UNL     1     -40.583 -50.743  11.846  1.00  0.00    -0.247 OA
HETATM    4  N   UNL     1     -42.681 -49.906  12.149  1.00  0.00    -0.340 N 
HETATM    5  H   UNL     1     -40.148 -48.768  10.692  1.00  0.00     0.172 HD
HETATM    6  H   UNL     1     -43.119 -48.997  12.233  1.00  0.00     0.164 HD
ENDROOT
BRANCH   1   7
HETATM    7  C   UNL     1     -41.875 -47.905  10.152  1.00  0.00     0.114 A 
HETATM    8  C   UNL     1     -41.949 -46.661  10.779  1.00  0.00    -0.018 A 
HETATM    9  C   UNL     1     -41.243 -46.330  12.062  1.00  0.00     0.052 C 
HETATM   10  C   UNL     1     -42.817 -45.715  10.214  1.00  0.00     0.012 A 
HETATM   11  C   UNL     1     -43.574 -46.042   9.096  1.00  0.00     0.018 A 
HETATM   12  C   UNL     1     -43.463 -47.315   8.581  1.00  0.00     0.089 A 
HETATM   13  N   UNL     1     -42.651 -48.254   9.102  1.00  0.00    -0.352 N 
ATOM     14  HN  UNL     1     -42.623 -49.198   8.717  1.00  0.00     0.166 HD
ENDBRANCH   1   7
BRANCH   4  15
HETATM   15  C   UNL     1     -42.821 -50.807  13.282  1.00  0.00     0.162 C 
BRANCH  15  16
HETATM   16  C   UNL     1     -43.581 -52.136  13.068  1.00  0.00     0.074 C 
HETATM   17  C   UNL     1     -45.090 -51.837  12.906  1.00  0.00     0.039 C 
HETATM   18  C   UNL     1     -45.726 -51.301  14.193  1.00  0.00     0.003 C 
HETATM   19  C   UNL     1     -45.443 -52.197  15.399  1.00  0.00     0.000 C 
HETATM   20  C   UNL     1     -43.981 -52.627  15.525  1.00  0.00     0.003 C 
HETATM   21  C   UNL     1     -43.413 -53.149  14.208  1.00  0.00     0.039 C 
BRANCH  16  22
HETATM   22  O   UNL     1     -43.103 -52.757  11.865  1.00  0.00    -0.388 OA
HETATM   23  H   UNL     1     -43.862 -52.878  11.267  1.00  0.00     0.210 HD
ENDBRANCH  16  22
ENDBRANCH  15  16
ENDBRANCH   4  15
TORSDOF 4
ENDMDL
MODEL 5
REMARK VINA RESULT:      -6.2      3.046      4.738
REMARK  4 active torsions:
REMARK  status: ('A' for Active; 'I' for Inactive)
REMARK    1  A    between atoms: C_8  and  N_9 
REMARK       I    between atoms: N_9  and  C_10 
REMARK       I    between atoms: C_10  and  N_12 
REMARK    2  A    between atoms: N_12  and  C_13 
REMARK    3  A    between atoms: C_13  and  C_14 
REMARK    4  A    between atoms: C_14  and  O_15 
ROOT
HETATM    1  N   UNL     1     -40.545 -52.669  12.507  1.00  0.00    -0.294 N 
HETATM    2  C   UNL     1     -41.653 -53.254  13.004  1.00  0.00     0.321 C 
HETATM    3  O   UNL     1     -41.678 -54.484  13.076  1.00  0.00    -0.247 OA
HETATM    4  N   UNL     1     -42.666 -52.476  13.508  1.00  0.00    -0.340 N 
HETATM    5  H   UNL     1     -39.741 -53.252  12.686  1.00  0.00     0.172 HD
HETATM    6  H   UNL     1     -42.392 -51.569  13.866  1.00  0.00     0.164 HD
ENDROOT
BRANCH   1   7
HETATM    7  C   UNL     1     -40.215 -51.332  12.358  1.00  0.00     0.114 A 
HETATM    8  C   UNL     1     -39.548 -50.587  13.331  1.00  0.00    -0.018 A 
HETATM    9  C   UNL     1     -39.117 -51.142  14.657  1.00  0.00     0.052 C 
HETATM   10  C   UNL     1     -39.372 -49.219  13.074  1.00  0.00     0.012 A 
HETATM   11  C   UNL     1     -39.872 -48.657  11.906  1.00  0.00     0.018 A 
HETATM   12  C   UNL     1     -40.557 -49.472  11.032  1.00  0.00     0.089 A 
HETATM   13  N   UNL     1     -40.759 -50.785  11.248  1.00  0.00    -0.352 N 
ATOM     14  HN  UNL     1     -41.304 -51.349  10.596  1.00  0.00     0.166 HD
ENDBRANCH   1   7
BRANCH   4  15
HETATM   15  C   UNL     1     -43.682 -53.196  14.259  1.00  0.00     0.162 C 
BRANCH  15  16
HETATM   16  C   UNL     1     -45.014 -53.533  13.550  1.00  0.00     0.074 C 
HETATM   17  C   UNL     1     -45.641 -52.228  13.003  1.00  0.00     0.039 C 
HETATM   18  C   UNL     1     -46.095 -51.281  14.119  1.00  0.00     0.003 C 
HETATM   19  C   UNL     1     -47.002 -51.974  15.137  1.00  0.00     0.000 C 
HETATM   20  C   UNL     1     -46.484 -53.333  15.608  1.00  0.00     0.003 C 
HETATM   21  C   UNL     1     -46.049 -54.223  14.447  1.00  0.00     0.039 C 
BRANCH  16  22
HETATM   22  O   UNL     1     -44.744 -54.411  12.447  1.00  0.00    -0.388 OA
HETATM   23  H   UNL     1     -45.564 -54.505  11.930  1.00  0.00     0.210 HD
ENDBRANCH  16  22
ENDBRANCH  15  16
ENDBRANCH   4  15
TORSDOF 4
ENDMDL
MODEL 6
REMARK VINA RESULT:      -6.2      3.231      7.194
REMARK  4 active torsions:
REMARK  status: ('A' for Active; 'I' for Inactive)
REMARK    1  A    between atoms: C_8  and  N_9 
REMARK       I    between atoms: N_9  and  C_10 
REMARK       I    between atoms: C_10  and  N_12 
REMARK    2  A    between atoms: N_12  and  C_13 
REMARK    3  A    between atoms: C_13  and  C_14 
REMARK    4  A    between atoms: C_14  and  O_15 
ROOT
HETATM    1  N   UNL     1     -40.735 -49.774  10.822  1.00  0.00    -0.294 N 
HETATM    2  C   UNL     1     -41.265 -48.535  10.846  1.00  0.00     0.321 C 
HETATM    3  O   UNL     1     -42.330 -48.348  10.255  1.00  0.00    -0.247 OA
HETATM    4  N   UNL     1     -40.673 -47.556  11.604  1.00  0.00    -0.340 N 
HETATM    5  H   UNL     1     -41.470 -50.459  10.729  1.00  0.00     0.172 HD
HETATM    6  H   UNL     1     -40.145 -47.875  12.407  1.00  0.00     0.164 HD
ENDROOT
BRANCH   1   7
HETATM    7  C   UNL     1     -39.600 -50.287  11.429  1.00  0.00     0.114 A 
HETATM    8  C   UNL     1     -39.603 -50.900  12.682  1.00  0.00    -0.018 A 
HETATM    9  C   UNL     1     -40.833 -51.071  13.525  1.00  0.00     0.052 C 
HETATM   10  C   UNL     1     -38.358 -51.280  13.207  1.00  0.00     0.012 A 
HETATM   11  C   UNL     1     -37.192 -51.020  12.498  1.00  0.00     0.018 A 
HETATM   12  C   UNL     1     -37.295 -50.366  11.289  1.00  0.00     0.089 A 
HETATM   13  N   UNL     1     -38.469 -49.974  10.759  1.00  0.00    -0.352 N 
ATOM     14  HN  UNL     1     -38.503 -49.458   9.880  1.00  0.00     0.166 HD
ENDBRANCH   1   7
BRANCH   4  15
HETATM   15  C   UNL     1     -41.463 -46.347  11.778  1.00  0.00     0.162 C 
BRANCH  15  16
HETATM   16  C   UNL     1     -41.102 -45.109  10.926  1.00  0.00     0.074 C 
HETATM   17  C   UNL     1     -39.612 -44.757  11.149  1.00  0.00     0.039 C 
HETATM   18  C   UNL     1     -39.330 -44.267  12.574  1.00  0.00     0.003 C 
HETATM   19  C   UNL     1     -40.260 -43.128  12.993  1.00  0.00     0.000 C 
HETATM   20  C   UNL     1     -41.734 -43.377  12.670  1.00  0.00     0.003 C 
HETATM   21  C   UNL     1     -41.941 -43.863  11.238  1.00  0.00     0.039 C 
BRANCH  16  22
HETATM   22  O   UNL     1     -41.298 -45.425   9.540  1.00  0.00    -0.388 OA
HETATM   23  H   UNL     1     -42.081 -44.940   9.228  1.00  0.00     0.210 HD
ENDBRANCH  16  22
ENDBRANCH  15  16
ENDBRANCH   4  15
TORSDOF 4
ENDMDL
MODEL 7
REMARK VINA RESULT:      -6.1      3.365      6.363
REMARK  4 active torsions:
REMARK  status: ('A' for Active; 'I' for Inactive)
REMARK    1  A    between atoms: C_8  and  N_9 
REMARK       I    between atoms: N_9  and  C_10 
REMARK       I    between atoms: C_10  and  N_12 
REMARK    2  A    between atoms: N_12  and  C_13 
REMARK    3  A    between atoms: C_13  and  C_14 
REMARK    4  A    between atoms: C_14  and  O_15 
ROOT
HETATM    1  N   UNL     1     -40.887 -54.244  13.574  1.00  0.00    -0.294 N 
HETATM    2  C   UNL     1     -39.948 -53.291  13.734  1.00  0.00     0.321 C 
HETATM    3  O   UNL     1     -38.767 -53.609  13.584  1.00  0.00    -0.247 OA
HETATM    4  N   UNL     1     -40.328 -51.990  13.952  1.00  0.00    -0.340 N 
HETATM    5  H   UNL     1     -40.558 -54.944  12.927  1.00  0.00     0.172 HD
HETATM    6  H   UNL     1     -41.232 -51.724  13.581  1.00  0.00     0.164 HD
ENDROOT
BRANCH   1   7
HETATM    7  C   UNL     1     -42.271 -54.172  13.626  1.00  0.00     0.114 A 
HETATM    8  C   UNL     1     -43.036 -54.737  14.646  1.00  0.00    -0.018 A 
HETATM    9  C   UNL     1     -42.455 -55.495  15.803  1.00  0.00     0.052 C 
HETATM   10  C   UNL     1     -44.431 -54.666  14.507  1.00  0.00     0.012 A 
HETATM   11  C   UNL     1     -44.992 -54.076  13.382  1.00  0.00     0.018 A 
HETATM   12  C   UNL     1     -44.146 -53.591  12.409  1.00  0.00     0.089 A 
HETATM   13  N   UNL     1     -42.804 -53.651  12.498  1.00  0.00    -0.352 N 
ATOM     14  HN  UNL     1     -42.210 -53.316  11.740  1.00  0.00     0.166 HD
ENDBRANCH   1   7
BRANCH   4  15
HETATM   15  C   UNL     1     -39.261 -51.008  13.840  1.00  0.00     0.162 C 
BRANCH  15  16
HETATM   16  C   UNL     1     -38.969 -50.402  12.447  1.00  0.00     0.074 C 
HETATM   17  C   UNL     1     -38.187 -49.079  12.624  1.00  0.00     0.039 C 
HETATM   18  C   UNL     1     -39.027 -47.983  13.288  1.00  0.00     0.003 C 
HETATM   19  C   UNL     1     -40.368 -47.770  12.584  1.00  0.00     0.000 C 
HETATM   20  C   UNL     1     -41.118 -49.065  12.270  1.00  0.00     0.003 C 
HETATM   21  C   UNL     1     -40.223 -50.111  11.612  1.00  0.00     0.039 C 
BRANCH  16  22
HETATM   22  O   UNL     1     -38.157 -51.321  11.701  1.00  0.00    -0.388 OA
HETATM   23  H   UNL     1     -37.816 -51.991  12.319  1.00  0.00     0.210 HD
ENDBRANCH  16  22
ENDBRANCH  15  16
ENDBRANCH   4  15
TORSDOF 4
ENDMDL
MODEL 8
REMARK VINA RESULT:      -6.1      3.236      5.208
REMARK  4 active torsions:
REMARK  status: ('A' for Active; 'I' for Inactive)
REMARK    1  A    between atoms: C_8  and  N_9 
REMARK       I    between atoms: N_9  and  C_10 
REMARK       I    between atoms: C_10  and  N_12 
REMARK    2  A    between atoms: N_12  and  C_13 
REMARK    3  A    between atoms: C_13  and  C_14 
REMARK    4  A    between atoms: C_14  and  O_15 
ROOT
HETATM    1  N   UNL     1     -42.614 -52.829  12.797  1.00  0.00    -0.294 N 
HETATM    2  C   UNL     1     -41.497 -52.243  12.320  1.00  0.00     0.321 C 
HETATM    3  O   UNL     1     -40.515 -52.955  12.107  1.00  0.00    -0.247 OA
HETATM    4  N   UNL     1     -41.516 -50.912  11.988  1.00  0.00    -0.340 N 
HETATM    5  H   UNL     1     -42.654 -53.790  12.492  1.00  0.00     0.172 HD
HETATM    6  H   UNL     1     -42.416 -50.534  11.719  1.00  0.00     0.164 HD
ENDROOT
BRANCH   1   7
HETATM    7  C   UNL     1     -43.865 -52.303  13.076  1.00  0.00     0.114 A 
HETATM    8  C   UNL     1     -44.159 -51.578  14.231  1.00  0.00    -0.018 A 
HETATM    9  C   UNL     1     -43.159 -51.287  15.311  1.00  0.00     0.052 C 
HETATM   10  C   UNL     1     -45.496 -51.196  14.419  1.00  0.00     0.012 A 
HETATM   11  C   UNL     1     -46.464 -51.561  13.491  1.00  0.00     0.018 A 
HETATM   12  C   UNL     1     -46.077 -52.319  12.408  1.00  0.00     0.089 A 
HETATM   13  N   UNL     1     -44.807 -52.716  12.199  1.00  0.00    -0.352 N 
ATOM     14  HN  UNL     1     -44.564 -53.309  11.406  1.00  0.00     0.166 HD
ENDBRANCH   1   7
BRANCH   4  15
HETATM   15  C   UNL     1     -40.361 -50.447  11.236  1.00  0.00     0.162 C 
BRANCH  15  16
HETATM   16  C   UNL     1     -39.531 -49.280  11.819  1.00  0.00     0.074 C 
HETATM   17  C   UNL     1     -38.034 -49.518  11.507  1.00  0.00     0.039 C 
HETATM   18  C   UNL     1     -37.463 -50.730  12.251  1.00  0.00     0.003 C 
HETATM   19  C   UNL     1     -37.736 -50.671  13.755  1.00  0.00     0.000 C 
HETATM   20  C   UNL     1     -39.178 -50.309  14.112  1.00  0.00     0.003 C 
HETATM   21  C   UNL     1     -39.681 -49.096  13.335  1.00  0.00     0.039 C 
BRANCH  16  22
HETATM   22  O   UNL     1     -39.943 -48.057  11.192  1.00  0.00    -0.388 OA
HETATM   23  H   UNL     1     -40.728 -48.247  10.649  1.00  0.00     0.210 HD
ENDBRANCH  16  22
ENDBRANCH  15  16
ENDBRANCH   4  15
TORSDOF 4
ENDMDL
MODEL 9
REMARK VINA RESULT:      -5.8      3.038      4.473
REMARK  4 active torsions:
REMARK  status: ('A' for Active; 'I' for Inactive)
REMARK    1  A    between atoms: C_8  and  N_9 
REMARK       I    between atoms: N_9  and  C_10 
REMARK       I    between atoms: C_10  and  N_12 
REMARK    2  A    between atoms: N_12  and  C_13 
REMARK    3  A    between atoms: C_13  and  C_14 
REMARK    4  A    between atoms: C_14  and  O_15 
ROOT
HETATM    1  N   UNL     1     -42.354 -45.865  10.255  1.00  0.00    -0.294 N 
HETATM    2  C   UNL     1     -42.388 -47.174  10.578  1.00  0.00     0.321 C 
HETATM    3  O   UNL     1     -42.775 -47.972   9.723  1.00  0.00    -0.247 OA
HETATM    4  N   UNL     1     -41.898 -47.588  11.791  1.00  0.00    -0.340 N 
HETATM    5  H   UNL     1     -42.210 -45.761   9.262  1.00  0.00     0.172 HD
HETATM    6  H   UNL     1     -41.181 -47.004  12.203  1.00  0.00     0.164 HD
ENDROOT
BRANCH   1   7
HETATM    7  C   UNL     1     -41.924 -44.764  10.978  1.00  0.00     0.114 A 
HETATM    8  C   UNL     1     -40.611 -44.292  10.959  1.00  0.00    -0.018 A 
HETATM    9  C   UNL     1     -39.508 -44.925  10.162  1.00  0.00     0.052 C 
HETATM   10  C   UNL     1     -40.306 -43.227  11.820  1.00  0.00     0.012 A 
HETATM   11  C   UNL     1     -41.283 -42.704  12.658  1.00  0.00     0.018 A 
HETATM   12  C   UNL     1     -42.537 -43.274  12.633  1.00  0.00     0.089 A 
HETATM   13  N   UNL     1     -42.865 -44.305  11.832  1.00  0.00    -0.352 N 
ATOM     14  HN  UNL     1     -43.794 -44.726  11.869  1.00  0.00     0.166 HD
ENDBRANCH   1   7
BRANCH   4  15
HETATM   15  C   UNL     1     -41.729 -49.026  11.930  1.00  0.00     0.162 C 
BRANCH  15  16
HETATM   16  C   UNL     1     -40.372 -49.645  11.522  1.00  0.00     0.074 C 
HETATM   17  C   UNL     1     -40.167 -50.971  12.292  1.00  0.00     0.039 C 
HETATM   18  C   UNL     1     -39.989 -50.755  13.799  1.00  0.00     0.003 C 
HETATM   19  C   UNL     1     -38.898 -49.731  14.114  1.00  0.00     0.000 C 
HETATM   20  C   UNL     1     -38.983 -48.453  13.279  1.00  0.00     0.003 C 
HETATM   21  C   UNL     1     -39.162 -48.742  11.791  1.00  0.00     0.039 C 
BRANCH  16  22
HETATM   22  O   UNL     1     -40.394 -49.929  10.115  1.00  0.00    -0.388 OA
HETATM   23  H   UNL     1     -40.930 -50.730   9.978  1.00  0.00     0.210 HD
ENDBRANCH  16  22
ENDBRANCH  15  16
ENDBRANCH   4  15
TORSDOF 4
ENDMDL
