MODEL 1
REMARK VINA RESULT:      -6.1      0.000      0.000
REMARK  7 active torsions:
REMARK  status: ('A' for Active; 'I' for Inactive)
REMARK    1  A    between atoms: C_5  and  O_6 
REMARK    2  A    between atoms: O_6  and  C_7 
REMARK    3  A    between atoms: C_7  and  C_8 
REMARK    4  A    between atoms: C_8  and  N_9 
REMARK    5  A    between atoms: C_13  and  N_14 
REMARK    6  A    between atoms: N_14  and  C_15 
REMARK    7  A    between atoms: C_15  and  C_16 
ROOT
HETATM    1  N   UNL     1     -43.098 -53.468  12.821  1.00  0.00    -0.254 N 
HETATM    2  N   UNL     1     -42.768 -52.609  11.803  1.00  0.00    -0.305 N 
ATOM      3  HN  UNL     1     -43.457 -52.324  11.108  1.00  0.00     0.186 HD
HETATM    4  C   UNL     1     -41.554 -52.175  11.758  1.00  0.00     0.132 A 
HETATM    5  C   UNL     1     -40.458 -52.500  12.697  1.00  0.00     0.053 A 
HETATM    6  C   UNL     1     -40.811 -53.341  13.681  1.00  0.00     0.126 A 
HETATM    7 CL   UNL     1     -39.655 -53.840  14.873  1.00  0.00    -0.076 Cl
HETATM    8  C   UNL     1     -42.195 -53.904  13.788  1.00  0.00     0.285 A 
HETATM    9  O   UNL     1     -42.495 -54.694  14.684  1.00  0.00    -0.265 OA
ENDROOT
BRANCH   1  10
HETATM   10  C   UNL     1     -44.483 -53.946  12.867  1.00  0.00     0.179 C 
BRANCH  10  11
HETATM   11  C   UNL     1     -45.524 -52.857  12.596  1.00  0.00     0.197 C 
BRANCH  11  12
HETATM   12  O   UNL     1     -45.060 -51.598  13.092  1.00  0.00    -0.349 OA
BRANCH  12  13
HETATM   13  C   UNL     1     -45.453 -51.294  14.369  1.00  0.00     0.068 A 
HETATM   14  C   UNL     1     -46.788 -51.576  14.667  1.00  0.00     0.038 A 
HETATM   15  C   UNL     1     -47.296 -51.333  15.947  1.00  0.00     0.026 A 
HETATM   16  C   UNL     1     -46.461 -50.822  16.936  1.00  0.00     0.034 A 
HETATM   17 CL   UNL     1     -47.077 -50.537  18.517  1.00  0.00    -0.084 Cl
HETATM   18  C   UNL     1     -45.125 -50.547  16.654  1.00  0.00     0.026 A 
HETATM   19  C   UNL     1     -44.621 -50.783  15.371  1.00  0.00     0.038 A 
ENDBRANCH  12  13
ENDBRANCH  11  12
ENDBRANCH  10  11
ENDBRANCH   1  10
BRANCH   5  20
HETATM   20  N   UNL     1     -39.240 -51.855  12.471  1.00  0.00    -0.287 NA
HETATM   21  H   UNL     1     -39.047 -51.841  11.468  1.00  0.00     0.128 HD
BRANCH  20  22
HETATM   22  C   UNL     1     -39.027 -50.495  12.966  1.00  0.00     0.119 C 
BRANCH  22  23
HETATM   23  C   UNL     1     -38.509 -49.695  11.815  1.00  0.00    -0.022 C 
HETATM   24  C   UNL     1     -37.351 -49.916  11.178  1.00  0.00     0.008 C 
ENDBRANCH  22  23
ENDBRANCH  20  22
ENDBRANCH   5  20
TORSDOF 7
ENDMDL
MODEL 2
REMARK VINA RESULT:      -5.9      4.238      6.117
REMARK  7 active torsions:
REMARK  status: ('A' for Active; 'I' for Inactive)
REMARK    1  A    between atoms: C_5  and  O_6 
REMARK    2  A    between atoms: O_6  and  C_7 
REMARK    3  A    between atoms: C_7  and  C_8 
REMARK    4  A    between atoms: C_8  and  N_9 
REMARK    5  A    between atoms: C_13  and  N_14 
REMARK    6  A    between atoms: N_14  and  C_15 
REMARK    7  A    between atoms: C_15  and  C_16 
ROOT
HETATM    1  N   UNL     1     -39.596 -49.553  11.870  1.00  0.00    -0.254 N 
HETATM    2  N   UNL     1     -40.454 -49.961  10.880  1.00  0.00    -0.305 N 
ATOM      3  HN  UNL     1     -40.498 -50.937  10.588  1.00  0.00     0.186 HD
HETATM    4  C   UNL     1     -41.202 -49.065  10.332  1.00  0.00     0.132 A 
HETATM    5  C   UNL     1     -41.246 -47.622  10.657  1.00  0.00     0.053 A 
HETATM    6  C   UNL     1     -40.397 -47.255  11.629  1.00  0.00     0.126 A 
HETATM    7 CL   UNL     1     -40.305 -45.600  12.139  1.00  0.00    -0.076 Cl
HETATM    8  C   UNL     1     -39.481 -48.232  12.297  1.00  0.00     0.285 A 
HETATM    9  O   UNL     1     -38.690 -47.871  13.171  1.00  0.00    -0.265 OA
ENDROOT
BRANCH   1  10
HETATM   10  C   UNL     1     -38.757 -50.583  12.491  1.00  0.00     0.179 C 
BRANCH  10  11
HETATM   11  C   UNL     1     -39.547 -51.646  13.258  1.00  0.00     0.197 C 
BRANCH  11  12
HETATM   12  O   UNL     1     -40.193 -52.536  12.343  1.00  0.00    -0.349 OA
BRANCH  12  13
HETATM   13  C   UNL     1     -41.358 -53.097  12.799  1.00  0.00     0.068 A 
HETATM   14  C   UNL     1     -42.520 -52.664  12.158  1.00  0.00     0.038 A 
HETATM   15  C   UNL     1     -43.766 -53.184  12.520  1.00  0.00     0.026 A 
HETATM   16  C   UNL     1     -43.847 -54.154  13.516  1.00  0.00     0.034 A 
HETATM   17 CL   UNL     1     -45.375 -54.811  13.953  1.00  0.00    -0.084 Cl
HETATM   18  C   UNL     1     -42.693 -54.602  14.155  1.00  0.00     0.026 A 
HETATM   19  C   UNL     1     -41.448 -54.073  13.796  1.00  0.00     0.038 A 
ENDBRANCH  12  13
ENDBRANCH  11  12
ENDBRANCH  10  11
ENDBRANCH   1  10
BRANCH   5  20
HETATM   20  N   UNL     1     -42.189 -46.862   9.962  1.00  0.00    -0.287 NA
HETATM   21  H   UNL     1     -41.707 -46.152   9.408  1.00  0.00     0.128 HD
BRANCH  20  22
HETATM   22  C   UNL     1     -43.149 -47.517   9.074  1.00  0.00     0.119 C 
BRANCH  22  23
HETATM   23  C   UNL     1     -44.394 -46.688   9.103  1.00  0.00    -0.022 C 
HETATM   24  C   UNL     1     -45.643 -47.171   9.151  1.00  0.00     0.008 C 
ENDBRANCH  22  23
ENDBRANCH  20  22
ENDBRANCH   5  20
TORSDOF 7
ENDMDL
MODEL 3
REMARK VINA RESULT:      -5.9      2.721      3.243
REMARK  7 active torsions:
REMARK  status: ('A' for Active; 'I' for Inactive)
REMARK    1  A    between atoms: C_5  and  O_6 
REMARK    2  A    between atoms: O_6  and  C_7 
REMARK    3  A    between atoms: C_7  and  C_8 
REMARK    4  A    between atoms: C_8  and  N_9 
REMARK    5  A    between atoms: C_13  and  N_14 
REMARK    6  A    between atoms: N_14  and  C_15 
REMARK    7  A    between atoms: C_15  and  C_16 
ROOT
HETATM    1  N   UNL     1     -41.596 -51.549  12.500  1.00  0.00    -0.254 N 
HETATM    2  N   UNL     1     -42.339 -50.487  12.049  1.00  0.00    -0.305 N 
ATOM      3  HN  UNL     1     -43.358 -50.512  12.061  1.00  0.00     0.186 HD
HETATM    4  C   UNL     1     -41.701 -49.456  11.610  1.00  0.00     0.132 A 
HETATM    5  C   UNL     1     -40.233 -49.282  11.539  1.00  0.00     0.053 A 
HETATM    6  C   UNL     1     -39.535 -50.335  11.988  1.00  0.00     0.126 A 
HETATM    7 CL   UNL     1     -37.801 -50.314  11.975  1.00  0.00    -0.076 Cl
HETATM    8  C   UNL     1     -40.203 -51.577  12.492  1.00  0.00     0.285 A 
HETATM    9  O   UNL     1     -39.545 -52.545  12.877  1.00  0.00    -0.265 OA
ENDROOT
BRANCH   1  10
HETATM   10  C   UNL     1     -42.333 -52.712  13.005  1.00  0.00     0.179 C 
BRANCH  10  11
HETATM   11  C   UNL     1     -43.599 -53.037  12.207  1.00  0.00     0.197 C 
BRANCH  11  12
HETATM   12  O   UNL     1     -44.478 -53.852  12.988  1.00  0.00    -0.349 OA
BRANCH  12  13
HETATM   13  C   UNL     1     -45.341 -53.165  13.802  1.00  0.00     0.068 A 
HETATM   14  C   UNL     1     -45.487 -53.684  15.091  1.00  0.00     0.038 A 
HETATM   15  C   UNL     1     -46.321 -53.053  16.019  1.00  0.00     0.026 A 
HETATM   16  C   UNL     1     -46.998 -51.891  15.662  1.00  0.00     0.034 A 
HETATM   17 CL   UNL     1     -48.011 -51.100  16.805  1.00  0.00    -0.084 Cl
HETATM   18  C   UNL     1     -46.851 -51.358  14.383  1.00  0.00     0.026 A 
HETATM   19  C   UNL     1     -46.023 -51.995  13.453  1.00  0.00     0.038 A 
ENDBRANCH  12  13
ENDBRANCH  11  12
ENDBRANCH  10  11
ENDBRANCH   1  10
BRANCH   5  20
HETATM   20  N   UNL     1     -39.781 -48.043  11.078  1.00  0.00    -0.287 NA
HETATM   21  H   UNL     1     -40.043 -47.932  10.098  1.00  0.00     0.128 HD
BRANCH  20  22
HETATM   22  C   UNL     1     -40.174 -46.815  11.767  1.00  0.00     0.119 C 
BRANCH  22  23
HETATM   23  C   UNL     1     -40.476 -45.805  10.707  1.00  0.00    -0.022 C 
HETATM   24  C   UNL     1     -39.573 -45.013  10.114  1.00  0.00     0.008 C 
ENDBRANCH  22  23
ENDBRANCH  20  22
ENDBRANCH   5  20
TORSDOF 7
ENDMDL
MODEL 4
REMARK VINA RESULT:      -5.8      2.840      6.664
REMARK  7 active torsions:
REMARK  status: ('A' for Active; 'I' for Inactive)
REMARK    1  A    between atoms: C_5  and  O_6 
REMARK    2  A    between atoms: O_6  and  C_7 
REMARK    3  A    between atoms: C_7  and  C_8 
REMARK    4  A    between atoms: C_8  and  N_9 
REMARK    5  A    between atoms: C_13  and  N_14 
REMARK    6  A    between atoms: N_14  and  C_15 
REMARK    7  A    between atoms: C_15  and  C_16 
ROOT
HETATM    1  N   UNL     1     -42.003 -54.165  14.405  1.00  0.00    -0.254 N 
HETATM    2  N   UNL     1     -41.889 -53.076  13.577  1.00  0.00    -0.305 N 
ATOM      3  HN  UNL     1     -41.014 -52.556  13.505  1.00  0.00     0.186 HD
HETATM    4  C   UNL     1     -42.929 -52.733  12.895  1.00  0.00     0.132 A 
HETATM    5  C   UNL     1     -44.252 -53.394  12.898  1.00  0.00     0.053 A 
HETATM    6  C   UNL     1     -44.332 -54.456  13.715  1.00  0.00     0.126 A 
HETATM    7 CL   UNL     1     -45.809 -55.352  13.855  1.00  0.00    -0.076 Cl
HETATM    8  C   UNL     1     -43.176 -54.902  14.556  1.00  0.00     0.285 A 
HETATM    9  O   UNL     1     -43.274 -55.864  15.319  1.00  0.00    -0.265 OA
ENDROOT
BRANCH   1  10
HETATM   10  C   UNL     1     -40.811 -54.549  15.168  1.00  0.00     0.179 C 
BRANCH  10  11
HETATM   11  C   UNL     1     -39.918 -53.369  15.558  1.00  0.00     0.197 C 
BRANCH  11  12
HETATM   12  O   UNL     1     -39.169 -52.922  14.424  1.00  0.00    -0.349 OA
BRANCH  12  13
HETATM   13  C   UNL     1     -38.638 -51.663  14.536  1.00  0.00     0.068 A 
HETATM   14  C   UNL     1     -38.244 -51.072  13.333  1.00  0.00     0.038 A 
HETATM   15  C   UNL     1     -37.712 -49.779  13.319  1.00  0.00     0.026 A 
HETATM   16  C   UNL     1     -37.589 -49.069  14.510  1.00  0.00     0.034 A 
HETATM   17 CL   UNL     1     -36.952 -47.472  14.496  1.00  0.00    -0.084 Cl
HETATM   18  C   UNL     1     -37.989 -49.644  15.714  1.00  0.00     0.026 A 
HETATM   19  C   UNL     1     -38.513 -50.941  15.727  1.00  0.00     0.038 A 
ENDBRANCH  12  13
ENDBRANCH  11  12
ENDBRANCH  10  11
ENDBRANCH   1  10
BRANCH   5  20
HETATM   20  N   UNL     1     -45.205 -52.870  12.023  1.00  0.00    -0.287 NA
HETATM   21  H   UNL     1     -45.433 -53.568  11.314  1.00  0.00     0.128 HD
BRANCH  20  22
HETATM   22  C   UNL     1     -46.473 -52.357  12.540  1.00  0.00     0.119 C 
BRANCH  22  23
HETATM   23  C   UNL     1     -46.135 -51.412  13.648  1.00  0.00    -0.022 C 
HETATM   24  C   UNL     1     -46.713 -51.398  14.857  1.00  0.00     0.008 C 
ENDBRANCH  22  23
ENDBRANCH  20  22
ENDBRANCH   5  20
TORSDOF 7
ENDMDL
MODEL 5
REMARK VINA RESULT:      -5.7      3.924      6.313
REMARK  7 active torsions:
REMARK  status: ('A' for Active; 'I' for Inactive)
REMARK    1  A    between atoms: C_5  and  O_6 
REMARK    2  A    between atoms: O_6  and  C_7 
REMARK    3  A    between atoms: C_7  and  C_8 
REMARK    4  A    between atoms: C_8  and  N_9 
REMARK    5  A    between atoms: C_13  and  N_14 
REMARK    6  A    between atoms: N_14  and  C_15 
REMARK    7  A    between atoms: C_15  and  C_16 
ROOT
HETATM    1  N   UNL     1     -39.668 -50.889  12.083  1.00  0.00    -0.254 N 
HETATM    2  N   UNL     1     -40.808 -51.197  11.384  1.00  0.00    -0.305 N 
ATOM      3  HN  UNL     1     -41.118 -50.625  10.599  1.00  0.00     0.186 HD
HETATM    4  C   UNL     1     -41.474 -52.237  11.758  1.00  0.00     0.132 A 
HETATM    5  C   UNL     1     -41.141 -53.154  12.871  1.00  0.00     0.053 A 
HETATM    6  C   UNL     1     -40.021 -52.827  13.533  1.00  0.00     0.126 A 
HETATM    7 CL   UNL     1     -39.478 -53.784  14.872  1.00  0.00    -0.076 Cl
HETATM    8  C   UNL     1     -39.206 -51.623  13.173  1.00  0.00     0.285 A 
HETATM    9  O   UNL     1     -38.194 -51.324  13.808  1.00  0.00    -0.265 OA
ENDROOT
BRANCH   1  10
HETATM   10  C   UNL     1     -38.915 -49.710  11.642  1.00  0.00     0.179 C 
BRANCH  10  11
HETATM   11  C   UNL     1     -39.359 -48.406  12.311  1.00  0.00     0.197 C 
BRANCH  11  12
HETATM   12  O   UNL     1     -40.738 -48.486  12.681  1.00  0.00    -0.349 OA
BRANCH  12  13
HETATM   13  C   UNL     1     -41.605 -47.835  11.842  1.00  0.00     0.068 A 
HETATM   14  C   UNL     1     -41.083 -46.711  11.198  1.00  0.00     0.038 A 
HETATM   15  C   UNL     1     -41.865 -45.981  10.299  1.00  0.00     0.026 A 
HETATM   16  C   UNL     1     -43.169 -46.386  10.031  1.00  0.00     0.034 A 
HETATM   17 CL   UNL     1     -44.131 -45.502   8.911  1.00  0.00    -0.084 Cl
HETATM   18  C   UNL     1     -43.697 -47.512  10.658  1.00  0.00     0.026 A 
HETATM   19  C   UNL     1     -42.915 -48.236  11.564  1.00  0.00     0.038 A 
ENDBRANCH  12  13
ENDBRANCH  11  12
ENDBRANCH  10  11
ENDBRANCH   1  10
BRANCH   5  20
HETATM   20  N   UNL     1     -41.990 -54.249  13.041  1.00  0.00    -0.287 NA
HETATM   21  H   UNL     1     -41.431 -55.084  13.225  1.00  0.00     0.128 HD
BRANCH  20  22
HETATM   22  C   UNL     1     -43.045 -54.210  14.054  1.00  0.00     0.119 C 
BRANCH  22  23
HETATM   23  C   UNL     1     -44.342 -54.373  13.329  1.00  0.00    -0.022 C 
HETATM   24  C   UNL     1     -45.386 -55.090  13.764  1.00  0.00     0.008 C 
ENDBRANCH  22  23
ENDBRANCH  20  22
ENDBRANCH   5  20
TORSDOF 7
ENDMDL
MODEL 6
REMARK VINA RESULT:      -5.6      3.288      6.172
REMARK  7 active torsions:
REMARK  status: ('A' for Active; 'I' for Inactive)
REMARK    1  A    between atoms: C_5  and  O_6 
REMARK    2  A    between atoms: O_6  and  C_7 
REMARK    3  A    between atoms: C_7  and  C_8 
REMARK    4  A    between atoms: C_8  and  N_9 
REMARK    5  A    between atoms: C_13  and  N_14 
REMARK    6  A    between atoms: N_14  and  C_15 
REMARK    7  A    between atoms: C_15  and  C_16 
ROOT
HETATM    1  N   UNL     1     -41.940 -53.072  12.566  1.00  0.00    -0.254 N 
HETATM    2  N   UNL     1     -43.079 -52.709  11.892  1.00  0.00    -0.305 N 
ATOM      3  HN  UNL     1     -43.044 -52.057  11.108  1.00  0.00     0.186 HD
HETATM    4  C   UNL     1     -44.195 -53.221  12.287  1.00  0.00     0.132 A 
HETATM    5  C   UNL     1     -44.391 -54.176  13.400  1.00  0.00     0.053 A 
HETATM    6  C   UNL     1     -43.260 -54.513  14.037  1.00  0.00     0.126 A 
HETATM    7 CL   UNL     1     -43.296 -55.617  15.374  1.00  0.00    -0.076 Cl
HETATM    8  C   UNL     1     -41.930 -53.944  13.653  1.00  0.00     0.285 A 
HETATM    9  O   UNL     1     -40.904 -54.245  14.266  1.00  0.00    -0.265 OA
ENDROOT
BRANCH   1  10
HETATM   10  C   UNL     1     -40.677 -52.490  12.101  1.00  0.00     0.179 C 
BRANCH  10  11
HETATM   11  C   UNL     1     -40.303 -51.182  12.803  1.00  0.00     0.197 C 
BRANCH  11  12
HETATM   12  O   UNL     1     -41.484 -50.486  13.212  1.00  0.00    -0.349 OA
BRANCH  12  13
HETATM   13  C   UNL     1     -41.809 -49.393  12.451  1.00  0.00     0.068 A 
HETATM   14  C   UNL     1     -40.732 -48.753  11.835  1.00  0.00     0.038 A 
HETATM   15  C   UNL     1     -40.942 -47.641  11.014  1.00  0.00     0.026 A 
HETATM   16  C   UNL     1     -42.237 -47.179  10.795  1.00  0.00     0.034 A 
HETATM   17 CL   UNL     1     -42.504 -45.823   9.770  1.00  0.00    -0.084 Cl
HETATM   18  C   UNL     1     -43.320 -47.817  11.395  1.00  0.00     0.026 A 
HETATM   19  C   UNL     1     -43.106 -48.923  12.223  1.00  0.00     0.038 A 
ENDBRANCH  12  13
ENDBRANCH  11  12
ENDBRANCH  10  11
ENDBRANCH   1  10
BRANCH   5  20
HETATM   20  N   UNL     1     -45.695 -54.635  13.595  1.00  0.00    -0.287 NA
HETATM   21  H   UNL     1     -45.696 -55.656  13.605  1.00  0.00     0.128 HD
BRANCH  20  22
HETATM   22  C   UNL     1     -46.461 -54.197  14.762  1.00  0.00     0.119 C 
BRANCH  22  23
HETATM   23  C   UNL     1     -46.683 -52.727  14.602  1.00  0.00    -0.022 C 
HETATM   24  C   UNL     1     -47.203 -51.918  15.534  1.00  0.00     0.008 C 
ENDBRANCH  22  23
ENDBRANCH  20  22
ENDBRANCH   5  20
TORSDOF 7
ENDMDL
MODEL 7
REMARK VINA RESULT:      -5.4      2.660      6.801
REMARK  7 active torsions:
REMARK  status: ('A' for Active; 'I' for Inactive)
REMARK    1  A    between atoms: C_5  and  O_6 
REMARK    2  A    between atoms: O_6  and  C_7 
REMARK    3  A    between atoms: C_7  and  C_8 
REMARK    4  A    between atoms: C_8  and  N_9 
REMARK    5  A    between atoms: C_13  and  N_14 
REMARK    6  A    between atoms: N_14  and  C_15 
REMARK    7  A    between atoms: C_15  and  C_16 
ROOT
HETATM    1  N   UNL     1     -41.996 -52.932  12.506  1.00  0.00    -0.254 N 
HETATM    2  N   UNL     1     -43.159 -52.622  11.847  1.00  0.00    -0.305 N 
ATOM      3  HN  UNL     1     -43.167 -51.960  11.071  1.00  0.00     0.186 HD
HETATM    4  C   UNL     1     -44.242 -53.200  12.243  1.00  0.00     0.132 A 
HETATM    5  C   UNL     1     -44.376 -54.179  13.345  1.00  0.00     0.053 A 
HETATM    6  C   UNL     1     -43.222 -54.462  13.969  1.00  0.00     0.126 A 
HETATM    7 CL   UNL     1     -43.187 -55.583  15.290  1.00  0.00    -0.076 Cl
HETATM    8  C   UNL     1     -41.928 -53.815  13.581  1.00  0.00     0.285 A 
HETATM    9  O   UNL     1     -40.883 -54.068  14.182  1.00  0.00    -0.265 OA
ENDROOT
BRANCH   1  10
HETATM   10  C   UNL     1     -40.771 -52.275  12.040  1.00  0.00     0.179 C 
BRANCH  10  11
HETATM   11  C   UNL     1     -40.877 -50.750  11.958  1.00  0.00     0.197 C 
BRANCH  11  12
HETATM   12  O   UNL     1     -39.614 -50.186  11.592  1.00  0.00    -0.349 OA
BRANCH  12  13
HETATM   13  C   UNL     1     -38.935 -49.570  12.610  1.00  0.00     0.068 A 
HETATM   14  C   UNL     1     -38.033 -50.380  13.303  1.00  0.00     0.038 A 
HETATM   15  C   UNL     1     -37.263 -49.855  14.346  1.00  0.00     0.026 A 
HETATM   16  C   UNL     1     -37.385 -48.510  14.685  1.00  0.00     0.034 A 
HETATM   17 CL   UNL     1     -36.428 -47.854  15.955  1.00  0.00    -0.084 Cl
HETATM   18  C   UNL     1     -38.274 -47.690  13.994  1.00  0.00     0.026 A 
HETATM   19  C   UNL     1     -39.049 -48.220  12.957  1.00  0.00     0.038 A 
ENDBRANCH  12  13
ENDBRANCH  11  12
ENDBRANCH  10  11
ENDBRANCH   1  10
BRANCH   5  20
HETATM   20  N   UNL     1     -45.651 -54.711  13.545  1.00  0.00    -0.287 NA
HETATM   21  H   UNL     1     -45.596 -55.731  13.538  1.00  0.00     0.128 HD
BRANCH  20  22
HETATM   22  C   UNL     1     -46.428 -54.333  14.725  1.00  0.00     0.119 C 
BRANCH  22  23
HETATM   23  C   UNL     1     -46.927 -52.944  14.483  1.00  0.00    -0.022 C 
HETATM   24  C   UNL     1     -46.938 -51.958  15.389  1.00  0.00     0.008 C 
ENDBRANCH  22  23
ENDBRANCH  20  22
ENDBRANCH   5  20
TORSDOF 7
ENDMDL
MODEL 8
REMARK VINA RESULT:      -5.4      3.333      6.666
REMARK  7 active torsions:
REMARK  status: ('A' for Active; 'I' for Inactive)
REMARK    1  A    between atoms: C_5  and  O_6 
REMARK    2  A    between atoms: O_6  and  C_7 
REMARK    3  A    between atoms: C_7  and  C_8 
REMARK    4  A    between atoms: C_8  and  N_9 
REMARK    5  A    between atoms: C_13  and  N_14 
REMARK    6  A    between atoms: N_14  and  C_15 
REMARK    7  A    between atoms: C_15  and  C_16 
ROOT
HETATM    1  N   UNL     1     -39.746 -51.967  13.166  1.00  0.00    -0.254 N 
HETATM    2  N   UNL     1     -40.482 -51.693  12.040  1.00  0.00    -0.305 N 
ATOM      3  HN  UNL     1     -40.157 -51.021  11.346  1.00  0.00     0.186 HD
HETATM    4  C   UNL     1     -41.601 -52.319  11.892  1.00  0.00     0.132 A 
HETATM    5  C   UNL     1     -42.190 -53.317  12.811  1.00  0.00     0.053 A 
HETATM    6  C   UNL     1     -41.446 -53.564  13.900  1.00  0.00     0.126 A 
HETATM    7 CL   UNL     1     -41.982 -54.702  15.094  1.00  0.00    -0.076 Cl
HETATM    8  C   UNL     1     -40.148 -52.863  14.154  1.00  0.00     0.285 A 
HETATM    9  O   UNL     1     -39.491 -53.084  15.172  1.00  0.00    -0.265 OA
ENDROOT
BRANCH   1  10
HETATM   10  C   UNL     1     -38.472 -51.257  13.317  1.00  0.00     0.179 C 
BRANCH  10  11
HETATM   11  C   UNL     1     -38.612 -49.855  13.916  1.00  0.00     0.197 C 
BRANCH  11  12
HETATM   12  O   UNL     1     -39.932 -49.352  13.692  1.00  0.00    -0.349 OA
BRANCH  12  13
HETATM   13  C   UNL     1     -39.998 -48.186  12.976  1.00  0.00     0.068 A 
HETATM   14  C   UNL     1     -39.510 -47.053  13.632  1.00  0.00     0.038 A 
HETATM   15  C   UNL     1     -39.502 -45.811  12.992  1.00  0.00     0.026 A 
HETATM   16  C   UNL     1     -39.967 -45.704  11.685  1.00  0.00     0.034 A 
HETATM   17 CL   UNL     1     -39.942 -44.181  10.885  1.00  0.00    -0.084 Cl
HETATM   18  C   UNL     1     -40.445 -46.828  11.016  1.00  0.00     0.026 A 
HETATM   19  C   UNL     1     -40.461 -48.069  11.662  1.00  0.00     0.038 A 
ENDBRANCH  12  13
ENDBRANCH  11  12
ENDBRANCH  10  11
ENDBRANCH   1  10
BRANCH   5  20
HETATM   20  N   UNL     1     -43.389 -53.902  12.399  1.00  0.00    -0.287 NA
HETATM   21  H   UNL     1     -43.514 -54.793  12.882  1.00  0.00     0.128 HD
BRANCH  20  22
HETATM   22  C   UNL     1     -44.646 -53.166  12.529  1.00  0.00     0.119 C 
BRANCH  22  23
HETATM   23  C   UNL     1     -45.470 -53.897  13.540  1.00  0.00    -0.022 C 
HETATM   24  C   UNL     1     -45.408 -55.213  13.782  1.00  0.00     0.008 C 
ENDBRANCH  22  23
ENDBRANCH  20  22
ENDBRANCH   5  20
TORSDOF 7
ENDMDL
MODEL 9
REMARK VINA RESULT:      -5.4      4.005      6.587
REMARK  7 active torsions:
REMARK  status: ('A' for Active; 'I' for Inactive)
REMARK    1  A    between atoms: C_5  and  O_6 
REMARK    2  A    between atoms: O_6  and  C_7 
REMARK    3  A    between atoms: C_7  and  C_8 
REMARK    4  A    between atoms: C_8  and  N_9 
REMARK    5  A    between atoms: C_13  and  N_14 
REMARK    6  A    between atoms: N_14  and  C_15 
REMARK    7  A    between atoms: C_15  and  C_16 
ROOT
HETATM    1  N   UNL     1     -40.390 -50.792  13.372  1.00  0.00    -0.254 N 
HETATM    2  N   UNL     1     -41.225 -49.936  14.046  1.00  0.00    -0.305 N 
ATOM      3  HN  UNL     1     -40.971 -48.960  14.197  1.00  0.00     0.186 HD
HETATM    4  C   UNL     1     -42.343 -50.411  14.480  1.00  0.00     0.132 A 
HETATM    5  C   UNL     1     -42.838 -51.797  14.329  1.00  0.00     0.053 A 
HETATM    6  C   UNL     1     -42.001 -52.608  13.666  1.00  0.00     0.126 A 
HETATM    7 CL   UNL     1     -42.412 -54.271  13.399  1.00  0.00    -0.076 Cl
HETATM    8  C   UNL     1     -40.677 -52.137  13.150  1.00  0.00     0.285 A 
HETATM    9  O   UNL     1     -39.910 -52.903  12.565  1.00  0.00    -0.265 OA
ENDROOT
BRANCH   1  10
HETATM   10  C   UNL     1     -39.127 -50.237  12.875  1.00  0.00     0.179 C 
BRANCH  10  11
HETATM   11  C   UNL     1     -39.287 -49.328  11.653  1.00  0.00     0.197 C 
BRANCH  11  12
HETATM   12  O   UNL     1     -39.672 -48.013  12.064  1.00  0.00    -0.349 OA
BRANCH  12  13
HETATM   13  C   UNL     1     -40.667 -47.437  11.318  1.00  0.00     0.068 A 
HETATM   14  C   UNL     1     -41.518 -48.332  10.665  1.00  0.00     0.038 A 
HETATM   15  C   UNL     1     -42.586 -47.862   9.895  1.00  0.00     0.026 A 
HETATM   16  C   UNL     1     -42.814 -46.493   9.792  1.00  0.00     0.034 A 
HETATM   17 CL   UNL     1     -44.137 -45.910   8.860  1.00  0.00    -0.084 Cl
HETATM   18  C   UNL     1     -41.979 -45.591  10.448  1.00  0.00     0.026 A 
HETATM   19  C   UNL     1     -40.905 -46.064  11.211  1.00  0.00     0.038 A 
ENDBRANCH  12  13
ENDBRANCH  11  12
ENDBRANCH  10  11
ENDBRANCH   1  10
BRANCH   5  20
HETATM   20  N   UNL     1     -44.113 -52.054  14.837  1.00  0.00    -0.287 NA
HETATM   21  H   UNL     1     -44.028 -52.496  15.754  1.00  0.00     0.128 HD
BRANCH  20  22
HETATM   22  C   UNL     1     -45.082 -50.967  14.975  1.00  0.00     0.119 C 
BRANCH  22  23
HETATM   23  C   UNL     1     -46.336 -51.422  14.301  1.00  0.00    -0.022 C 
HETATM   24  C   UNL     1     -46.500 -51.551  12.977  1.00  0.00     0.008 C 
ENDBRANCH  22  23
ENDBRANCH  20  22
ENDBRANCH   5  20
TORSDOF 7
ENDMDL
