MODEL 1
REMARK VINA RESULT:      -5.7      0.000      0.000
REMARK  4 active torsions:
REMARK  status: ('A' for Active; 'I' for Inactive)
REMARK    1  A    between atoms: C_6  and  C_7 
REMARK    2  A    between atoms: C_7  and  C_8 
REMARK    3  A    between atoms: C_8  and  N_9 
REMARK    4  A    between atoms: N_9  and  C_10 
ROOT
HETATM    1  C   UNL     1     -42.986 -49.764  13.515  1.00  0.00     0.278 C 
ENDROOT
BRANCH   1   2
HETATM    2  C   UNL     1     -43.043 -48.281  13.129  1.00  0.00     0.117 C 
BRANCH   2   3
HETATM    3  C   UNL     1     -42.910 -48.005  11.674  1.00  0.00     0.149 A 
HETATM    4  O   UNL     1     -41.948 -48.673  10.971  1.00  0.00    -0.223 OA
HETATM    5  N   UNL     1     -42.038 -48.232   9.651  1.00  0.00    -0.248 N 
HETATM    6  C   UNL     1     -43.044 -47.352   9.692  1.00  0.00     0.100 A 
ATOM      7  HN  UNL     1     -41.474 -48.514   8.850  1.00  0.00     0.196 HD
HETATM    8  C   UNL     1     -43.509 -46.627   8.496  1.00  0.00     0.091 C 
HETATM    9  N   UNL     1     -43.621 -47.186  10.927  1.00  0.00    -0.327 N 
ATOM     10  HN  UNL     1     -44.399 -46.585  11.196  1.00  0.00     0.169 HD
ENDBRANCH   2   3
ENDBRANCH   1   2
BRANCH   1  11
HETATM   11  N   UNL     1     -43.903 -50.580  12.712  1.00  0.00     0.089 N 
HETATM   12  H   UNL     1     -43.517 -50.733  11.780  1.00  0.00     0.316 HD
BRANCH  11  13
HETATM   13  C   UNL     1     -44.239 -51.855  13.338  1.00  0.00     0.228 C 
HETATM   14  C   UNL     1     -43.753 -53.084  12.562  1.00  0.00     0.036 C 
HETATM   15  C   UNL     1     -44.748 -54.205  12.875  1.00  0.00     0.003 C 
HETATM   16  C   UNL     1     -45.796 -53.598  13.806  1.00  0.00     0.011 C 
HETATM   17  C   UNL     1     -45.762 -52.088  13.516  1.00  0.00    -0.017 C 
HETATM   18  C   UNL     1     -46.331 -51.290  14.697  1.00  0.00     0.017 C 
HETATM   19  C   UNL     1     -46.590 -51.767  12.256  1.00  0.00     0.017 C 
ENDBRANCH  11  13
ENDBRANCH   1  11
TORSDOF 4
ENDMDL
MODEL 2
REMARK VINA RESULT:      -5.6      2.405      2.899
REMARK  4 active torsions:
REMARK  status: ('A' for Active; 'I' for Inactive)
REMARK    1  A    between atoms: C_6  and  C_7 
REMARK    2  A    between atoms: C_7  and  C_8 
REMARK    3  A    between atoms: C_8  and  N_9 
REMARK    4  A    between atoms: N_9  and  C_10 
ROOT
HETATM    1  C   UNL     1     -43.254 -49.718  13.603  1.00  0.00     0.278 C 
ENDROOT
BRANCH   1   2
HETATM    2  C   UNL     1     -41.868 -50.271  13.961  1.00  0.00     0.117 C 
BRANCH   2   3
HETATM    3  C   UNL     1     -40.848 -50.152  12.887  1.00  0.00     0.149 A 
HETATM    4  O   UNL     1     -41.267 -50.162  11.587  1.00  0.00    -0.223 OA
HETATM    5  N   UNL     1     -40.125 -50.040  10.797  1.00  0.00    -0.248 N 
HETATM    6  C   UNL     1     -39.139 -49.964  11.697  1.00  0.00     0.100 A 
ATOM      7  HN  UNL     1     -40.059 -50.015   9.780  1.00  0.00     0.196 HD
HETATM    8  C   UNL     1     -37.725 -49.813  11.309  1.00  0.00     0.091 C 
HETATM    9  N   UNL     1     -39.543 -50.020  13.008  1.00  0.00    -0.327 N 
ATOM     10  HN  UNL     1     -38.978 -49.971  13.856  1.00  0.00     0.169 HD
ENDBRANCH   2   3
ENDBRANCH   1   2
BRANCH   1  11
HETATM   11  N   UNL     1     -44.004 -50.629  12.733  1.00  0.00     0.089 N 
HETATM   12  H   UNL     1     -43.496 -50.788  11.863  1.00  0.00     0.316 HD
BRANCH  11  13
HETATM   13  C   UNL     1     -44.327 -51.902  13.372  1.00  0.00     0.228 C 
HETATM   14  C   UNL     1     -43.757 -53.129  12.651  1.00  0.00     0.036 C 
HETATM   15  C   UNL     1     -44.727 -54.278  12.939  1.00  0.00     0.003 C 
HETATM   16  C   UNL     1     -45.844 -53.690  13.800  1.00  0.00     0.011 C 
HETATM   17  C   UNL     1     -45.848 -52.187  13.476  1.00  0.00    -0.017 C 
HETATM   18  C   UNL     1     -46.506 -51.383  14.606  1.00  0.00     0.017 C 
HETATM   19  C   UNL     1     -46.619 -51.924  12.167  1.00  0.00     0.017 C 
ENDBRANCH  11  13
ENDBRANCH   1  11
TORSDOF 4
ENDMDL
MODEL 3
REMARK VINA RESULT:      -5.4      2.988      4.070
REMARK  4 active torsions:
REMARK  status: ('A' for Active; 'I' for Inactive)
REMARK    1  A    between atoms: C_6  and  C_7 
REMARK    2  A    between atoms: C_7  and  C_8 
REMARK    3  A    between atoms: C_8  and  N_9 
REMARK    4  A    between atoms: N_9  and  C_10 
ROOT
HETATM    1  C   UNL     1     -42.393 -54.241  14.030  1.00  0.00     0.278 C 
ENDROOT
BRANCH   1   2
HETATM    2  C   UNL     1     -41.128 -54.187  13.165  1.00  0.00     0.117 C 
BRANCH   2   3
HETATM    3  C   UNL     1     -40.779 -52.837  12.648  1.00  0.00     0.149 A 
HETATM    4  O   UNL     1     -41.516 -52.325  11.618  1.00  0.00    -0.223 OA
HETATM    5  N   UNL     1     -40.984 -51.068  11.333  1.00  0.00    -0.248 N 
HETATM    6  C   UNL     1     -39.989 -50.949  12.219  1.00  0.00     0.100 A 
ATOM      7  HN  UNL     1     -41.282 -50.401  10.621  1.00  0.00     0.196 HD
HETATM    8  C   UNL     1     -39.137 -49.749  12.294  1.00  0.00     0.091 C 
HETATM    9  N   UNL     1     -39.832 -52.021  13.062  1.00  0.00    -0.327 N 
ATOM     10  HN  UNL     1     -39.155 -52.152  13.814  1.00  0.00     0.169 HD
ENDBRANCH   2   3
ENDBRANCH   1   2
BRANCH   1  11
HETATM   11  N   UNL     1     -42.902 -52.904  14.351  1.00  0.00     0.089 N 
HETATM   12  H   UNL     1     -42.397 -52.196  13.819  1.00  0.00     0.316 HD
BRANCH  11  13
HETATM   13  C   UNL     1     -44.341 -52.769  14.141  1.00  0.00     0.228 C 
HETATM   14  C   UNL     1     -44.826 -53.277  12.779  1.00  0.00     0.036 C 
HETATM   15  C   UNL     1     -46.059 -52.438  12.429  1.00  0.00     0.003 C 
HETATM   16  C   UNL     1     -46.248 -51.454  13.582  1.00  0.00     0.011 C 
HETATM   17  C   UNL     1     -44.854 -51.308  14.215  1.00  0.00    -0.017 C 
HETATM   18  C   UNL     1     -44.958 -50.808  15.662  1.00  0.00     0.017 C 
HETATM   19  C   UNL     1     -44.002 -50.310  13.406  1.00  0.00     0.017 C 
ENDBRANCH  11  13
ENDBRANCH   1  11
TORSDOF 4
ENDMDL
MODEL 4
REMARK VINA RESULT:      -5.4      1.194      1.326
REMARK  4 active torsions:
REMARK  status: ('A' for Active; 'I' for Inactive)
REMARK    1  A    between atoms: C_6  and  C_7 
REMARK    2  A    between atoms: C_7  and  C_8 
REMARK    3  A    between atoms: C_8  and  N_9 
REMARK    4  A    between atoms: N_9  and  C_10 
ROOT
HETATM    1  C   UNL     1     -42.460 -50.736  13.176  1.00  0.00     0.278 C 
ENDROOT
BRANCH   1   2
HETATM    2  C   UNL     1     -41.436 -50.522  12.054  1.00  0.00     0.117 C 
BRANCH   2   3
HETATM    3  C   UNL     1     -41.533 -49.212  11.358  1.00  0.00     0.149 A 
HETATM    4  O   UNL     1     -40.413 -48.435  11.274  1.00  0.00    -0.223 OA
HETATM    5  N   UNL     1     -40.778 -47.280  10.584  1.00  0.00    -0.248 N 
HETATM    6  C   UNL     1     -42.073 -47.479  10.319  1.00  0.00     0.100 A 
ATOM      7  HN  UNL     1     -40.197 -46.478  10.340  1.00  0.00     0.196 HD
HETATM    8  C   UNL     1     -42.888 -46.500   9.580  1.00  0.00     0.091 C 
HETATM    9  N   UNL     1     -42.582 -48.671  10.774  1.00  0.00    -0.327 N 
ATOM     10  HN  UNL     1     -43.528 -49.041  10.682  1.00  0.00     0.169 HD
ENDBRANCH   2   3
ENDBRANCH   1   2
BRANCH   1  11
HETATM   11  N   UNL     1     -43.730 -51.267  12.672  1.00  0.00     0.089 N 
HETATM   12  H   UNL     1     -43.629 -51.568  11.702  1.00  0.00     0.316 HD
BRANCH  11  13
HETATM   13  C   UNL     1     -44.266 -52.353  13.488  1.00  0.00     0.228 C 
HETATM   14  C   UNL     1     -43.935 -53.754  12.963  1.00  0.00     0.036 C 
HETATM   15  C   UNL     1     -45.091 -54.656  13.406  1.00  0.00     0.003 C 
HETATM   16  C   UNL     1     -46.071 -53.757  14.157  1.00  0.00     0.011 C 
HETATM   17  C   UNL     1     -45.812 -52.342  13.615  1.00  0.00    -0.017 C 
HETATM   18  C   UNL     1     -46.299 -51.277  14.606  1.00  0.00     0.017 C 
HETATM   19  C   UNL     1     -46.543 -52.142  12.272  1.00  0.00     0.017 C 
ENDBRANCH  11  13
ENDBRANCH   1  11
TORSDOF 4
ENDMDL
MODEL 5
REMARK VINA RESULT:      -5.4      4.308      5.763
REMARK  4 active torsions:
REMARK  status: ('A' for Active; 'I' for Inactive)
REMARK    1  A    between atoms: C_6  and  C_7 
REMARK    2  A    between atoms: C_7  and  C_8 
REMARK    3  A    between atoms: C_8  and  N_9 
REMARK    4  A    between atoms: N_9  and  C_10 
ROOT
HETATM    1  C   UNL     1     -41.876 -48.509  10.914  1.00  0.00     0.278 C 
ENDROOT
BRANCH   1   2
HETATM    2  C   UNL     1     -42.173 -47.160  10.246  1.00  0.00     0.117 C 
BRANCH   2   3
HETATM    3  C   UNL     1     -43.569 -46.992   9.766  1.00  0.00     0.149 A 
HETATM    4  O   UNL     1     -43.917 -45.809   9.179  1.00  0.00    -0.223 OA
HETATM    5  N   UNL     1     -45.262 -45.916   8.829  1.00  0.00    -0.248 N 
HETATM    6  C   UNL     1     -45.585 -47.149   9.234  1.00  0.00     0.100 A 
ATOM      7  HN  UNL     1     -45.855 -45.222   8.374  1.00  0.00     0.196 HD
HETATM    8  C   UNL     1     -46.935 -47.711   9.054  1.00  0.00     0.091 C 
HETATM    9  N   UNL     1     -44.561 -47.857   9.813  1.00  0.00    -0.327 N 
ATOM     10  HN  UNL     1     -44.568 -48.807  10.184  1.00  0.00     0.169 HD
ENDBRANCH   2   3
ENDBRANCH   1   2
BRANCH   1  11
HETATM   11  N   UNL     1     -40.437 -48.773  11.012  1.00  0.00     0.089 N 
HETATM   12  H   UNL     1     -39.915 -48.109  10.439  1.00  0.00     0.316 HD
BRANCH  11  13
HETATM   13  C   UNL     1     -39.940 -48.762  12.384  1.00  0.00     0.228 C 
HETATM   14  C   UNL     1     -39.395 -47.405  12.843  1.00  0.00     0.036 C 
HETATM   15  C   UNL     1     -38.312 -47.712  13.882  1.00  0.00     0.003 C 
HETATM   16  C   UNL     1     -38.240 -49.234  13.986  1.00  0.00     0.011 C 
HETATM   17  C   UNL     1     -38.775 -49.754  12.642  1.00  0.00    -0.017 C 
HETATM   18  C   UNL     1     -39.271 -51.200  12.770  1.00  0.00     0.017 C 
HETATM   19  C   UNL     1     -37.669 -49.702  11.570  1.00  0.00     0.017 C 
ENDBRANCH  11  13
ENDBRANCH   1  11
TORSDOF 4
ENDMDL
MODEL 6
REMARK VINA RESULT:      -5.3      1.107      2.131
REMARK  4 active torsions:
REMARK  status: ('A' for Active; 'I' for Inactive)
REMARK    1  A    between atoms: C_6  and  C_7 
REMARK    2  A    between atoms: C_7  and  C_8 
REMARK    3  A    between atoms: C_8  and  N_9 
REMARK    4  A    between atoms: N_9  and  C_10 
ROOT
HETATM    1  C   UNL     1     -42.305 -50.948  13.218  1.00  0.00     0.278 C 
ENDROOT
BRANCH   1   2
HETATM    2  C   UNL     1     -41.525 -49.700  12.786  1.00  0.00     0.117 C 
BRANCH   2   3
HETATM    3  C   UNL     1     -42.244 -48.806  11.841  1.00  0.00     0.149 A 
HETATM    4  O   UNL     1     -43.107 -47.879  12.352  1.00  0.00    -0.223 OA
HETATM    5  N   UNL     1     -43.639 -47.186  11.265  1.00  0.00    -0.248 N 
HETATM    6  C   UNL     1     -43.040 -47.759  10.215  1.00  0.00     0.100 A 
ATOM      7  HN  UNL     1     -44.319 -46.426  11.270  1.00  0.00     0.196 HD
HETATM    8  C   UNL     1     -43.296 -47.331   8.829  1.00  0.00     0.091 C 
HETATM    9  N   UNL     1     -42.158 -48.764  10.527  1.00  0.00    -0.327 N 
ATOM     10  HN  UNL     1     -41.585 -49.332   9.903  1.00  0.00     0.169 HD
ENDBRANCH   2   3
ENDBRANCH   1   2
BRANCH   1  11
HETATM   11  N   UNL     1     -43.599 -51.055  12.536  1.00  0.00     0.089 N 
HETATM   12  H   UNL     1     -43.695 -51.972  12.100  1.00  0.00     0.316 HD
BRANCH  11  13
HETATM   13  C   UNL     1     -44.736 -50.785  13.410  1.00  0.00     0.228 C 
HETATM   14  C   UNL     1     -44.380 -50.720  14.900  1.00  0.00     0.036 C 
HETATM   15  C   UNL     1     -45.632 -51.178  15.655  1.00  0.00     0.003 C 
HETATM   16  C   UNL     1     -46.673 -51.517  14.590  1.00  0.00     0.011 C 
HETATM   17  C   UNL     1     -45.861 -51.850  13.328  1.00  0.00    -0.017 C 
HETATM   18  C   UNL     1     -46.717 -51.684  12.065  1.00  0.00     0.017 C 
HETATM   19  C   UNL     1     -45.346 -53.302  13.391  1.00  0.00     0.017 C 
ENDBRANCH  11  13
ENDBRANCH   1  11
TORSDOF 4
ENDMDL
MODEL 7
REMARK VINA RESULT:      -5.2      3.975      5.334
REMARK  4 active torsions:
REMARK  status: ('A' for Active; 'I' for Inactive)
REMARK    1  A    between atoms: C_6  and  C_7 
REMARK    2  A    between atoms: C_7  and  C_8 
REMARK    3  A    between atoms: C_8  and  N_9 
REMARK    4  A    between atoms: N_9  and  C_10 
ROOT
HETATM    1  C   UNL     1     -40.707 -46.954  11.859  1.00  0.00     0.278 C 
ENDROOT
BRANCH   1   2
HETATM    2  C   UNL     1     -41.418 -46.022  10.871  1.00  0.00     0.117 C 
BRANCH   2   3
HETATM    3  C   UNL     1     -42.604 -46.611  10.194  1.00  0.00     0.149 A 
HETATM    4  O   UNL     1     -42.459 -47.808   9.554  1.00  0.00    -0.223 OA
HETATM    5  N   UNL     1     -43.704 -48.125   9.013  1.00  0.00    -0.248 N 
HETATM    6  C   UNL     1     -44.471 -47.094   9.386  1.00  0.00     0.100 A 
ATOM      7  HN  UNL     1     -43.967 -48.945   8.466  1.00  0.00     0.196 HD
HETATM    8  C   UNL     1     -45.900 -47.005   9.038  1.00  0.00     0.091 C 
HETATM    9  N   UNL     1     -43.830 -46.134  10.129  1.00  0.00    -0.327 N 
ATOM     10  HN  UNL     1     -44.206 -45.274  10.528  1.00  0.00     0.169 HD
ENDBRANCH   2   3
ENDBRANCH   1   2
BRANCH   1  11
HETATM   11  N   UNL     1     -39.676 -47.768  11.209  1.00  0.00     0.089 N 
HETATM   12  H   UNL     1     -38.748 -47.398  11.417  1.00  0.00     0.316 HD
BRANCH  11  13
HETATM   13  C   UNL     1     -39.749 -49.183  11.561  1.00  0.00     0.228 C 
HETATM   14  C   UNL     1     -40.855 -49.522  12.567  1.00  0.00     0.036 C 
HETATM   15  C   UNL     1     -40.355 -50.738  13.353  1.00  0.00     0.003 C 
HETATM   16  C   UNL     1     -38.968 -51.062  12.802  1.00  0.00     0.011 C 
HETATM   17  C   UNL     1     -38.454 -49.740  12.209  1.00  0.00    -0.017 C 
HETATM   18  C   UNL     1     -37.357 -49.995  11.167  1.00  0.00     0.017 C 
HETATM   19  C   UNL     1     -37.882 -48.841  13.322  1.00  0.00     0.017 C 
ENDBRANCH  11  13
ENDBRANCH   1  11
TORSDOF 4
ENDMDL
MODEL 8
REMARK VINA RESULT:      -5.1      3.326      3.925
REMARK  4 active torsions:
REMARK  status: ('A' for Active; 'I' for Inactive)
REMARK    1  A    between atoms: C_6  and  C_7 
REMARK    2  A    between atoms: C_7  and  C_8 
REMARK    3  A    between atoms: C_8  and  N_9 
REMARK    4  A    between atoms: N_9  and  C_10 
ROOT
HETATM    1  C   UNL     1     -42.146 -54.024  14.115  1.00  0.00     0.278 C 
ENDROOT
BRANCH   1   2
HETATM    2  C   UNL     1     -40.983 -53.988  13.115  1.00  0.00     0.117 C 
BRANCH   2   3
HETATM    3  C   UNL     1     -40.665 -52.641  12.571  1.00  0.00     0.149 A 
HETATM    4  O   UNL     1     -41.401 -52.174  11.520  1.00  0.00    -0.223 OA
HETATM    5  N   UNL     1     -40.900 -50.909  11.212  1.00  0.00    -0.248 N 
HETATM    6  C   UNL     1     -39.921 -50.743  12.109  1.00  0.00     0.100 A 
ATOM      7  HN  UNL     1     -41.206 -50.268  10.481  1.00  0.00     0.196 HD
HETATM    8  C   UNL     1     -39.104 -49.518  12.168  1.00  0.00     0.091 C 
HETATM    9  N   UNL     1     -39.746 -51.790  12.979  1.00  0.00    -0.327 N 
ATOM     10  HN  UNL     1     -39.078 -51.884  13.743  1.00  0.00     0.169 HD
ENDBRANCH   2   3
ENDBRANCH   1   2
BRANCH   1  11
HETATM   11  N   UNL     1     -43.290 -53.226  13.663  1.00  0.00     0.089 N 
HETATM   12  H   UNL     1     -43.464 -53.387  12.671  1.00  0.00     0.316 HD
BRANCH  11  13
HETATM   13  C   UNL     1     -44.503 -53.466  14.438  1.00  0.00     0.228 C 
HETATM   14  C   UNL     1     -45.062 -54.887  14.305  1.00  0.00     0.036 C 
HETATM   15  C   UNL     1     -46.576 -54.767  14.501  1.00  0.00     0.003 C 
HETATM   16  C   UNL     1     -46.862 -53.283  14.722  1.00  0.00     0.011 C 
HETATM   17  C   UNL     1     -45.691 -52.546  14.052  1.00  0.00    -0.017 C 
HETATM   18  C   UNL     1     -45.531 -51.132  14.627  1.00  0.00     0.017 C 
HETATM   19  C   UNL     1     -45.924 -52.440  12.532  1.00  0.00     0.017 C 
ENDBRANCH  11  13
ENDBRANCH   1  11
TORSDOF 4
ENDMDL
MODEL 9
REMARK VINA RESULT:      -5.1      3.307      4.060
REMARK  4 active torsions:
REMARK  status: ('A' for Active; 'I' for Inactive)
REMARK    1  A    between atoms: C_6  and  C_7 
REMARK    2  A    between atoms: C_7  and  C_8 
REMARK    3  A    between atoms: C_8  and  N_9 
REMARK    4  A    between atoms: N_9  and  C_10 
ROOT
HETATM    1  C   UNL     1     -42.786 -53.382  13.987  1.00  0.00     0.278 C 
ENDROOT
BRANCH   1   2
HETATM    2  C   UNL     1     -41.429 -53.636  13.319  1.00  0.00     0.117 C 
BRANCH   2   3
HETATM    3  C   UNL     1     -40.803 -52.442  12.694  1.00  0.00     0.149 A 
HETATM    4  O   UNL     1     -41.359 -51.938  11.553  1.00  0.00    -0.223 OA
HETATM    5  N   UNL     1     -40.587 -50.837  11.183  1.00  0.00    -0.248 N 
HETATM    6  C   UNL     1     -39.652 -50.787  12.138  1.00  0.00     0.100 A 
ATOM      7  HN  UNL     1     -40.707 -50.220  10.380  1.00  0.00     0.196 HD
HETATM    8  C   UNL     1     -38.602 -49.754  12.162  1.00  0.00     0.091 C 
HETATM    9  N   UNL     1     -39.753 -51.759  13.102  1.00  0.00    -0.327 N 
ATOM     10  HN  UNL     1     -39.167 -51.913  13.923  1.00  0.00     0.169 HD
ENDBRANCH   2   3
ENDBRANCH   1   2
BRANCH   1  11
HETATM   11  N   UNL     1     -43.769 -52.829  13.050  1.00  0.00     0.089 N 
HETATM   12  H   UNL     1     -44.319 -53.579  12.630  1.00  0.00     0.316 HD
BRANCH  11  13
HETATM   13  C   UNL     1     -44.648 -51.833  13.656  1.00  0.00     0.228 C 
HETATM   14  C   UNL     1     -44.378 -51.581  15.144  1.00  0.00     0.036 C 
HETATM   15  C   UNL     1     -45.720 -51.169  15.755  1.00  0.00     0.003 C 
HETATM   16  C   UNL     1     -46.738 -51.211  14.616  1.00  0.00     0.011 C 
HETATM   17  C   UNL     1     -46.154 -52.199  13.593  1.00  0.00    -0.017 C 
HETATM   18  C   UNL     1     -46.745 -51.958  12.198  1.00  0.00     0.017 C 
HETATM   19  C   UNL     1     -46.458 -53.650  14.017  1.00  0.00     0.017 C 
ENDBRANCH  11  13
ENDBRANCH   1  11
TORSDOF 4
ENDMDL
