MODEL 1
REMARK VINA RESULT:      -6.4      0.000      0.000
REMARK  4 active torsions:
REMARK  status: ('A' for Active; 'I' for Inactive)
REMARK    1  A    between atoms: C_2  and  N_3 
REMARK    2  A    between atoms: C_2  and  C_21 
REMARK       I    between atoms: N_3  and  C_4 
REMARK       I    between atoms: C_4  and  N_6 
REMARK    3  A    between atoms: N_6  and  C_7 
REMARK    4  A    between atoms: C_10  and  N_15 
ROOT
HETATM    1  C   UNL     1     -41.916 -47.867  11.124  1.00  0.00     0.058 A 
HETATM    2  C   UNL     1     -40.765 -47.172  11.478  1.00  0.00     0.035 A 
HETATM    3  C   UNL     1     -40.733 -45.780  11.473  1.00  0.00     0.051 A 
HETATM    4  C   UNL     1     -41.862 -45.055  11.132  1.00  0.00     0.103 A 
HETATM    5  N   UNL     1     -43.001 -45.704  10.807  1.00  0.00    -0.344 N 
ATOM      6  HN  UNL     1     -43.843 -45.176  10.578  1.00  0.00     0.167 HD
HETATM    7  C   UNL     1     -43.023 -47.074  10.784  1.00  0.00     0.034 A 
HETATM    8  C   UNL     1     -44.330 -47.667  10.345  1.00  0.00     0.070 C 
ENDROOT
BRANCH   1   9
HETATM    9  N   UNL     1     -41.964 -49.290  11.109  1.00  0.00    -0.307 N 
HETATM   10  C   UNL     1     -41.913 -50.105  12.222  1.00  0.00     0.321 C 
HETATM   11  N   UNL     1     -41.927 -51.451  11.914  1.00  0.00    -0.338 N 
HETATM   12  O   UNL     1     -41.820 -49.735  13.387  1.00  0.00    -0.247 OA
HETATM   13  H   UNL     1     -42.421 -51.734  11.082  1.00  0.00     0.164 HD
HETATM   14  H   UNL     1     -41.942 -49.751  10.213  1.00  0.00     0.170 HD
BRANCH  11  15
HETATM   15  C   UNL     1     -41.808 -52.420  13.005  1.00  0.00     0.086 C 
HETATM   16  C   UNL     1     -40.888 -53.565  12.612  1.00  0.00     0.032 C 
BRANCH  15  17
HETATM   17  C   UNL     1     -43.224 -52.853  13.400  1.00  0.00     0.008 C 
HETATM   18  C   UNL     1     -43.365 -54.259  14.048  1.00  0.00     0.007 C 
HETATM   19  C   UNL     1     -44.711 -54.411  13.318  1.00  0.00     0.001 C 
HETATM   20  C   UNL     1     -44.253 -53.318  12.333  1.00  0.00     0.007 C 
ENDBRANCH  15  17
ENDBRANCH  11  15
ENDBRANCH   1   9
BRANCH   4  21
HETATM   21  N   UNL     1     -41.838 -43.683  11.126  1.00  0.00    -0.363 N 
HETATM   22  C   UNL     1     -40.577 -42.953  11.252  1.00  0.00     0.150 C 
HETATM   23  C   UNL     1     -40.690 -41.905  12.366  1.00  0.00     0.187 C 
HETATM   24  O   UNL     1     -41.825 -41.041  12.171  1.00  0.00    -0.388 OA
HETATM   25  C   UNL     1     -43.036 -41.814  12.167  1.00  0.00     0.187 C 
HETATM   26  C   UNL     1     -43.042 -42.856  11.037  1.00  0.00     0.150 C 
ENDBRANCH   4  21
TORSDOF 4
ENDMDL
MODEL 2
REMARK VINA RESULT:      -6.2      1.188      1.917
REMARK  4 active torsions:
REMARK  status: ('A' for Active; 'I' for Inactive)
REMARK    1  A    between atoms: C_2  and  N_3 
REMARK    2  A    between atoms: C_2  and  C_21 
REMARK       I    between atoms: N_3  and  C_4 
REMARK       I    between atoms: C_4  and  N_6 
REMARK    3  A    between atoms: N_6  and  C_7 
REMARK    4  A    between atoms: C_10  and  N_15 
ROOT
HETATM    1  C   UNL     1     -41.616 -48.819  11.373  1.00  0.00     0.058 A 
HETATM    2  C   UNL     1     -42.768 -48.086  11.112  1.00  0.00     0.035 A 
HETATM    3  C   UNL     1     -42.735 -46.697  11.026  1.00  0.00     0.051 A 
HETATM    4  C   UNL     1     -41.542 -46.014  11.179  1.00  0.00     0.103 A 
HETATM    5  N   UNL     1     -40.402 -46.703  11.410  1.00  0.00    -0.344 N 
ATOM      6  HN  UNL     1     -39.515 -46.207  11.500  1.00  0.00     0.167 HD
HETATM    7  C   UNL     1     -40.441 -48.068  11.524  1.00  0.00     0.034 A 
HETATM    8  C   UNL     1     -39.118 -48.702  11.844  1.00  0.00     0.070 C 
ENDROOT
BRANCH   1   9
HETATM    9  N   UNL     1     -41.632 -50.239  11.479  1.00  0.00    -0.307 N 
HETATM   10  C   UNL     1     -41.902 -50.953  12.628  1.00  0.00     0.321 C 
HETATM   11  N   UNL     1     -41.800 -52.320  12.459  1.00  0.00    -0.338 N 
HETATM   12  O   UNL     1     -42.169 -50.482  13.728  1.00  0.00    -0.247 OA
HETATM   13  H   UNL     1     -42.017 -52.694  11.548  1.00  0.00     0.164 HD
HETATM   14  H   UNL     1     -41.334 -50.773  10.677  1.00  0.00     0.170 HD
BRANCH  11  15
HETATM   15  C   UNL     1     -41.996 -53.186  13.623  1.00  0.00     0.086 C 
HETATM   16  C   UNL     1     -40.692 -53.860  14.020  1.00  0.00     0.032 C 
BRANCH  15  17
HETATM   17  C   UNL     1     -43.135 -54.158  13.293  1.00  0.00     0.008 C 
HETATM   18  C   UNL     1     -44.470 -53.525  12.809  1.00  0.00     0.007 C 
HETATM   19  C   UNL     1     -45.218 -54.637  13.564  1.00  0.00     0.001 C 
HETATM   20  C   UNL     1     -43.952 -54.855  14.415  1.00  0.00     0.007 C 
ENDBRANCH  15  17
ENDBRANCH  11  15
ENDBRANCH   1   9
BRANCH   4  21
HETATM   21  N   UNL     1     -41.501 -44.645  11.095  1.00  0.00    -0.363 N 
HETATM   22  C   UNL     1     -40.225 -43.934  11.043  1.00  0.00     0.150 C 
HETATM   23  C   UNL     1     -40.200 -42.826  12.104  1.00  0.00     0.187 C 
HETATM   24  O   UNL     1     -41.339 -41.953  11.988  1.00  0.00    -0.388 OA
HETATM   25  C   UNL     1     -42.553 -42.702  12.159  1.00  0.00     0.187 C 
HETATM   26  C   UNL     1     -42.697 -43.802  11.095  1.00  0.00     0.150 C 
ENDBRANCH   4  21
TORSDOF 4
ENDMDL
MODEL 3
REMARK VINA RESULT:      -6.2      2.820      9.070
REMARK  4 active torsions:
REMARK  status: ('A' for Active; 'I' for Inactive)
REMARK    1  A    between atoms: C_2  and  N_3 
REMARK    2  A    between atoms: C_2  and  C_21 
REMARK       I    between atoms: N_3  and  C_4 
REMARK       I    between atoms: C_4  and  N_6 
REMARK    3  A    between atoms: N_6  and  C_7 
REMARK    4  A    between atoms: C_10  and  N_15 
ROOT
HETATM    1  C   UNL     1     -40.624 -51.253  11.952  1.00  0.00     0.058 A 
HETATM    2  C   UNL     1     -41.442 -52.377  11.922  1.00  0.00     0.035 A 
HETATM    3  C   UNL     1     -41.276 -53.413  12.836  1.00  0.00     0.051 A 
HETATM    4  C   UNL     1     -40.300 -53.335  13.814  1.00  0.00     0.103 A 
HETATM    5  N   UNL     1     -39.506 -52.244  13.881  1.00  0.00    -0.344 N 
ATOM      6  HN  UNL     1     -38.800 -52.169  14.614  1.00  0.00     0.167 HD
HETATM    7  C   UNL     1     -39.650 -51.237  12.962  1.00  0.00     0.034 A 
HETATM    8  C   UNL     1     -38.665 -50.114  13.111  1.00  0.00     0.070 C 
ENDROOT
BRANCH   1   9
HETATM    9  N   UNL     1     -40.768 -50.189  11.016  1.00  0.00    -0.307 N 
HETATM   10  C   UNL     1     -41.680 -49.158  11.109  1.00  0.00     0.321 C 
HETATM   11  N   UNL     1     -41.636 -48.290  10.036  1.00  0.00    -0.338 N 
HETATM   12  O   UNL     1     -42.501 -48.996  12.005  1.00  0.00    -0.247 OA
HETATM   13  H   UNL     1     -40.747 -48.162   9.577  1.00  0.00     0.164 HD
HETATM   14  H   UNL     1     -40.226 -50.234  10.167  1.00  0.00     0.170 HD
BRANCH  11  15
HETATM   15  C   UNL     1     -42.602 -47.191   9.983  1.00  0.00     0.086 C 
HETATM   16  C   UNL     1     -43.353 -47.196   8.661  1.00  0.00     0.032 C 
BRANCH  15  17
HETATM   17  C   UNL     1     -41.845 -45.891  10.276  1.00  0.00     0.008 C 
HETATM   18  C   UNL     1     -40.329 -46.026  10.591  1.00  0.00     0.007 C 
HETATM   19  C   UNL     1     -40.480 -44.869  11.594  1.00  0.00     0.001 C 
HETATM   20  C   UNL     1     -41.992 -45.160  11.639  1.00  0.00     0.007 C 
ENDBRANCH  15  17
ENDBRANCH  11  15
ENDBRANCH   1   9
BRANCH   4  21
HETATM   21  N   UNL     1     -40.131 -54.352  14.719  1.00  0.00    -0.363 N 
HETATM   22  C   UNL     1     -41.226 -54.764  15.598  1.00  0.00     0.150 C 
HETATM   23  C   UNL     1     -40.744 -54.793  17.054  1.00  0.00     0.187 C 
HETATM   24  O   UNL     1     -39.561 -55.599  17.208  1.00  0.00    -0.388 OA
HETATM   25  C   UNL     1     -38.496 -55.071  16.400  1.00  0.00     0.187 C 
HETATM   26  C   UNL     1     -38.865 -55.062  14.908  1.00  0.00     0.150 C 
ENDBRANCH   4  21
TORSDOF 4
ENDMDL
MODEL 4
REMARK VINA RESULT:      -5.9      2.345      8.705
REMARK  4 active torsions:
REMARK  status: ('A' for Active; 'I' for Inactive)
REMARK    1  A    between atoms: C_2  and  N_3 
REMARK    2  A    between atoms: C_2  and  C_21 
REMARK       I    between atoms: N_3  and  C_4 
REMARK       I    between atoms: C_4  and  N_6 
REMARK    3  A    between atoms: N_6  and  C_7 
REMARK    4  A    between atoms: C_10  and  N_15 
ROOT
HETATM    1  C   UNL     1     -41.061 -49.614  12.421  1.00  0.00     0.058 A 
HETATM    2  C   UNL     1     -40.599 -50.760  11.783  1.00  0.00     0.035 A 
HETATM    3  C   UNL     1     -41.209 -51.994  11.988  1.00  0.00     0.051 A 
HETATM    4  C   UNL     1     -42.310 -52.102  12.820  1.00  0.00     0.103 A 
HETATM    5  N   UNL     1     -42.793 -51.000  13.435  1.00  0.00    -0.344 N 
ATOM      6  HN  UNL     1     -43.618 -51.068  14.031  1.00  0.00     0.167 HD
HETATM    7  C   UNL     1     -42.174 -49.791  13.256  1.00  0.00     0.034 A 
HETATM    8  C   UNL     1     -42.774 -48.663  14.044  1.00  0.00     0.070 C 
ENDROOT
BRANCH   1   9
HETATM    9  N   UNL     1     -40.440 -48.345  12.235  1.00  0.00    -0.307 N 
HETATM   10  C   UNL     1     -40.834 -47.386  11.325  1.00  0.00     0.321 C 
HETATM   11  N   UNL     1     -40.023 -46.268  11.323  1.00  0.00    -0.338 N 
HETATM   12  O   UNL     1     -41.772 -47.474  10.540  1.00  0.00    -0.247 OA
HETATM   13  H   UNL     1     -39.580 -46.013  12.192  1.00  0.00     0.164 HD
HETATM   14  H   UNL     1     -39.589 -48.161  12.743  1.00  0.00     0.170 HD
BRANCH  11  15
HETATM   15  C   UNL     1     -40.296 -45.207  10.352  1.00  0.00     0.086 C 
HETATM   16  C   UNL     1     -39.057 -44.901   9.525  1.00  0.00     0.032 C 
BRANCH  15  17
HETATM   17  C   UNL     1     -40.856 -44.005  11.121  1.00  0.00     0.008 C 
HETATM   18  C   UNL     1     -40.498 -43.919  12.631  1.00  0.00     0.007 C 
HETATM   19  C   UNL     1     -41.897 -43.332  12.883  1.00  0.00     0.001 C 
HETATM   20  C   UNL     1     -42.349 -43.941  11.542  1.00  0.00     0.007 C 
ENDBRANCH  15  17
ENDBRANCH  11  15
ENDBRANCH   1   9
BRANCH   4  21
HETATM   21  N   UNL     1     -42.917 -53.315  13.026  1.00  0.00    -0.363 N 
HETATM   22  C   UNL     1     -44.248 -53.589  12.486  1.00  0.00     0.150 C 
HETATM   23  C   UNL     1     -45.163 -54.119  13.597  1.00  0.00     0.187 C 
HETATM   24  O   UNL     1     -44.582 -55.251  14.270  1.00  0.00    -0.388 OA
HETATM   25  C   UNL     1     -43.331 -54.879  14.870  1.00  0.00     0.187 C 
HETATM   26  C   UNL     1     -42.320 -54.391  13.819  1.00  0.00     0.150 C 
ENDBRANCH   4  21
TORSDOF 4
ENDMDL
MODEL 5
REMARK VINA RESULT:      -5.8      2.141      3.386
REMARK  4 active torsions:
REMARK  status: ('A' for Active; 'I' for Inactive)
REMARK    1  A    between atoms: C_2  and  N_3 
REMARK    2  A    between atoms: C_2  and  C_21 
REMARK       I    between atoms: N_3  and  C_4 
REMARK       I    between atoms: C_4  and  N_6 
REMARK    3  A    between atoms: N_6  and  C_7 
REMARK    4  A    between atoms: C_10  and  N_15 
ROOT
HETATM    1  C   UNL     1     -40.554 -49.679  11.339  1.00  0.00     0.058 A 
HETATM    2  C   UNL     1     -41.564 -48.738  11.174  1.00  0.00     0.035 A 
HETATM    3  C   UNL     1     -41.300 -47.375  11.263  1.00  0.00     0.051 A 
HETATM    4  C   UNL     1     -40.013 -46.924  11.498  1.00  0.00     0.103 A 
HETATM    5  N   UNL     1     -39.008 -47.816  11.640  1.00  0.00    -0.344 N 
ATOM      6  HN  UNL     1     -38.053 -47.491  11.789  1.00  0.00     0.167 HD
HETATM    7  C   UNL     1     -39.274 -49.159  11.582  1.00  0.00     0.034 A 
HETATM    8  C   UNL     1     -38.081 -50.039  11.817  1.00  0.00     0.070 C 
ENDROOT
BRANCH   1   9
HETATM    9  N   UNL     1     -40.807 -51.079  11.267  1.00  0.00    -0.307 N 
HETATM   10  C   UNL     1     -41.187 -51.880  12.325  1.00  0.00     0.321 C 
HETATM   11  N   UNL     1     -41.316 -53.212  11.983  1.00  0.00    -0.338 N 
HETATM   12  O   UNL     1     -41.365 -51.515  13.482  1.00  0.00    -0.247 OA
HETATM   13  H   UNL     1     -41.598 -53.425  11.039  1.00  0.00     0.164 HD
HETATM   14  H   UNL     1     -40.608 -51.548  10.397  1.00  0.00     0.170 HD
BRANCH  11  15
HETATM   15  C   UNL     1     -41.648 -54.175  13.034  1.00  0.00     0.086 C 
HETATM   16  C   UNL     1     -43.100 -54.029  13.461  1.00  0.00     0.032 C 
BRANCH  15  17
HETATM   17  C   UNL     1     -40.633 -53.994  14.168  1.00  0.00     0.008 C 
HETATM   18  C   UNL     1     -39.244 -54.663  13.971  1.00  0.00     0.007 C 
HETATM   19  C   UNL     1     -39.221 -54.956  15.481  1.00  0.00     0.001 C 
HETATM   20  C   UNL     1     -40.753 -54.794  15.494  1.00  0.00     0.007 C 
ENDBRANCH  15  17
ENDBRANCH  11  15
ENDBRANCH   1   9
BRANCH   4  21
HETATM   21  N   UNL     1     -39.745 -45.581  11.586  1.00  0.00    -0.363 N 
HETATM   22  C   UNL     1     -39.255 -44.994  12.832  1.00  0.00     0.150 C 
HETATM   23  C   UNL     1     -40.116 -43.783  13.213  1.00  0.00     0.187 C 
HETATM   24  O   UNL     1     -40.204 -42.832  12.135  1.00  0.00    -0.388 OA
HETATM   25  C   UNL     1     -40.795 -43.449  10.981  1.00  0.00     0.187 C 
HETATM   26  C   UNL     1     -39.962 -44.642  10.484  1.00  0.00     0.150 C 
ENDBRANCH   4  21
TORSDOF 4
ENDMDL
MODEL 6
REMARK VINA RESULT:      -5.7      2.291      9.079
REMARK  4 active torsions:
REMARK  status: ('A' for Active; 'I' for Inactive)
REMARK    1  A    between atoms: C_2  and  N_3 
REMARK    2  A    between atoms: C_2  and  C_21 
REMARK       I    between atoms: N_3  and  C_4 
REMARK       I    between atoms: C_4  and  N_6 
REMARK    3  A    between atoms: N_6  and  C_7 
REMARK    4  A    between atoms: C_10  and  N_15 
ROOT
HETATM    1  C   UNL     1     -42.089 -46.082  10.910  1.00  0.00     0.058 A 
HETATM    2  C   UNL     1     -42.830 -47.172  11.353  1.00  0.00     0.035 A 
HETATM    3  C   UNL     1     -42.230 -48.408  11.576  1.00  0.00     0.051 A 
HETATM    4  C   UNL     1     -40.870 -48.573  11.379  1.00  0.00     0.103 A 
HETATM    5  N   UNL     1     -40.122 -47.524  10.970  1.00  0.00    -0.344 N 
ATOM      6  HN  UNL     1     -39.115 -47.632  10.846  1.00  0.00     0.167 HD
HETATM    7  C   UNL     1     -40.719 -46.315  10.723  1.00  0.00     0.034 A 
HETATM    8  C   UNL     1     -39.785 -45.255  10.214  1.00  0.00     0.070 C 
ENDROOT
BRANCH   1   9
HETATM    9  N   UNL     1     -42.688 -44.813  10.662  1.00  0.00    -0.307 N 
HETATM   10  C   UNL     1     -42.544 -43.692  11.453  1.00  0.00     0.321 C 
HETATM   11  N   UNL     1     -43.276 -42.610  11.005  1.00  0.00    -0.338 N 
HETATM   12  O   UNL     1     -41.885 -43.612  12.484  1.00  0.00    -0.247 OA
HETATM   13  H   UNL     1     -43.433 -42.532  10.012  1.00  0.00     0.164 HD
HETATM   14  H   UNL     1     -43.343 -44.745   9.899  1.00  0.00     0.170 HD
BRANCH  11  15
HETATM   15  C   UNL     1     -43.263 -41.379  11.797  1.00  0.00     0.086 C 
HETATM   16  C   UNL     1     -44.659 -40.783  11.892  1.00  0.00     0.032 C 
BRANCH  15  17
HETATM   17  C   UNL     1     -42.215 -40.442  11.184  1.00  0.00     0.008 C 
HETATM   18  C   UNL     1     -40.865 -40.318  11.944  1.00  0.00     0.007 C 
HETATM   19  C   UNL     1     -40.823 -38.836  11.535  1.00  0.00     0.001 C 
HETATM   20  C   UNL     1     -42.344 -38.899  11.303  1.00  0.00     0.007 C 
ENDBRANCH  15  17
ENDBRANCH  11  15
ENDBRANCH   1   9
BRANCH   4  21
HETATM   21  N   UNL     1     -40.272 -49.788  11.597  1.00  0.00    -0.363 N 
HETATM   22  C   UNL     1     -41.070 -50.973  11.907  1.00  0.00     0.150 C 
HETATM   23  C   UNL     1     -40.528 -51.654  13.169  1.00  0.00     0.187 C 
HETATM   24  O   UNL     1     -39.120 -51.934  13.059  1.00  0.00    -0.388 OA
HETATM   25  C   UNL     1     -38.388 -50.713  12.867  1.00  0.00     0.187 C 
HETATM   26  C   UNL     1     -38.821 -49.987  11.583  1.00  0.00     0.150 C 
ENDBRANCH   4  21
TORSDOF 4
ENDMDL
MODEL 7
REMARK VINA RESULT:      -5.6      1.940      8.969
REMARK  4 active torsions:
REMARK  status: ('A' for Active; 'I' for Inactive)
REMARK    1  A    between atoms: C_2  and  N_3 
REMARK    2  A    between atoms: C_2  and  C_21 
REMARK       I    between atoms: N_3  and  C_4 
REMARK       I    between atoms: C_4  and  N_6 
REMARK    3  A    between atoms: N_6  and  C_7 
REMARK    4  A    between atoms: C_10  and  N_15 
ROOT
HETATM    1  C   UNL     1     -40.379 -47.519  11.381  1.00  0.00     0.058 A 
HETATM    2  C   UNL     1     -39.396 -48.032  12.221  1.00  0.00     0.035 A 
HETATM    3  C   UNL     1     -39.396 -49.373  12.594  1.00  0.00     0.051 A 
HETATM    4  C   UNL     1     -40.370 -50.233  12.117  1.00  0.00     0.103 A 
HETATM    5  N   UNL     1     -41.323 -49.766  11.281  1.00  0.00    -0.344 N 
ATOM      6  HN  UNL     1     -42.029 -50.399  10.907  1.00  0.00     0.167 HD
HETATM    7  C   UNL     1     -41.339 -48.439  10.938  1.00  0.00     0.034 A 
HETATM    8  C   UNL     1     -42.487 -48.040  10.055  1.00  0.00     0.070 C 
ENDROOT
BRANCH   1   9
HETATM    9  N   UNL     1     -40.404 -46.146  11.000  1.00  0.00    -0.307 N 
HETATM   10  C   UNL     1     -40.972 -45.123  11.730  1.00  0.00     0.321 C 
HETATM   11  N   UNL     1     -40.897 -43.896  11.101  1.00  0.00    -0.338 N 
HETATM   12  O   UNL     1     -41.538 -45.232  12.812  1.00  0.00    -0.247 OA
HETATM   13  H   UNL     1     -40.109 -43.730  10.495  1.00  0.00     0.164 HD
HETATM   14  H   UNL     1     -40.062 -45.908  10.082  1.00  0.00     0.170 HD
BRANCH  11  15
HETATM   15  C   UNL     1     -41.526 -42.740  11.743  1.00  0.00     0.086 C 
HETATM   16  C   UNL     1     -42.744 -42.282  10.957  1.00  0.00     0.032 C 
BRANCH  15  17
HETATM   17  C   UNL     1     -40.448 -41.664  11.922  1.00  0.00     0.008 C 
HETATM   18  C   UNL     1     -39.781 -41.576  13.323  1.00  0.00     0.007 C 
HETATM   19  C   UNL     1     -39.712 -40.050  13.145  1.00  0.00     0.001 C 
HETATM   20  C   UNL     1     -40.822 -40.165  12.083  1.00  0.00     0.007 C 
ENDBRANCH  15  17
ENDBRANCH  11  15
ENDBRANCH   1   9
BRANCH   4  21
HETATM   21  N   UNL     1     -40.375 -51.556  12.480  1.00  0.00    -0.363 N 
HETATM   22  C   UNL     1     -41.299 -52.502  11.854  1.00  0.00     0.150 C 
HETATM   23  C   UNL     1     -42.060 -53.281  12.934  1.00  0.00     0.187 C 
HETATM   24  O   UNL     1     -41.162 -53.904  13.873  1.00  0.00    -0.388 OA
HETATM   25  C   UNL     1     -40.365 -52.905  14.528  1.00  0.00     0.187 C 
HETATM   26  C   UNL     1     -39.513 -52.109  13.526  1.00  0.00     0.150 C 
ENDBRANCH   4  21
TORSDOF 4
ENDMDL
MODEL 8
REMARK VINA RESULT:      -5.6      3.175      9.130
REMARK  4 active torsions:
REMARK  status: ('A' for Active; 'I' for Inactive)
REMARK    1  A    between atoms: C_2  and  N_3 
REMARK    2  A    between atoms: C_2  and  C_21 
REMARK       I    between atoms: N_3  and  C_4 
REMARK       I    between atoms: C_4  and  N_6 
REMARK    3  A    between atoms: N_6  and  C_7 
REMARK    4  A    between atoms: C_10  and  N_15 
ROOT
HETATM    1  C   UNL     1     -41.557 -51.334  13.610  1.00  0.00     0.058 A 
HETATM    2  C   UNL     1     -40.467 -51.284  14.472  1.00  0.00     0.035 A 
HETATM    3  C   UNL     1     -39.975 -52.436  15.078  1.00  0.00     0.051 A 
HETATM    4  C   UNL     1     -40.552 -53.666  14.818  1.00  0.00     0.103 A 
HETATM    5  N   UNL     1     -41.599 -53.747  13.967  1.00  0.00    -0.344 N 
ATOM      6  HN  UNL     1     -42.014 -54.653  13.752  1.00  0.00     0.167 HD
HETATM    7  C   UNL     1     -42.101 -52.608  13.393  1.00  0.00     0.034 A 
HETATM    8  C   UNL     1     -43.301 -52.831  12.519  1.00  0.00     0.070 C 
ENDROOT
BRANCH   1   9
HETATM    9  N   UNL     1     -42.084 -50.164  12.992  1.00  0.00    -0.307 N 
HETATM   10  C   UNL     1     -41.586 -49.567  11.852  1.00  0.00     0.321 C 
HETATM   11  N   UNL     1     -42.260 -48.414  11.500  1.00  0.00    -0.338 N 
HETATM   12  O   UNL     1     -40.620 -49.946  11.198  1.00  0.00    -0.247 OA
HETATM   13  H   UNL     1     -43.238 -48.356  11.735  1.00  0.00     0.164 HD
HETATM   14  H   UNL     1     -42.825 -49.674  13.469  1.00  0.00     0.170 HD
BRANCH  11  15
HETATM   15  C   UNL     1     -41.783 -47.649  10.346  1.00  0.00     0.086 C 
HETATM   16  C   UNL     1     -40.803 -46.571  10.782  1.00  0.00     0.032 C 
BRANCH  15  17
HETATM   17  C   UNL     1     -43.012 -47.121   9.598  1.00  0.00     0.008 C 
HETATM   18  C   UNL     1     -44.400 -47.558  10.146  1.00  0.00     0.007 C 
HETATM   19  C   UNL     1     -44.907 -47.608   8.695  1.00  0.00     0.001 C 
HETATM   20  C   UNL     1     -43.442 -47.718   8.230  1.00  0.00     0.007 C 
ENDBRANCH  15  17
ENDBRANCH  11  15
ENDBRANCH   1   9
BRANCH   4  21
HETATM   21  N   UNL     1     -40.072 -54.806  15.412  1.00  0.00    -0.363 N 
HETATM   22  C   UNL     1     -40.904 -55.581  16.331  1.00  0.00     0.150 C 
HETATM   23  C   UNL     1     -40.144 -55.832  17.639  1.00  0.00     0.187 C 
HETATM   24  O   UNL     1     -38.857 -56.432  17.400  1.00  0.00    -0.388 OA
HETATM   25  C   UNL     1     -38.054 -55.565  16.582  1.00  0.00     0.187 C 
HETATM   26  C   UNL     1     -38.710 -55.306  15.216  1.00  0.00     0.150 C 
ENDBRANCH   4  21
TORSDOF 4
ENDMDL
MODEL 9
REMARK VINA RESULT:      -5.5      2.475      3.713
REMARK  4 active torsions:
REMARK  status: ('A' for Active; 'I' for Inactive)
REMARK    1  A    between atoms: C_2  and  N_3 
REMARK    2  A    between atoms: C_2  and  C_21 
REMARK       I    between atoms: N_3  and  C_4 
REMARK       I    between atoms: C_4  and  N_6 
REMARK    3  A    between atoms: N_6  and  C_7 
REMARK    4  A    between atoms: C_10  and  N_15 
ROOT
HETATM    1  C   UNL     1     -40.861 -45.593  11.169  1.00  0.00     0.058 A 
HETATM    2  C   UNL     1     -41.914 -45.308  12.032  1.00  0.00     0.035 A 
HETATM    3  C   UNL     1     -42.301 -43.996  12.287  1.00  0.00     0.051 A 
HETATM    4  C   UNL     1     -41.655 -42.941  11.666  1.00  0.00     0.103 A 
HETATM    5  N   UNL     1     -40.644 -43.191  10.805  1.00  0.00    -0.344 N 
ATOM      6  HN  UNL     1     -40.179 -42.420  10.325  1.00  0.00     0.167 HD
HETATM    7  C   UNL     1     -40.244 -44.481  10.577  1.00  0.00     0.034 A 
HETATM    8  C   UNL     1     -39.071 -44.614   9.649  1.00  0.00     0.070 C 
ENDROOT
BRANCH   1   9
HETATM    9  N   UNL     1     -40.441 -46.929  10.907  1.00  0.00    -0.307 N 
HETATM   10  C   UNL     1     -39.671 -47.706  11.748  1.00  0.00     0.321 C 
HETATM   11  N   UNL     1     -39.369 -48.946  11.222  1.00  0.00    -0.338 N 
HETATM   12  O   UNL     1     -39.234 -47.372  12.844  1.00  0.00    -0.247 OA
HETATM   13  H   UNL     1     -40.039 -49.362  10.594  1.00  0.00     0.164 HD
HETATM   14  H   UNL     1     -40.641 -47.313   9.997  1.00  0.00     0.170 HD
BRANCH  11  15
HETATM   15  C   UNL     1     -38.499 -49.839  11.989  1.00  0.00     0.086 C 
HETATM   16  C   UNL     1     -37.290 -50.254  11.166  1.00  0.00     0.032 C 
BRANCH  15  17
HETATM   17  C   UNL     1     -39.357 -51.008  12.488  1.00  0.00     0.008 C 
HETATM   18  C   UNL     1     -40.792 -51.116  11.900  1.00  0.00     0.007 C 
HETATM   19  C   UNL     1     -41.267 -51.623  13.273  1.00  0.00     0.001 C 
HETATM   20  C   UNL     1     -40.010 -50.987  13.897  1.00  0.00     0.007 C 
ENDBRANCH  15  17
ENDBRANCH  11  15
ENDBRANCH   1   9
BRANCH   4  21
HETATM   21  N   UNL     1     -42.031 -41.645  11.912  1.00  0.00    -0.363 N 
HETATM   22  C   UNL     1     -43.380 -41.332  12.384  1.00  0.00     0.150 C 
HETATM   23  C   UNL     1     -44.003 -40.244  11.501  1.00  0.00     0.187 C 
HETATM   24  O   UNL     1     -43.154 -39.085  11.406  1.00  0.00    -0.388 OA
HETATM   25  C   UNL     1     -41.888 -39.447  10.832  1.00  0.00     0.187 C 
HETATM   26  C   UNL     1     -41.155 -40.494  11.687  1.00  0.00     0.150 C 
ENDBRANCH   4  21
TORSDOF 4
ENDMDL
