MODEL 1
REMARK VINA RESULT:      -6.0      0.000      0.000
REMARK  4 active torsions:
REMARK  status: ('A' for Active; 'I' for Inactive)
REMARK    1  A    between atoms: C_2  and  C_5 
REMARK    2  A    between atoms: C_9  and  N_11 
REMARK       I    between atoms: N_11  and  C_12 
REMARK    3  A    between atoms: C_12  and  C_14 
REMARK    4  A    between atoms: C_14  and  N_15 
ROOT
HETATM    1  N   UNL     1     -42.425 -52.042  12.232  1.00  0.00    -0.355 N 
HETATM    2  C   UNL     1     -41.932 -50.806  12.611  1.00  0.00     0.237 C 
HETATM    3  O   UNL     1     -42.204 -50.282  13.688  1.00  0.00    -0.272 OA
HETATM    4  H   UNL     1     -42.368 -52.323  11.259  1.00  0.00     0.162 HD
ENDROOT
BRANCH   1   5
HETATM    5  C   UNL     1     -43.353 -52.749  13.100  1.00  0.00     0.085 C 
HETATM    6  C   UNL     1     -42.772 -54.076  13.592  1.00  0.00     0.025 C 
HETATM    7  C   UNL     1     -43.752 -54.781  14.530  1.00  0.00     0.003 C 
HETATM    8  C   UNL     1     -45.137 -54.952  13.902  1.00  0.00     0.014 C 
HETATM    9  C   UNL     1     -45.719 -53.647  13.330  1.00  0.00     0.095 C 
HETATM   10  C   UNL     1     -44.697 -52.983  12.396  1.00  0.00     0.038 C 
BRANCH   9  11
HETATM   11  C   UNL     1     -46.242 -52.691  14.414  1.00  0.00     0.391 C 
HETATM   12  F   UNL     1     -47.455 -53.058  14.880  1.00  0.00    -0.171 F 
HETATM   13  F   UNL     1     -46.372 -51.443  13.907  1.00  0.00    -0.171 F 
HETATM   14  F   UNL     1     -45.414 -52.600  15.473  1.00  0.00    -0.171 F 
ENDBRANCH   9  11
ENDBRANCH   1   5
BRANCH   2  15
HETATM   15  C   UNL     1     -41.002 -50.140  11.631  1.00  0.00     0.249 C 
BRANCH  15  16
HETATM   16  N   UNL     1     -39.631 -50.479  11.911  1.00  0.00    -0.264 N 
HETATM   17  C   UNL     1     -38.501 -49.771  11.654  1.00  0.00     0.213 A 
HETATM   18  N   UNL     1     -37.478 -50.445  12.127  1.00  0.00    -0.281 N 
HETATM   19  N   UNL     1     -38.001 -51.588  12.688  1.00  0.00    -0.008 NA
ATOM     20  HN  UNL     1     -36.495 -50.176  12.087  1.00  0.00     0.184 HD
HETATM   21  N   UNL     1     -39.325 -51.613  12.561  1.00  0.00    -0.005 NA
ENDBRANCH  15  16
ENDBRANCH   2  15
TORSDOF 4
ENDMDL
MODEL 2
REMARK VINA RESULT:      -5.8      2.424      3.070
REMARK  4 active torsions:
REMARK  status: ('A' for Active; 'I' for Inactive)
REMARK    1  A    between atoms: C_2  and  C_5 
REMARK    2  A    between atoms: C_9  and  N_11 
REMARK       I    between atoms: N_11  and  C_12 
REMARK    3  A    between atoms: C_12  and  C_14 
REMARK    4  A    between atoms: C_14  and  N_15 
ROOT
HETATM    1  N   UNL     1     -42.666 -52.999  14.390  1.00  0.00    -0.355 N 
HETATM    2  C   UNL     1     -42.179 -54.242  14.751  1.00  0.00     0.237 C 
HETATM    3  O   UNL     1     -42.891 -55.241  14.830  1.00  0.00    -0.272 OA
HETATM    4  H   UNL     1     -42.103 -52.174  14.565  1.00  0.00     0.162 HD
ENDROOT
BRANCH   1   5
HETATM    5  C   UNL     1     -44.088 -52.823  14.141  1.00  0.00     0.085 C 
HETATM    6  C   UNL     1     -44.415 -52.878  12.648  1.00  0.00     0.025 C 
HETATM    7  C   UNL     1     -45.919 -52.726  12.417  1.00  0.00     0.003 C 
HETATM    8  C   UNL     1     -46.486 -51.473  13.088  1.00  0.00     0.014 C 
HETATM    9  C   UNL     1     -46.112 -51.348  14.576  1.00  0.00     0.095 C 
HETATM   10  C   UNL     1     -44.594 -51.507  14.750  1.00  0.00     0.038 C 
BRANCH   9  11
HETATM   11  C   UNL     1     -46.916 -52.294  15.483  1.00  0.00     0.391 C 
HETATM   12  F   UNL     1     -47.494 -53.299  14.792  1.00  0.00    -0.171 F 
HETATM   13  F   UNL     1     -47.910 -51.612  16.098  1.00  0.00    -0.171 F 
HETATM   14  F   UNL     1     -46.165 -52.852  16.453  1.00  0.00    -0.171 F 
ENDBRANCH   9  11
ENDBRANCH   1   5
BRANCH   2  15
HETATM   15  C   UNL     1     -40.698 -54.317  15.017  1.00  0.00     0.249 C 
BRANCH  15  16
HETATM   16  N   UNL     1     -39.999 -53.258  14.336  1.00  0.00    -0.264 N 
HETATM   17  C   UNL     1     -39.161 -52.317  14.842  1.00  0.00     0.213 A 
HETATM   18  N   UNL     1     -38.717 -51.585  13.846  1.00  0.00    -0.281 N 
HETATM   19  N   UNL     1     -39.299 -52.096  12.708  1.00  0.00    -0.008 NA
ATOM     20  HN  UNL     1     -38.072 -50.797  13.905  1.00  0.00     0.184 HD
HETATM   21  N   UNL     1     -40.086 -53.127  13.003  1.00  0.00    -0.005 NA
ENDBRANCH  15  16
ENDBRANCH   2  15
TORSDOF 4
ENDMDL
MODEL 3
REMARK VINA RESULT:      -5.8      1.889      2.502
REMARK  4 active torsions:
REMARK  status: ('A' for Active; 'I' for Inactive)
REMARK    1  A    between atoms: C_2  and  C_5 
REMARK    2  A    between atoms: C_9  and  N_11 
REMARK       I    between atoms: N_11  and  C_12 
REMARK    3  A    between atoms: C_12  and  C_14 
REMARK    4  A    between atoms: C_14  and  N_15 
ROOT
HETATM    1  N   UNL     1     -42.551 -51.188  14.131  1.00  0.00    -0.355 N 
HETATM    2  C   UNL     1     -41.490 -51.181  13.245  1.00  0.00     0.237 C 
HETATM    3  O   UNL     1     -41.512 -51.784  12.174  1.00  0.00    -0.272 OA
HETATM    4  H   UNL     1     -42.403 -50.880  15.086  1.00  0.00     0.162 HD
ENDROOT
BRANCH   1   5
HETATM    5  C   UNL     1     -43.735 -51.981  13.838  1.00  0.00     0.085 C 
HETATM    6  C   UNL     1     -44.877 -51.117  13.299  1.00  0.00     0.025 C 
HETATM    7  C   UNL     1     -46.096 -51.978  12.966  1.00  0.00     0.003 C 
HETATM    8  C   UNL     1     -46.535 -52.847  14.148  1.00  0.00     0.014 C 
HETATM    9  C   UNL     1     -45.390 -53.674  14.762  1.00  0.00     0.095 C 
HETATM   10  C   UNL     1     -44.195 -52.761  15.077  1.00  0.00     0.038 C 
BRANCH   9  11
HETATM   11  C   UNL     1     -44.998 -54.891  13.910  1.00  0.00     0.391 C 
HETATM   12  F   UNL     1     -43.961 -55.575  14.438  1.00  0.00    -0.171 F 
HETATM   13  F   UNL     1     -44.621 -54.489  12.674  1.00  0.00    -0.171 F 
HETATM   14  F   UNL     1     -46.013 -55.763  13.745  1.00  0.00    -0.171 F 
ENDBRANCH   9  11
ENDBRANCH   1   5
BRANCH   2  15
HETATM   15  C   UNL     1     -40.297 -50.355  13.651  1.00  0.00     0.249 C 
BRANCH  15  16
HETATM   16  N   UNL     1     -39.243 -50.461  12.677  1.00  0.00    -0.264 N 
HETATM   17  C   UNL     1     -39.028 -49.721  11.559  1.00  0.00     0.213 A 
HETATM   18  N   UNL     1     -37.917 -50.140  10.997  1.00  0.00    -0.281 N 
HETATM   19  N   UNL     1     -37.446 -51.157  11.795  1.00  0.00    -0.008 NA
ATOM     20  HN  UNL     1     -37.490 -49.782  10.142  1.00  0.00     0.184 HD
HETATM   21  N   UNL     1     -38.255 -51.357  12.831  1.00  0.00    -0.005 NA
ENDBRANCH  15  16
ENDBRANCH   2  15
TORSDOF 4
ENDMDL
MODEL 4
REMARK VINA RESULT:      -5.7      1.512      1.885
REMARK  4 active torsions:
REMARK  status: ('A' for Active; 'I' for Inactive)
REMARK    1  A    between atoms: C_2  and  C_5 
REMARK    2  A    between atoms: C_9  and  N_11 
REMARK       I    between atoms: N_11  and  C_12 
REMARK    3  A    between atoms: C_12  and  C_14 
REMARK    4  A    between atoms: C_14  and  N_15 
ROOT
HETATM    1  N   UNL     1     -40.991 -52.996  13.677  1.00  0.00    -0.355 N 
HETATM    2  C   UNL     1     -40.340 -51.903  14.222  1.00  0.00     0.237 C 
HETATM    3  O   UNL     1     -40.920 -51.043  14.882  1.00  0.00    -0.272 OA
HETATM    4  H   UNL     1     -40.529 -53.541  12.957  1.00  0.00     0.162 HD
ENDROOT
BRANCH   1   5
HETATM    5  C   UNL     1     -42.432 -53.129  13.825  1.00  0.00     0.085 C 
HETATM    6  C   UNL     1     -42.821 -54.502  14.376  1.00  0.00     0.025 C 
HETATM    7  C   UNL     1     -44.336 -54.604  14.555  1.00  0.00     0.003 C 
HETATM    8  C   UNL     1     -45.098 -54.256  13.274  1.00  0.00     0.014 C 
HETATM    9  C   UNL     1     -44.676 -52.913  12.652  1.00  0.00     0.095 C 
HETATM   10  C   UNL     1     -43.149 -52.865  12.494  1.00  0.00     0.038 C 
BRANCH   9  11
HETATM   11  C   UNL     1     -45.232 -51.695  13.407  1.00  0.00     0.391 C 
HETATM   12  F   UNL     1     -46.479 -51.369  13.007  1.00  0.00    -0.171 F 
HETATM   13  F   UNL     1     -44.448 -50.615  13.185  1.00  0.00    -0.171 F 
HETATM   14  F   UNL     1     -45.274 -51.882  14.741  1.00  0.00    -0.171 F 
ENDBRANCH   9  11
ENDBRANCH   1   5
BRANCH   2  15
HETATM   15  C   UNL     1     -38.854 -51.838  13.989  1.00  0.00     0.249 C 
BRANCH  15  16
HETATM   16  N   UNL     1     -38.555 -51.125  12.775  1.00  0.00    -0.264 N 
HETATM   17  C   UNL     1     -39.365 -50.342  12.016  1.00  0.00     0.213 A 
HETATM   18  N   UNL     1     -38.654 -49.855  11.025  1.00  0.00    -0.281 N 
HETATM   19  N   UNL     1     -37.381 -50.352  11.188  1.00  0.00    -0.008 NA
ATOM     20  HN  UNL     1     -38.980 -49.234  10.285  1.00  0.00     0.184 HD
HETATM   21  N   UNL     1     -37.313 -51.131  12.264  1.00  0.00    -0.005 NA
ENDBRANCH  15  16
ENDBRANCH   2  15
TORSDOF 4
ENDMDL
MODEL 5
REMARK VINA RESULT:      -5.6      2.890      3.744
REMARK  4 active torsions:
REMARK  status: ('A' for Active; 'I' for Inactive)
REMARK    1  A    between atoms: C_2  and  C_5 
REMARK    2  A    between atoms: C_9  and  N_11 
REMARK       I    between atoms: N_11  and  C_12 
REMARK    3  A    between atoms: C_12  and  C_14 
REMARK    4  A    between atoms: C_14  and  N_15 
ROOT
HETATM    1  N   UNL     1     -43.734 -50.535  13.525  1.00  0.00    -0.355 N 
HETATM    2  C   UNL     1     -42.551 -50.629  12.816  1.00  0.00     0.237 C 
HETATM    3  O   UNL     1     -42.162 -51.677  12.304  1.00  0.00    -0.272 OA
HETATM    4  H   UNL     1     -43.895 -49.728  14.118  1.00  0.00     0.162 HD
ENDROOT
BRANCH   1   5
HETATM    5  C   UNL     1     -44.547 -51.722  13.740  1.00  0.00     0.085 C 
HETATM    6  C   UNL     1     -46.037 -51.383  13.826  1.00  0.00     0.025 C 
HETATM    7  C   UNL     1     -46.870 -52.650  14.016  1.00  0.00     0.003 C 
HETATM    8  C   UNL     1     -46.397 -53.484  15.209  1.00  0.00     0.014 C 
HETATM    9  C   UNL     1     -44.886 -53.780  15.192  1.00  0.00     0.095 C 
HETATM   10  C   UNL     1     -44.098 -52.475  15.000  1.00  0.00     0.038 C 
BRANCH   9  11
HETATM   11  C   UNL     1     -44.493 -54.865  14.177  1.00  0.00     0.391 C 
HETATM   12  F   UNL     1     -44.019 -54.344  13.026  1.00  0.00    -0.171 F 
HETATM   13  F   UNL     1     -45.575 -55.613  13.858  1.00  0.00    -0.171 F 
HETATM   14  F   UNL     1     -43.558 -55.711  14.652  1.00  0.00    -0.171 F 
ENDBRANCH   9  11
ENDBRANCH   1   5
BRANCH   2  15
HETATM   15  C   UNL     1     -41.765 -49.352  12.673  1.00  0.00     0.249 C 
BRANCH  15  16
HETATM   16  N   UNL     1     -42.212 -48.599  11.530  1.00  0.00    -0.264 N 
HETATM   17  C   UNL     1     -41.543 -48.289  10.390  1.00  0.00     0.213 A 
HETATM   18  N   UNL     1     -42.359 -47.628   9.602  1.00  0.00    -0.281 N 
HETATM   19  N   UNL     1     -43.553 -47.536  10.281  1.00  0.00    -0.008 NA
ATOM     20  HN  UNL     1     -42.151 -47.257   8.675  1.00  0.00     0.184 HD
HETATM   21  N   UNL     1     -43.470 -48.134  11.465  1.00  0.00    -0.005 NA
ENDBRANCH  15  16
ENDBRANCH   2  15
TORSDOF 4
ENDMDL
MODEL 6
REMARK VINA RESULT:      -5.5      1.323      1.775
REMARK  4 active torsions:
REMARK  status: ('A' for Active; 'I' for Inactive)
REMARK    1  A    between atoms: C_2  and  C_5 
REMARK    2  A    between atoms: C_9  and  N_11 
REMARK       I    between atoms: N_11  and  C_12 
REMARK    3  A    between atoms: C_12  and  C_14 
REMARK    4  A    between atoms: C_14  and  N_15 
ROOT
HETATM    1  N   UNL     1     -41.778 -52.514  12.801  1.00  0.00    -0.355 N 
HETATM    2  C   UNL     1     -41.001 -51.598  13.486  1.00  0.00     0.237 C 
HETATM    3  O   UNL     1     -41.255 -51.232  14.631  1.00  0.00    -0.272 OA
HETATM    4  H   UNL     1     -41.670 -52.606  11.796  1.00  0.00     0.162 HD
ENDROOT
BRANCH   1   5
HETATM    5  C   UNL     1     -42.988 -53.040  13.414  1.00  0.00     0.085 C 
HETATM    6  C   UNL     1     -42.756 -54.419  14.036  1.00  0.00     0.025 C 
HETATM    7  C   UNL     1     -44.031 -54.933  14.704  1.00  0.00     0.003 C 
HETATM    8  C   UNL     1     -45.231 -54.920  13.754  1.00  0.00     0.014 C 
HETATM    9  C   UNL     1     -45.448 -53.567  13.054  1.00  0.00     0.095 C 
HETATM   10  C   UNL     1     -44.139 -53.099  12.400  1.00  0.00     0.038 C 
BRANCH   9  11
HETATM   11  C   UNL     1     -46.065 -52.502  13.973  1.00  0.00     0.391 C 
HETATM   12  F   UNL     1     -47.165 -52.952  14.614  1.00  0.00    -0.171 F 
HETATM   13  F   UNL     1     -46.443 -51.424  13.246  1.00  0.00    -0.171 F 
HETATM   14  F   UNL     1     -45.205 -52.059  14.912  1.00  0.00    -0.171 F 
ENDBRANCH   9  11
ENDBRANCH   1   5
BRANCH   2  15
HETATM   15  C   UNL     1     -39.786 -51.089  12.755  1.00  0.00     0.249 C 
BRANCH  15  16
HETATM   16  N   UNL     1     -40.079 -49.860  12.065  1.00  0.00    -0.264 N 
HETATM   17  C   UNL     1     -39.275 -48.789  11.838  1.00  0.00     0.213 A 
HETATM   18  N   UNL     1     -39.948 -47.914  11.126  1.00  0.00    -0.281 N 
HETATM   19  N   UNL     1     -41.190 -48.469  10.915  1.00  0.00    -0.008 NA
ATOM     20  HN  UNL     1     -39.617 -47.008  10.796  1.00  0.00     0.184 HD
HETATM   21  N   UNL     1     -41.275 -49.667  11.487  1.00  0.00    -0.005 NA
ENDBRANCH  15  16
ENDBRANCH   2  15
TORSDOF 4
ENDMDL
MODEL 7
REMARK VINA RESULT:      -5.4      5.732      7.978
REMARK  4 active torsions:
REMARK  status: ('A' for Active; 'I' for Inactive)
REMARK    1  A    between atoms: C_2  and  C_5 
REMARK    2  A    between atoms: C_9  and  N_11 
REMARK       I    between atoms: N_11  and  C_12 
REMARK    3  A    between atoms: C_12  and  C_14 
REMARK    4  A    between atoms: C_14  and  N_15 
ROOT
HETATM    1  N   UNL     1     -46.128 -53.611  17.634  1.00  0.00    -0.355 N 
HETATM    2  C   UNL     1     -45.268 -54.476  18.285  1.00  0.00     0.237 C 
HETATM    3  O   UNL     1     -44.219 -54.877  17.784  1.00  0.00    -0.272 OA
HETATM    4  H   UNL     1     -47.075 -53.497  17.979  1.00  0.00     0.162 HD
ENDROOT
BRANCH   1   5
HETATM    5  C   UNL     1     -45.834 -53.184  16.274  1.00  0.00     0.085 C 
HETATM    6  C   UNL     1     -46.449 -51.818  15.962  1.00  0.00     0.025 C 
HETATM    7  C   UNL     1     -46.096 -51.377  14.542  1.00  0.00     0.003 C 
HETATM    8  C   UNL     1     -46.467 -52.432  13.496  1.00  0.00     0.014 C 
HETATM    9  C   UNL     1     -45.925 -53.836  13.820  1.00  0.00     0.095 C 
HETATM   10  C   UNL     1     -46.308 -54.228  15.255  1.00  0.00     0.038 C 
BRANCH   9  11
HETATM   11  C   UNL     1     -44.419 -53.981  13.547  1.00  0.00     0.391 C 
HETATM   12  F   UNL     1     -44.156 -54.253  12.252  1.00  0.00    -0.171 F 
HETATM   13  F   UNL     1     -43.913 -55.002  14.278  1.00  0.00    -0.171 F 
HETATM   14  F   UNL     1     -43.719 -52.878  13.878  1.00  0.00    -0.171 F 
ENDBRANCH   9  11
ENDBRANCH   1   5
BRANCH   2  15
HETATM   15  C   UNL     1     -45.674 -54.885  19.677  1.00  0.00     0.249 C 
BRANCH  15  16
HETATM   16  N   UNL     1     -46.280 -56.191  19.673  1.00  0.00    -0.264 N 
HETATM   17  C   UNL     1     -47.595 -56.528  19.653  1.00  0.00     0.213 A 
HETATM   18  N   UNL     1     -47.682 -57.838  19.608  1.00  0.00    -0.281 N 
HETATM   19  N   UNL     1     -46.387 -58.306  19.599  1.00  0.00    -0.008 NA
ATOM     20  HN  UNL     1     -48.536 -58.395  19.585  1.00  0.00     0.184 HD
HETATM   21  N   UNL     1     -45.521 -57.298  19.635  1.00  0.00    -0.005 NA
ENDBRANCH  15  16
ENDBRANCH   2  15
TORSDOF 4
ENDMDL
MODEL 8
REMARK VINA RESULT:      -5.2      5.164      7.601
REMARK  4 active torsions:
REMARK  status: ('A' for Active; 'I' for Inactive)
REMARK    1  A    between atoms: C_2  and  C_5 
REMARK    2  A    between atoms: C_9  and  N_11 
REMARK       I    between atoms: N_11  and  C_12 
REMARK    3  A    between atoms: C_12  and  C_14 
REMARK    4  A    between atoms: C_14  and  N_15 
ROOT
HETATM    1  N   UNL     1     -40.045 -48.314  13.695  1.00  0.00    -0.355 N 
HETATM    2  C   UNL     1     -39.224 -49.372  13.347  1.00  0.00     0.237 C 
HETATM    3  O   UNL     1     -38.271 -49.252  12.581  1.00  0.00    -0.272 OA
HETATM    4  H   UNL     1     -40.941 -48.503  14.131  1.00  0.00     0.162 HD
ENDROOT
BRANCH   1   5
HETATM    5  C   UNL     1     -39.829 -47.004  13.100  1.00  0.00     0.085 C 
HETATM    6  C   UNL     1     -39.017 -46.090  14.020  1.00  0.00     0.025 C 
HETATM    7  C   UNL     1     -38.774 -44.734  13.358  1.00  0.00     0.003 C 
HETATM    8  C   UNL     1     -40.073 -44.075  12.888  1.00  0.00     0.014 C 
HETATM    9  C   UNL     1     -40.951 -44.996  12.020  1.00  0.00     0.095 C 
HETATM   10  C   UNL     1     -41.163 -46.341  12.732  1.00  0.00     0.038 C 
BRANCH   9  11
HETATM   11  C   UNL     1     -40.422 -45.160  10.586  1.00  0.00     0.391 C 
HETATM   12  F   UNL     1     -39.878 -44.022  10.106  1.00  0.00    -0.171 F 
HETATM   13  F   UNL     1     -41.436 -45.497   9.755  1.00  0.00    -0.171 F 
HETATM   14  F   UNL     1     -39.490 -46.128  10.480  1.00  0.00    -0.171 F 
ENDBRANCH   9  11
ENDBRANCH   1   5
BRANCH   2  15
HETATM   15  C   UNL     1     -39.547 -50.695  13.991  1.00  0.00     0.249 C 
BRANCH  15  16
HETATM   16  N   UNL     1     -40.159 -51.592  13.046  1.00  0.00    -0.264 N 
HETATM   17  C   UNL     1     -40.951 -51.307  11.981  1.00  0.00     0.213 A 
HETATM   18  N   UNL     1     -41.241 -52.434  11.372  1.00  0.00    -0.281 N 
HETATM   19  N   UNL     1     -40.607 -53.426  12.085  1.00  0.00    -0.008 NA
ATOM     20  HN  UNL     1     -41.819 -52.550  10.539  1.00  0.00     0.184 HD
HETATM   21  N   UNL     1     -39.937 -52.914  13.113  1.00  0.00    -0.005 NA
ENDBRANCH  15  16
ENDBRANCH   2  15
TORSDOF 4
ENDMDL
MODEL 9
REMARK VINA RESULT:      -5.1      1.684      2.311
REMARK  4 active torsions:
REMARK  status: ('A' for Active; 'I' for Inactive)
REMARK    1  A    between atoms: C_2  and  C_5 
REMARK    2  A    between atoms: C_9  and  N_11 
REMARK       I    between atoms: N_11  and  C_12 
REMARK    3  A    between atoms: C_12  and  C_14 
REMARK    4  A    between atoms: C_14  and  N_15 
ROOT
HETATM    1  N   UNL     1     -42.028 -51.074  13.602  1.00  0.00    -0.355 N 
HETATM    2  C   UNL     1     -41.107 -51.369  14.590  1.00  0.00     0.237 C 
HETATM    3  O   UNL     1     -41.319 -52.198  15.473  1.00  0.00    -0.272 OA
HETATM    4  H   UNL     1     -41.910 -50.232  13.048  1.00  0.00     0.162 HD
ENDROOT
BRANCH   1   5
HETATM    5  C   UNL     1     -43.335 -51.713  13.615  1.00  0.00     0.085 C 
HETATM    6  C   UNL     1     -43.398 -52.896  12.647  1.00  0.00     0.025 C 
HETATM    7  C   UNL     1     -44.768 -53.571  12.706  1.00  0.00     0.003 C 
HETATM    8  C   UNL     1     -45.914 -52.581  12.484  1.00  0.00     0.014 C 
HETATM    9  C   UNL     1     -45.840 -51.340  13.392  1.00  0.00     0.095 C 
HETATM   10  C   UNL     1     -44.445 -50.702  13.294  1.00  0.00     0.038 C 
BRANCH   9  11
HETATM   11  C   UNL     1     -46.261 -51.625  14.842  1.00  0.00     0.391 C 
HETATM   12  F   UNL     1     -45.357 -51.172  15.738  1.00  0.00    -0.171 F 
HETATM   13  F   UNL     1     -46.378 -52.959  15.036  1.00  0.00    -0.171 F 
HETATM   14  F   UNL     1     -47.451 -51.076  15.159  1.00  0.00    -0.171 F 
ENDBRANCH   9  11
ENDBRANCH   1   5
BRANCH   2  15
HETATM   15  C   UNL     1     -39.795 -50.634  14.509  1.00  0.00     0.249 C 
BRANCH  15  16
HETATM   16  N   UNL     1     -39.576 -50.120  13.182  1.00  0.00    -0.264 N 
HETATM   17  C   UNL     1     -38.845 -50.648  12.167  1.00  0.00     0.213 A 
HETATM   18  N   UNL     1     -38.967 -49.862  11.122  1.00  0.00    -0.281 N 
HETATM   19  N   UNL     1     -39.793 -48.833  11.513  1.00  0.00    -0.008 NA
ATOM     20  HN  UNL     1     -38.536 -49.988  10.206  1.00  0.00     0.184 HD
HETATM   21  N   UNL     1     -40.174 -48.989  12.778  1.00  0.00    -0.005 NA
ENDBRANCH  15  16
ENDBRANCH   2  15
TORSDOF 4
ENDMDL
