MODEL 1
REMARK VINA RESULT:      -5.3      0.000      0.000
REMARK  7 active torsions:
REMARK  status: ('A' for Active; 'I' for Inactive)
REMARK    1  A    between atoms: C_2  and  C_3 
REMARK    2  A    between atoms: C_2  and  N_11 
REMARK    3  A    between atoms: C_3  and  N_4 
REMARK    4  A    between atoms: N_11  and  S_12 
REMARK    5  A    between atoms: S_12  and  N_15 
REMARK    6  A    between atoms: N_15  and  C_17 
REMARK    7  A    between atoms: C_17  and  C_19 
ROOT
HETATM    1  N   UNL     1     -42.123 -51.275  11.953  1.00  0.00    -0.201 NA
HETATM    2  H   UNL     1     -41.593 -52.117  11.739  1.00  0.00     0.141 HD
ENDROOT
BRANCH   1   3
HETATM    3  C   UNL     1     -41.115 -50.146  12.183  1.00  0.00     0.088 C 
HETATM    4  C   UNL     1     -39.782 -50.797  12.573  1.00  0.00     0.029 C 
BRANCH   3   5
HETATM    5  C   UNL     1     -40.935 -49.212  10.971  1.00  0.00     0.169 C 
BRANCH   5   6
HETATM    6  N   UNL     1     -42.113 -48.429  10.659  1.00  0.00    -0.285 N 
HETATM    7  C   UNL     1     -42.921 -47.752  11.518  1.00  0.00     0.201 A 
HETATM    8  N   UNL     1     -43.800 -47.057  10.833  1.00  0.00    -0.346 N 
HETATM    9  C   UNL     1     -43.470 -47.334   9.536  1.00  0.00     0.198 A 
ATOM     10  HN  UNL     1     -44.547 -46.457  11.184  1.00  0.00     0.167 HD
HETATM   11  N   UNL     1     -42.456 -48.187   9.379  1.00  0.00    -0.293 N 
ATOM     12  HN  UNL     1     -42.049 -48.557   8.520  1.00  0.00     0.188 HD
ENDBRANCH   5   6
ENDBRANCH   3   5
ENDBRANCH   1   3
BRANCH   1  13
HETATM   13  S   UNL     1     -43.120 -51.588  13.282  1.00  0.00     0.281 S 
HETATM   14  O   UNL     1     -42.416 -52.544  14.103  1.00  0.00    -0.194 OA
HETATM   15  O   UNL     1     -43.508 -50.297  13.790  1.00  0.00    -0.194 OA
BRANCH  13  16
HETATM   16  N   UNL     1     -44.502 -52.359  12.646  1.00  0.00    -0.197 NA
HETATM   17  C   UNL     1     -44.566 -53.819  12.932  1.00  0.00     0.131 C 
BRANCH  16  18
HETATM   18  C   UNL     1     -45.791 -51.653  13.102  1.00  0.00     0.075 C 
HETATM   19  C   UNL     1     -46.861 -51.669  12.001  1.00  0.00     0.027 C 
BRANCH  18  20
HETATM   20  C   UNL     1     -46.389 -52.294  14.346  1.00  0.00     0.004 A 
HETATM   21  C   UNL     1     -47.146 -51.455  15.358  1.00  0.00     0.007 A 
HETATM   22  C   UNL     1     -45.802 -52.011  15.715  1.00  0.00     0.007 A 
ENDBRANCH  18  20
ENDBRANCH  16  18
ENDBRANCH  13  16
ENDBRANCH   1  13
TORSDOF 7
ENDMDL
MODEL 2
REMARK VINA RESULT:      -5.3      4.241      5.561
REMARK  7 active torsions:
REMARK  status: ('A' for Active; 'I' for Inactive)
REMARK    1  A    between atoms: C_2  and  C_3 
REMARK    2  A    between atoms: C_2  and  N_11 
REMARK    3  A    between atoms: C_3  and  N_4 
REMARK    4  A    between atoms: N_11  and  S_12 
REMARK    5  A    between atoms: S_12  and  N_15 
REMARK    6  A    between atoms: N_15  and  C_17 
REMARK    7  A    between atoms: C_17  and  C_19 
ROOT
HETATM    1  N   UNL     1     -40.594 -47.434  10.544  1.00  0.00    -0.201 NA
HETATM    2  H   UNL     1     -39.662 -47.452  10.136  1.00  0.00     0.141 HD
ENDROOT
BRANCH   1   3
HETATM    3  C   UNL     1     -40.904 -45.981  10.911  1.00  0.00     0.088 C 
HETATM    4  C   UNL     1     -39.803 -45.109  10.295  1.00  0.00     0.029 C 
BRANCH   3   5
HETATM    5  C   UNL     1     -42.298 -45.505  10.459  1.00  0.00     0.169 C 
BRANCH   5   6
HETATM    6  N   UNL     1     -43.051 -46.510   9.736  1.00  0.00    -0.285 N 
HETATM    7  C   UNL     1     -44.091 -47.261  10.186  1.00  0.00     0.201 A 
HETATM    8  N   UNL     1     -44.589 -47.957   9.189  1.00  0.00    -0.346 N 
HETATM    9  C   UNL     1     -43.816 -47.574   8.129  1.00  0.00     0.198 A 
ATOM     10  HN  UNL     1     -45.364 -48.621   9.203  1.00  0.00     0.167 HD
HETATM   11  N   UNL     1     -42.846 -46.705   8.420  1.00  0.00    -0.293 N 
ATOM     12  HN  UNL     1     -42.138 -46.298   7.809  1.00  0.00     0.188 HD
ENDBRANCH   5   6
ENDBRANCH   3   5
ENDBRANCH   1   3
BRANCH   1  13
HETATM   13  S   UNL     1     -40.629 -48.498  11.857  1.00  0.00     0.281 S 
HETATM   14  O   UNL     1     -41.237 -47.777  12.950  1.00  0.00    -0.194 OA
HETATM   15  O   UNL     1     -41.196 -49.722  11.351  1.00  0.00    -0.194 OA
BRANCH  13  16
HETATM   16  N   UNL     1     -38.996 -48.781  12.260  1.00  0.00    -0.197 NA
HETATM   17  C   UNL     1     -38.558 -48.114  13.518  1.00  0.00     0.131 C 
BRANCH  16  18
HETATM   18  C   UNL     1     -38.687 -50.288  12.302  1.00  0.00     0.075 C 
HETATM   19  C   UNL     1     -37.310 -50.598  11.697  1.00  0.00     0.027 C 
BRANCH  18  20
HETATM   20  C   UNL     1     -38.713 -50.842  13.719  1.00  0.00     0.004 A 
HETATM   21  C   UNL     1     -39.057 -52.298  13.972  1.00  0.00     0.007 A 
HETATM   22  C   UNL     1     -40.026 -51.228  14.370  1.00  0.00     0.007 A 
ENDBRANCH  18  20
ENDBRANCH  16  18
ENDBRANCH  13  16
ENDBRANCH   1  13
TORSDOF 7
ENDMDL
MODEL 3
REMARK VINA RESULT:      -5.1      2.057      2.826
REMARK  7 active torsions:
REMARK  status: ('A' for Active; 'I' for Inactive)
REMARK    1  A    between atoms: C_2  and  C_3 
REMARK    2  A    between atoms: C_2  and  N_11 
REMARK    3  A    between atoms: C_3  and  N_4 
REMARK    4  A    between atoms: N_11  and  S_12 
REMARK    5  A    between atoms: S_12  and  N_15 
REMARK    6  A    between atoms: N_15  and  C_17 
REMARK    7  A    between atoms: C_17  and  C_19 
ROOT
HETATM    1  N   UNL     1     -42.146 -54.464  13.782  1.00  0.00    -0.201 NA
HETATM    2  H   UNL     1     -41.673 -55.275  14.174  1.00  0.00     0.141 HD
ENDROOT
BRANCH   1   3
HETATM    3  C   UNL     1     -41.098 -53.361  13.613  1.00  0.00     0.088 C 
HETATM    4  C   UNL     1     -39.774 -53.900  14.168  1.00  0.00     0.029 C 
BRANCH   3   5
HETATM    5  C   UNL     1     -40.928 -52.877  12.161  1.00  0.00     0.169 C 
BRANCH   5   6
HETATM    6  N   UNL     1     -41.378 -51.518  11.942  1.00  0.00    -0.285 N 
HETATM    7  C   UNL     1     -42.438 -50.886  12.511  1.00  0.00     0.201 A 
HETATM    8  N   UNL     1     -42.433 -49.620  12.157  1.00  0.00    -0.346 N 
HETATM    9  C   UNL     1     -41.318 -49.525  11.372  1.00  0.00     0.198 A 
ATOM     10  HN  UNL     1     -43.098 -48.888  12.408  1.00  0.00     0.167 HD
HETATM   11  N   UNL     1     -40.651 -50.667  11.193  1.00  0.00    -0.293 N 
ATOM     12  HN  UNL     1     -39.815 -50.847  10.638  1.00  0.00     0.188 HD
ENDBRANCH   5   6
ENDBRANCH   3   5
ENDBRANCH   1   3
BRANCH   1  13
HETATM   13  S   UNL     1     -43.430 -54.043  14.798  1.00  0.00     0.281 S 
HETATM   14  O   UNL     1     -43.639 -55.168  15.678  1.00  0.00    -0.194 OA
HETATM   15  O   UNL     1     -43.110 -52.734  15.308  1.00  0.00    -0.194 OA
BRANCH  13  16
HETATM   16  N   UNL     1     -44.794 -53.912  13.782  1.00  0.00    -0.197 NA
HETATM   17  C   UNL     1     -45.744 -55.054  13.894  1.00  0.00     0.131 C 
BRANCH  16  18
HETATM   18  C   UNL     1     -45.519 -52.572  13.997  1.00  0.00     0.075 C 
HETATM   19  C   UNL     1     -46.075 -52.016  12.677  1.00  0.00     0.027 C 
BRANCH  18  20
HETATM   20  C   UNL     1     -46.675 -52.694  14.979  1.00  0.00     0.004 A 
HETATM   21  C   UNL     1     -47.156 -51.484  15.758  1.00  0.00     0.007 A 
HETATM   22  C   UNL     1     -46.431 -52.583  16.470  1.00  0.00     0.007 A 
ENDBRANCH  18  20
ENDBRANCH  16  18
ENDBRANCH  13  16
ENDBRANCH   1  13
TORSDOF 7
ENDMDL
MODEL 4
REMARK VINA RESULT:      -5.1      3.652      5.054
REMARK  7 active torsions:
REMARK  status: ('A' for Active; 'I' for Inactive)
REMARK    1  A    between atoms: C_2  and  C_3 
REMARK    2  A    between atoms: C_2  and  N_11 
REMARK    3  A    between atoms: C_3  and  N_4 
REMARK    4  A    between atoms: N_11  and  S_12 
REMARK    5  A    between atoms: S_12  and  N_15 
REMARK    6  A    between atoms: N_15  and  C_17 
REMARK    7  A    between atoms: C_17  and  C_19 
ROOT
HETATM    1  N   UNL     1     -43.448 -55.511  14.833  1.00  0.00    -0.201 NA
HETATM    2  H   UNL     1     -43.897 -56.253  15.368  1.00  0.00     0.141 HD
ENDROOT
BRANCH   1   3
HETATM    3  C   UNL     1     -42.355 -54.907  15.718  1.00  0.00     0.088 C 
HETATM    4  C   UNL     1     -42.272 -55.761  16.990  1.00  0.00     0.029 C 
BRANCH   3   5
HETATM    5  C   UNL     1     -40.979 -54.807  15.033  1.00  0.00     0.169 C 
BRANCH   5   6
HETATM    6  N   UNL     1     -40.925 -53.820  13.974  1.00  0.00    -0.285 N 
HETATM    7  C   UNL     1     -40.331 -52.597  14.000  1.00  0.00     0.201 A 
HETATM    8  N   UNL     1     -40.385 -52.062  12.801  1.00  0.00    -0.346 N 
HETATM    9  C   UNL     1     -41.017 -53.022  12.062  1.00  0.00     0.198 A 
ATOM     10  HN  UNL     1     -40.040 -51.151  12.496  1.00  0.00     0.167 HD
HETATM   11  N   UNL     1     -41.387 -54.110  12.743  1.00  0.00    -0.293 N 
ATOM     12  HN  UNL     1     -41.885 -54.937  12.418  1.00  0.00     0.188 HD
ENDBRANCH   5   6
ENDBRANCH   3   5
ENDBRANCH   1   3
BRANCH   1  13
HETATM   13  S   UNL     1     -44.630 -54.405  14.347  1.00  0.00     0.281 S 
HETATM   14  O   UNL     1     -44.565 -54.345  12.907  1.00  0.00    -0.194 OA
HETATM   15  O   UNL     1     -45.835 -54.797  15.034  1.00  0.00    -0.194 OA
BRANCH  13  16
HETATM   16  N   UNL     1     -44.123 -52.896  14.959  1.00  0.00    -0.197 NA
HETATM   17  C   UNL     1     -44.017 -51.828  13.925  1.00  0.00     0.131 C 
BRANCH  16  18
HETATM   18  C   UNL     1     -45.016 -52.441  16.127  1.00  0.00     0.075 C 
HETATM   19  C   UNL     1     -44.178 -52.011  17.340  1.00  0.00     0.027 C 
BRANCH  18  20
HETATM   20  C   UNL     1     -45.918 -51.278  15.743  1.00  0.00     0.004 A 
HETATM   21  C   UNL     1     -47.362 -51.236  16.208  1.00  0.00     0.007 A 
HETATM   22  C   UNL     1     -47.057 -51.479  14.763  1.00  0.00     0.007 A 
ENDBRANCH  18  20
ENDBRANCH  16  18
ENDBRANCH  13  16
ENDBRANCH   1  13
TORSDOF 7
ENDMDL
MODEL 5
REMARK VINA RESULT:      -5.1      3.009      4.289
REMARK  7 active torsions:
REMARK  status: ('A' for Active; 'I' for Inactive)
REMARK    1  A    between atoms: C_2  and  C_3 
REMARK    2  A    between atoms: C_2  and  N_11 
REMARK    3  A    between atoms: C_3  and  N_4 
REMARK    4  A    between atoms: N_11  and  S_12 
REMARK    5  A    between atoms: S_12  and  N_15 
REMARK    6  A    between atoms: N_15  and  C_17 
REMARK    7  A    between atoms: C_17  and  C_19 
ROOT
HETATM    1  N   UNL     1     -42.100 -54.982  14.641  1.00  0.00    -0.201 NA
HETATM    2  H   UNL     1     -42.132 -55.964  14.907  1.00  0.00     0.141 HD
ENDROOT
BRANCH   1   3
HETATM    3  C   UNL     1     -40.949 -54.335  15.414  1.00  0.00     0.088 C 
HETATM    4  C   UNL     1     -40.407 -55.385  16.392  1.00  0.00     0.029 C 
BRANCH   3   5
HETATM    5  C   UNL     1     -39.823 -53.788  14.517  1.00  0.00     0.169 C 
BRANCH   5   6
HETATM    6  N   UNL     1     -40.299 -53.027  13.381  1.00  0.00    -0.285 N 
HETATM    7  C   UNL     1     -40.117 -51.705  13.122  1.00  0.00     0.201 A 
HETATM    8  N   UNL     1     -40.586 -51.425  11.927  1.00  0.00    -0.346 N 
HETATM    9  C   UNL     1     -41.036 -52.636  11.482  1.00  0.00     0.198 A 
ATOM     10  HN  UNL     1     -40.609 -50.524  11.449  1.00  0.00     0.167 HD
HETATM   11  N   UNL     1     -40.902 -53.644  12.346  1.00  0.00    -0.293 N 
ATOM     12  HN  UNL     1     -41.181 -54.620  12.250  1.00  0.00     0.188 HD
ENDBRANCH   5   6
ENDBRANCH   3   5
ENDBRANCH   1   3
BRANCH   1  13
HETATM   13  S   UNL     1     -43.612 -54.291  14.950  1.00  0.00     0.281 S 
HETATM   14  O   UNL     1     -44.591 -55.320  14.694  1.00  0.00    -0.194 OA
HETATM   15  O   UNL     1     -43.495 -53.663  16.241  1.00  0.00    -0.194 OA
BRANCH  13  16
HETATM   16  N   UNL     1     -43.809 -53.075  13.771  1.00  0.00    -0.197 NA
HETATM   17  C   UNL     1     -44.507 -53.535  12.538  1.00  0.00     0.131 C 
BRANCH  16  18
HETATM   18  C   UNL     1     -44.501 -51.834  14.362  1.00  0.00     0.075 C 
HETATM   19  C   UNL     1     -43.915 -50.536  13.788  1.00  0.00     0.027 C 
BRANCH  18  20
HETATM   20  C   UNL     1     -45.999 -51.829  14.099  1.00  0.00     0.004 A 
HETATM   21  C   UNL     1     -46.963 -51.283  15.136  1.00  0.00     0.007 A 
HETATM   22  C   UNL     1     -46.918 -52.756  14.869  1.00  0.00     0.007 A 
ENDBRANCH  18  20
ENDBRANCH  16  18
ENDBRANCH  13  16
ENDBRANCH   1  13
TORSDOF 7
ENDMDL
MODEL 6
REMARK VINA RESULT:      -5.1      4.202      6.225
REMARK  7 active torsions:
REMARK  status: ('A' for Active; 'I' for Inactive)
REMARK    1  A    between atoms: C_2  and  C_3 
REMARK    2  A    between atoms: C_2  and  N_11 
REMARK    3  A    between atoms: C_3  and  N_4 
REMARK    4  A    between atoms: N_11  and  S_12 
REMARK    5  A    between atoms: S_12  and  N_15 
REMARK    6  A    between atoms: N_15  and  C_17 
REMARK    7  A    between atoms: C_17  and  C_19 
ROOT
HETATM    1  N   UNL     1     -46.423 -53.597  13.702  1.00  0.00    -0.201 NA
HETATM    2  H   UNL     1     -47.011 -53.864  12.915  1.00  0.00     0.141 HD
ENDROOT
BRANCH   1   3
HETATM    3  C   UNL     1     -46.241 -52.078  13.640  1.00  0.00     0.088 C 
HETATM    4  C   UNL     1     -46.786 -51.607  12.287  1.00  0.00     0.029 C 
BRANCH   3   5
HETATM    5  C   UNL     1     -46.917 -51.320  14.798  1.00  0.00     0.169 C 
BRANCH   5   6
HETATM    6  N   UNL     1     -46.254 -51.492  16.075  1.00  0.00    -0.285 N 
HETATM    7  C   UNL     1     -45.744 -50.531  16.889  1.00  0.00     0.201 A 
HETATM    8  N   UNL     1     -45.348 -51.080  18.015  1.00  0.00    -0.346 N 
HETATM    9  C   UNL     1     -45.660 -52.399  17.842  1.00  0.00     0.198 A 
ATOM     10  HN  UNL     1     -44.913 -50.630  18.822  1.00  0.00     0.167 HD
HETATM   11  N   UNL     1     -46.198 -52.704  16.660  1.00  0.00    -0.293 N 
ATOM     12  HN  UNL     1     -46.488 -53.611  16.296  1.00  0.00     0.188 HD
ENDBRANCH   5   6
ENDBRANCH   3   5
ENDBRANCH   1   3
BRANCH   1  13
HETATM   13  S   UNL     1     -44.977 -54.467  13.615  1.00  0.00     0.281 S 
HETATM   14  O   UNL     1     -45.285 -55.814  14.034  1.00  0.00    -0.194 OA
HETATM   15  O   UNL     1     -44.432 -54.188  12.311  1.00  0.00    -0.194 OA
BRANCH  13  16
HETATM   16  N   UNL     1     -43.954 -53.774  14.791  1.00  0.00    -0.197 NA
HETATM   17  C   UNL     1     -43.325 -54.765  15.707  1.00  0.00     0.131 C 
BRANCH  16  18
HETATM   18  C   UNL     1     -42.888 -52.876  14.139  1.00  0.00     0.075 C 
HETATM   19  C   UNL     1     -42.794 -51.513  14.842  1.00  0.00     0.027 C 
BRANCH  18  20
HETATM   20  C   UNL     1     -41.506 -53.512  14.164  1.00  0.00     0.004 A 
HETATM   21  C   UNL     1     -40.389 -52.964  13.296  1.00  0.00     0.007 A 
HETATM   22  C   UNL     1     -40.997 -54.291  12.968  1.00  0.00     0.007 A 
ENDBRANCH  18  20
ENDBRANCH  16  18
ENDBRANCH  13  16
ENDBRANCH   1  13
TORSDOF 7
ENDMDL
MODEL 7
REMARK VINA RESULT:      -5.0      4.608      7.756
REMARK  7 active torsions:
REMARK  status: ('A' for Active; 'I' for Inactive)
REMARK    1  A    between atoms: C_2  and  C_3 
REMARK    2  A    between atoms: C_2  and  N_11 
REMARK    3  A    between atoms: C_3  and  N_4 
REMARK    4  A    between atoms: N_11  and  S_12 
REMARK    5  A    between atoms: S_12  and  N_15 
REMARK    6  A    between atoms: N_15  and  C_17 
REMARK    7  A    between atoms: C_17  and  C_19 
ROOT
HETATM    1  N   UNL     1     -41.312 -46.165   9.848  1.00  0.00    -0.201 NA
HETATM    2  H   UNL     1     -41.167 -45.860   8.887  1.00  0.00     0.141 HD
ENDROOT
BRANCH   1   3
HETATM    3  C   UNL     1     -42.817 -46.369  10.041  1.00  0.00     0.088 C 
HETATM    4  C   UNL     1     -43.477 -46.233   8.663  1.00  0.00     0.029 C 
BRANCH   3   5
HETATM    5  C   UNL     1     -43.187 -47.713  10.696  1.00  0.00     0.169 C 
BRANCH   5   6
HETATM    6  N   UNL     1     -42.047 -48.446  11.208  1.00  0.00    -0.285 N 
HETATM    7  C   UNL     1     -41.757 -48.746  12.502  1.00  0.00     0.201 A 
HETATM    8  N   UNL     1     -40.710 -49.539  12.541  1.00  0.00    -0.346 N 
HETATM    9  C   UNL     1     -40.404 -49.711  11.221  1.00  0.00     0.198 A 
ATOM     10  HN  UNL     1     -40.241 -49.930  13.358  1.00  0.00     0.167 HD
HETATM   11  N   UNL     1     -41.182 -49.043  10.366  1.00  0.00    -0.293 N 
ATOM     12  HN  UNL     1     -41.134 -48.997   9.349  1.00  0.00     0.188 HD
ENDBRANCH   5   6
ENDBRANCH   3   5
ENDBRANCH   1   3
BRANCH   1  13
HETATM   13  S   UNL     1     -40.634 -45.017  10.887  1.00  0.00     0.281 S 
HETATM   14  O   UNL     1     -39.890 -45.754  11.879  1.00  0.00    -0.194 OA
HETATM   15  O   UNL     1     -40.000 -44.046  10.032  1.00  0.00    -0.194 OA
BRANCH  13  16
HETATM   16  N   UNL     1     -41.955 -44.272  11.669  1.00  0.00    -0.197 NA
HETATM   17  C   UNL     1     -42.035 -44.559  13.128  1.00  0.00     0.131 C 
BRANCH  16  18
HETATM   18  C   UNL     1     -41.972 -42.756  11.407  1.00  0.00     0.075 C 
HETATM   19  C   UNL     1     -43.397 -42.247  11.141  1.00  0.00     0.027 C 
BRANCH  18  20
HETATM   20  C   UNL     1     -41.401 -41.963  12.573  1.00  0.00     0.004 A 
HETATM   21  C   UNL     1     -40.643 -40.671  12.330  1.00  0.00     0.007 A 
HETATM   22  C   UNL     1     -39.903 -41.888  12.792  1.00  0.00     0.007 A 
ENDBRANCH  18  20
ENDBRANCH  16  18
ENDBRANCH  13  16
ENDBRANCH   1  13
TORSDOF 7
ENDMDL
MODEL 8
REMARK VINA RESULT:      -5.0      2.116      2.617
REMARK  7 active torsions:
REMARK  status: ('A' for Active; 'I' for Inactive)
REMARK    1  A    between atoms: C_2  and  C_3 
REMARK    2  A    between atoms: C_2  and  N_11 
REMARK    3  A    between atoms: C_3  and  N_4 
REMARK    4  A    between atoms: N_11  and  S_12 
REMARK    5  A    between atoms: S_12  and  N_15 
REMARK    6  A    between atoms: N_15  and  C_17 
REMARK    7  A    between atoms: C_17  and  C_19 
ROOT
HETATM    1  N   UNL     1     -40.915 -50.074  11.493  1.00  0.00    -0.201 NA
HETATM    2  H   UNL     1     -40.322 -50.813  11.122  1.00  0.00     0.141 HD
ENDROOT
BRANCH   1   3
HETATM    3  C   UNL     1     -39.997 -48.946  11.969  1.00  0.00     0.088 C 
HETATM    4  C   UNL     1     -38.556 -49.368  11.658  1.00  0.00     0.029 C 
BRANCH   3   5
HETATM    5  C   UNL     1     -40.315 -47.575  11.344  1.00  0.00     0.169 C 
BRANCH   5   6
HETATM    6  N   UNL     1     -41.655 -47.477  10.801  1.00  0.00    -0.285 N 
HETATM    7  C   UNL     1     -42.695 -46.737  11.268  1.00  0.00     0.201 A 
HETATM    8  N   UNL     1     -43.698 -46.813  10.423  1.00  0.00    -0.346 N 
HETATM    9  C   UNL     1     -43.204 -47.611   9.429  1.00  0.00     0.198 A 
ATOM     10  HN  UNL     1     -44.620 -46.382  10.491  1.00  0.00     0.167 HD
HETATM   11  N   UNL     1     -41.963 -48.061   9.627  1.00  0.00    -0.293 N 
ATOM     12  HN  UNL     1     -41.399 -48.680   9.045  1.00  0.00     0.188 HD
ENDBRANCH   5   6
ENDBRANCH   3   5
ENDBRANCH   1   3
BRANCH   1  13
HETATM   13  S   UNL     1     -41.892 -50.726  12.709  1.00  0.00     0.281 S 
HETATM   14  O   UNL     1     -41.098 -50.723  13.914  1.00  0.00    -0.194 OA
HETATM   15  O   UNL     1     -43.143 -50.017  12.626  1.00  0.00    -0.194 OA
BRANCH  13  16
HETATM   16  N   UNL     1     -42.158 -52.351  12.260  1.00  0.00    -0.197 NA
HETATM   17  C   UNL     1     -40.910 -53.152  12.120  1.00  0.00     0.131 C 
BRANCH  16  18
HETATM   18  C   UNL     1     -43.145 -53.037  13.220  1.00  0.00     0.075 C 
HETATM   19  C   UNL     1     -44.436 -53.449  12.498  1.00  0.00     0.027 C 
BRANCH  18  20
HETATM   20  C   UNL     1     -42.551 -54.280  13.865  1.00  0.00     0.004 A 
HETATM   21  C   UNL     1     -43.254 -54.957  15.027  1.00  0.00     0.007 A 
HETATM   22  C   UNL     1     -41.974 -54.219  15.265  1.00  0.00     0.007 A 
ENDBRANCH  18  20
ENDBRANCH  16  18
ENDBRANCH  13  16
ENDBRANCH   1  13
TORSDOF 7
ENDMDL
MODEL 9
REMARK VINA RESULT:      -5.0      2.152      3.025
REMARK  7 active torsions:
REMARK  status: ('A' for Active; 'I' for Inactive)
REMARK    1  A    between atoms: C_2  and  C_3 
REMARK    2  A    between atoms: C_2  and  N_11 
REMARK    3  A    between atoms: C_3  and  N_4 
REMARK    4  A    between atoms: N_11  and  S_12 
REMARK    5  A    between atoms: S_12  and  N_15 
REMARK    6  A    between atoms: N_15  and  C_17 
REMARK    7  A    between atoms: C_17  and  C_19 
ROOT
HETATM    1  N   UNL     1     -42.825 -54.173  12.788  1.00  0.00    -0.201 NA
HETATM    2  H   UNL     1     -42.477 -55.102  13.021  1.00  0.00     0.141 HD
ENDROOT
BRANCH   1   3
HETATM    3  C   UNL     1     -41.707 -53.175  13.101  1.00  0.00     0.088 C 
HETATM    4  C   UNL     1     -40.578 -53.953  13.788  1.00  0.00     0.029 C 
BRANCH   3   5
HETATM    5  C   UNL     1     -41.180 -52.420  11.866  1.00  0.00     0.169 C 
BRANCH   5   6
HETATM    6  N   UNL     1     -41.240 -50.978  11.995  1.00  0.00    -0.285 N 
HETATM    7  C   UNL     1     -40.205 -50.103  12.098  1.00  0.00     0.201 A 
HETATM    8  N   UNL     1     -40.668 -48.874  12.059  1.00  0.00    -0.346 N 
HETATM    9  C   UNL     1     -42.014 -49.056  11.911  1.00  0.00     0.198 A 
ATOM     10  HN  UNL     1     -40.149 -47.997  12.124  1.00  0.00     0.167 HD
HETATM   11  N   UNL     1     -42.415 -50.329  11.888  1.00  0.00    -0.293 N 
ATOM     12  HN  UNL     1     -43.359 -50.708  11.811  1.00  0.00     0.188 HD
ENDBRANCH   5   6
ENDBRANCH   3   5
ENDBRANCH   1   3
BRANCH   1  13
HETATM   13  S   UNL     1     -44.253 -53.900  13.651  1.00  0.00     0.281 S 
HETATM   14  O   UNL     1     -45.295 -54.611  12.950  1.00  0.00    -0.194 OA
HETATM   15  O   UNL     1     -43.937 -54.186  15.027  1.00  0.00    -0.194 OA
BRANCH  13  16
HETATM   16  N   UNL     1     -44.566 -52.230  13.501  1.00  0.00    -0.197 NA
HETATM   17  C   UNL     1     -45.673 -51.904  12.560  1.00  0.00     0.131 C 
BRANCH  16  18
HETATM   18  C   UNL     1     -44.806 -51.584  14.876  1.00  0.00     0.075 C 
HETATM   19  C   UNL     1     -43.984 -50.298  15.045  1.00  0.00     0.027 C 
BRANCH  18  20
HETATM   20  C   UNL     1     -46.270 -51.239  15.102  1.00  0.00     0.004 A 
HETATM   21  C   UNL     1     -46.844 -51.188  16.506  1.00  0.00     0.007 A 
HETATM   22  C   UNL     1     -47.245 -52.296  15.582  1.00  0.00     0.007 A 
ENDBRANCH  18  20
ENDBRANCH  16  18
ENDBRANCH  13  16
ENDBRANCH   1  13
TORSDOF 7
ENDMDL
