MODEL 1
REMARK VINA RESULT:      -5.5      0.000      0.000
REMARK  5 active torsions:
REMARK  status: ('A' for Active; 'I' for Inactive)
REMARK    1  A    between atoms: C_3  and  C_4 
REMARK    2  A    between atoms: C_4  and  C_5 
REMARK    3  A    between atoms: C_5  and  N_6 
REMARK    4  A    between atoms: N_6  and  C_7 
REMARK    5  A    between atoms: C_7  and  C_8 
ROOT
HETATM    1  C   UNL     1     -45.676 -54.841  13.769  1.00  0.00     0.274 C 
ENDROOT
BRANCH   1   2
HETATM    2  C   UNL     1     -44.226 -54.853  14.270  1.00  0.00     0.072 C 
BRANCH   2   3
HETATM    3  C   UNL     1     -43.344 -53.948  13.491  1.00  0.00    -0.016 A 
HETATM    4  C   UNL     1     -42.039 -53.576  13.774  1.00  0.00     0.032 A 
HETATM    5  C   UNL     1     -41.148 -53.920  14.910  1.00  0.00     0.070 C 
HETATM    6  N   UNL     1     -41.654 -52.777  12.726  1.00  0.00    -0.301 N 
HETATM    7  N   UNL     1     -42.622 -52.583  11.813  1.00  0.00    -0.309 N 
HETATM    8  C   UNL     1     -40.361 -52.162  12.531  1.00  0.00     0.177 C 
HETATM    9  C   UNL     1     -43.645 -53.299  12.276  1.00  0.00     0.116 A 
ATOM     10  HN  UNL     1     -42.583 -52.019  10.965  1.00  0.00     0.186 HD
ENDBRANCH   2   3
ENDBRANCH   1   2
BRANCH   1  11
HETATM   11  N   UNL     1     -46.548 -53.940  14.529  1.00  0.00     0.084 N 
HETATM   12  H   UNL     1     -46.155 -53.777  15.456  1.00  0.00     0.315 HD
BRANCH  11  13
HETATM   13  C   UNL     1     -46.760 -52.661  13.853  1.00  0.00     0.274 C 
BRANCH  13  14
HETATM   14  C   UNL     1     -46.563 -51.481  14.821  1.00  0.00     0.017 C 
HETATM   15  C   UNL     1     -45.074 -51.284  15.138  1.00  0.00     0.010 C 
HETATM   16  C   UNL     1     -44.785 -50.344  16.309  1.00  0.00     0.027 C 
HETATM   17  C   UNL     1     -45.877 -50.229  17.327  1.00  0.00    -0.031 C 
HETATM   18  C   UNL     1     -47.058 -50.848  17.227  1.00  0.00    -0.030 C 
HETATM   19  C   UNL     1     -47.422 -51.723  16.074  1.00  0.00     0.033 C 
ENDBRANCH  13  14
ENDBRANCH  11  13
ENDBRANCH   1  11
TORSDOF 5
ENDMDL
MODEL 2
REMARK VINA RESULT:      -5.4      1.683      4.236
REMARK  5 active torsions:
REMARK  status: ('A' for Active; 'I' for Inactive)
REMARK    1  A    between atoms: C_3  and  C_4 
REMARK    2  A    between atoms: C_4  and  C_5 
REMARK    3  A    between atoms: C_5  and  N_6 
REMARK    4  A    between atoms: N_6  and  C_7 
REMARK    5  A    between atoms: C_7  and  C_8 
ROOT
HETATM    1  C   UNL     1     -46.535 -53.856  15.509  1.00  0.00     0.274 C 
ENDROOT
BRANCH   1   2
HETATM    2  C   UNL     1     -46.964 -52.395  15.324  1.00  0.00     0.072 C 
BRANCH   2   3
HETATM    3  C   UNL     1     -46.054 -51.639  14.427  1.00  0.00    -0.016 A 
HETATM    4  C   UNL     1     -44.865 -51.008  14.752  1.00  0.00     0.032 A 
HETATM    5  C   UNL     1     -44.159 -50.859  16.050  1.00  0.00     0.070 C 
HETATM    6  N   UNL     1     -44.382 -50.507  13.568  1.00  0.00    -0.301 N 
HETATM    7  N   UNL     1     -45.188 -50.742  12.518  1.00  0.00    -0.309 N 
HETATM    8  C   UNL     1     -43.144 -49.790  13.367  1.00  0.00     0.177 C 
HETATM    9  C   UNL     1     -46.198 -51.435  13.039  1.00  0.00     0.116 A 
ATOM     10  HN  UNL     1     -45.056 -50.456  11.548  1.00  0.00     0.186 HD
ENDBRANCH   2   3
ENDBRANCH   1   2
BRANCH   1  11
HETATM   11  N   UNL     1     -46.669 -54.662  14.291  1.00  0.00     0.084 N 
HETATM   12  H   UNL     1     -46.943 -54.066  13.510  1.00  0.00     0.315 HD
BRANCH  11  13
HETATM   13  C   UNL     1     -45.439 -55.378  13.954  1.00  0.00     0.274 C 
BRANCH  13  14
HETATM   14  C   UNL     1     -44.199 -54.503  14.204  1.00  0.00     0.017 C 
HETATM   15  C   UNL     1     -43.598 -54.022  12.876  1.00  0.00     0.010 C 
HETATM   16  C   UNL     1     -42.206 -53.401  12.988  1.00  0.00     0.027 C 
HETATM   17  C   UNL     1     -41.389 -53.857  14.157  1.00  0.00    -0.031 C 
HETATM   18  C   UNL     1     -41.830 -54.709  15.089  1.00  0.00    -0.030 C 
HETATM   19  C   UNL     1     -43.203 -55.295  15.068  1.00  0.00     0.033 C 
ENDBRANCH  13  14
ENDBRANCH  11  13
ENDBRANCH   1  11
TORSDOF 5
ENDMDL
MODEL 3
REMARK VINA RESULT:      -5.2      1.787      2.791
REMARK  5 active torsions:
REMARK  status: ('A' for Active; 'I' for Inactive)
REMARK    1  A    between atoms: C_3  and  C_4 
REMARK    2  A    between atoms: C_4  and  C_5 
REMARK    3  A    between atoms: C_5  and  N_6 
REMARK    4  A    between atoms: N_6  and  C_7 
REMARK    5  A    between atoms: C_7  and  C_8 
ROOT
HETATM    1  C   UNL     1     -42.453 -54.649  14.615  1.00  0.00     0.274 C 
ENDROOT
BRANCH   1   2
HETATM    2  C   UNL     1     -42.001 -53.196  14.803  1.00  0.00     0.072 C 
BRANCH   2   3
HETATM    3  C   UNL     1     -41.635 -52.539  13.523  1.00  0.00    -0.016 A 
HETATM    4  C   UNL     1     -41.254 -51.223  13.317  1.00  0.00     0.032 A 
HETATM    5  C   UNL     1     -41.123 -50.083  14.259  1.00  0.00     0.070 C 
HETATM    6  N   UNL     1     -40.969 -51.132  11.977  1.00  0.00    -0.301 N 
HETATM    7  N   UNL     1     -41.170 -52.280  11.306  1.00  0.00    -0.309 N 
HETATM    8  C   UNL     1     -40.492 -49.969  11.266  1.00  0.00     0.177 C 
HETATM    9  C   UNL     1     -41.568 -53.135  12.247  1.00  0.00     0.116 A 
ATOM     10  HN  UNL     1     -41.047 -52.456  10.309  1.00  0.00     0.186 HD
ENDBRANCH   2   3
ENDBRANCH   1   2
BRANCH   1  11
HETATM   11  N   UNL     1     -43.833 -54.892  15.048  1.00  0.00     0.084 N 
HETATM   12  H   UNL     1     -44.154 -54.120  15.631  1.00  0.00     0.315 HD
BRANCH  11  13
HETATM   13  C   UNL     1     -44.750 -55.074  13.923  1.00  0.00     0.274 C 
BRANCH  13  14
HETATM   14  C   UNL     1     -45.814 -53.964  13.890  1.00  0.00     0.017 C 
HETATM   15  C   UNL     1     -45.416 -52.862  12.898  1.00  0.00     0.010 C 
HETATM   16  C   UNL     1     -46.239 -51.577  13.000  1.00  0.00     0.027 C 
HETATM   17  C   UNL     1     -46.855 -51.311  14.338  1.00  0.00    -0.031 C 
HETATM   18  C   UNL     1     -46.759 -52.142  15.382  1.00  0.00    -0.030 C 
HETATM   19  C   UNL     1     -46.026 -53.441  15.321  1.00  0.00     0.033 C 
ENDBRANCH  13  14
ENDBRANCH  11  13
ENDBRANCH   1  11
TORSDOF 5
ENDMDL
MODEL 4
REMARK VINA RESULT:      -5.2      1.859      3.144
REMARK  5 active torsions:
REMARK  status: ('A' for Active; 'I' for Inactive)
REMARK    1  A    between atoms: C_3  and  C_4 
REMARK    2  A    between atoms: C_4  and  C_5 
REMARK    3  A    between atoms: C_5  and  N_6 
REMARK    4  A    between atoms: N_6  and  C_7 
REMARK    5  A    between atoms: C_7  and  C_8 
ROOT
HETATM    1  C   UNL     1     -42.033 -53.893  15.020  1.00  0.00     0.274 C 
ENDROOT
BRANCH   1   2
HETATM    2  C   UNL     1     -41.095 -54.145  13.833  1.00  0.00     0.072 C 
BRANCH   2   3
HETATM    3  C   UNL     1     -40.837 -52.920  13.035  1.00  0.00    -0.016 A 
HETATM    4  C   UNL     1     -39.829 -51.986  13.206  1.00  0.00     0.032 A 
HETATM    5  C   UNL     1     -38.745 -51.890  14.216  1.00  0.00     0.070 C 
HETATM    6  N   UNL     1     -39.992 -51.082  12.186  1.00  0.00    -0.301 N 
HETATM    7  N   UNL     1     -41.046 -51.349  11.395  1.00  0.00    -0.309 N 
HETATM    8  C   UNL     1     -39.166 -49.931  11.903  1.00  0.00     0.177 C 
HETATM    9  C   UNL     1     -41.554 -52.468  11.908  1.00  0.00     0.116 A 
ATOM     10  HN  UNL     1     -41.379 -50.819  10.590  1.00  0.00     0.186 HD
ENDBRANCH   2   3
ENDBRANCH   1   2
BRANCH   1  11
HETATM   11  N   UNL     1     -43.053 -54.932  15.188  1.00  0.00     0.084 N 
HETATM   12  H   UNL     1     -43.412 -54.914  16.143  1.00  0.00     0.315 HD
BRANCH  11  13
HETATM   13  C   UNL     1     -44.161 -54.790  14.244  1.00  0.00     0.274 C 
BRANCH  13  14
HETATM   14  C   UNL     1     -44.748 -53.369  14.287  1.00  0.00     0.017 C 
HETATM   15  C   UNL     1     -45.802 -53.251  15.397  1.00  0.00     0.010 C 
HETATM   16  C   UNL     1     -46.659 -51.986  15.339  1.00  0.00     0.027 C 
HETATM   17  C   UNL     1     -46.803 -51.367  13.984  1.00  0.00    -0.031 C 
HETATM   18  C   UNL     1     -46.197 -51.829  12.884  1.00  0.00    -0.030 C 
HETATM   19  C   UNL     1     -45.297 -53.019  12.893  1.00  0.00     0.033 C 
ENDBRANCH  13  14
ENDBRANCH  11  13
ENDBRANCH   1  11
TORSDOF 5
ENDMDL
MODEL 5
REMARK VINA RESULT:      -5.1      2.123      3.882
REMARK  5 active torsions:
REMARK  status: ('A' for Active; 'I' for Inactive)
REMARK    1  A    between atoms: C_3  and  C_4 
REMARK    2  A    between atoms: C_4  and  C_5 
REMARK    3  A    between atoms: C_5  and  N_6 
REMARK    4  A    between atoms: N_6  and  C_7 
REMARK    5  A    between atoms: C_7  and  C_8 
ROOT
HETATM    1  C   UNL     1     -41.705 -52.251  13.139  1.00  0.00     0.274 C 
ENDROOT
BRANCH   1   2
HETATM    2  C   UNL     1     -41.318 -53.709  12.865  1.00  0.00     0.072 C 
BRANCH   2   3
HETATM    3  C   UNL     1     -40.490 -54.296  13.949  1.00  0.00    -0.016 A 
HETATM    4  C   UNL     1     -40.915 -54.832  15.154  1.00  0.00     0.032 A 
HETATM    5  C   UNL     1     -42.271 -54.960  15.743  1.00  0.00     0.070 C 
HETATM    6  N   UNL     1     -39.777 -55.288  15.771  1.00  0.00    -0.301 N 
HETATM    7  N   UNL     1     -38.654 -55.055  15.068  1.00  0.00    -0.309 N 
HETATM    8  C   UNL     1     -39.689 -55.965  17.044  1.00  0.00     0.177 C 
HETATM    9  C   UNL     1     -39.089 -54.460  13.960  1.00  0.00     0.116 A 
ATOM     10  HN  UNL     1     -37.693 -55.282  15.324  1.00  0.00     0.186 HD
ENDBRANCH   2   3
ENDBRANCH   1   2
BRANCH   1  11
HETATM   11  N   UNL     1     -43.012 -51.880  12.588  1.00  0.00     0.084 N 
HETATM   12  H   UNL     1     -42.887 -51.289  11.767  1.00  0.00     0.315 HD
BRANCH  11  13
HETATM   13  C   UNL     1     -43.823 -53.045  12.235  1.00  0.00     0.274 C 
BRANCH  13  14
HETATM   14  C   UNL     1     -45.223 -52.960  12.868  1.00  0.00     0.017 C 
HETATM   15  C   UNL     1     -45.500 -51.539  13.380  1.00  0.00     0.010 C 
HETATM   16  C   UNL     1     -46.724 -51.410  14.287  1.00  0.00     0.027 C 
HETATM   17  C   UNL     1     -47.114 -52.653  15.024  1.00  0.00    -0.031 C 
HETATM   18  C   UNL     1     -46.491 -53.829  14.887  1.00  0.00    -0.030 C 
HETATM   19  C   UNL     1     -45.333 -54.031  13.967  1.00  0.00     0.033 C 
ENDBRANCH  13  14
ENDBRANCH  11  13
ENDBRANCH   1  11
TORSDOF 5
ENDMDL
MODEL 6
REMARK VINA RESULT:      -5.0      1.826      5.378
REMARK  5 active torsions:
REMARK  status: ('A' for Active; 'I' for Inactive)
REMARK    1  A    between atoms: C_3  and  C_4 
REMARK    2  A    between atoms: C_4  and  C_5 
REMARK    3  A    between atoms: C_5  and  N_6 
REMARK    4  A    between atoms: N_6  and  C_7 
REMARK    5  A    between atoms: C_7  and  C_8 
ROOT
HETATM    1  C   UNL     1     -42.130 -50.580  12.718  1.00  0.00     0.274 C 
ENDROOT
BRANCH   1   2
HETATM    2  C   UNL     1     -43.442 -50.014  13.274  1.00  0.00     0.072 C 
BRANCH   2   3
HETATM    3  C   UNL     1     -43.885 -50.702  14.512  1.00  0.00    -0.016 A 
HETATM    4  C   UNL     1     -45.105 -51.310  14.762  1.00  0.00     0.032 A 
HETATM    5  C   UNL     1     -46.324 -51.437  13.924  1.00  0.00     0.070 C 
HETATM    6  N   UNL     1     -44.995 -51.844  16.021  1.00  0.00    -0.301 N 
HETATM    7  N   UNL     1     -43.811 -51.597  16.609  1.00  0.00    -0.309 N 
HETATM    8  C   UNL     1     -45.992 -52.613  16.730  1.00  0.00     0.177 C 
HETATM    9  C   UNL     1     -43.136 -50.910  15.689  1.00  0.00     0.116 A 
ATOM     10  HN  UNL     1     -43.501 -51.872  17.540  1.00  0.00     0.186 HD
ENDBRANCH   2   3
ENDBRANCH   1   2
BRANCH   1  11
HETATM   11  N   UNL     1     -42.312 -51.797  11.920  1.00  0.00     0.084 N 
HETATM   12  H   UNL     1     -42.326 -51.561  10.928  1.00  0.00     0.315 HD
BRANCH  11  13
HETATM   13  C   UNL     1     -41.274 -52.796  12.173  1.00  0.00     0.274 C 
BRANCH  13  14
HETATM   14  C   UNL     1     -41.803 -53.932  13.066  1.00  0.00     0.017 C 
HETATM   15  C   UNL     1     -43.338 -53.941  13.079  1.00  0.00     0.010 C 
HETATM   16  C   UNL     1     -43.967 -54.825  14.156  1.00  0.00     0.027 C 
HETATM   17  C   UNL     1     -43.121 -55.064  15.368  1.00  0.00    -0.031 C 
HETATM   18  C   UNL     1     -41.877 -54.597  15.514  1.00  0.00    -0.030 C 
HETATM   19  C   UNL     1     -41.187 -53.785  14.468  1.00  0.00     0.033 C 
ENDBRANCH  13  14
ENDBRANCH  11  13
ENDBRANCH   1  11
TORSDOF 5
ENDMDL
MODEL 7
REMARK VINA RESULT:      -5.0      1.738      3.594
REMARK  5 active torsions:
REMARK  status: ('A' for Active; 'I' for Inactive)
REMARK    1  A    between atoms: C_3  and  C_4 
REMARK    2  A    between atoms: C_4  and  C_5 
REMARK    3  A    between atoms: C_5  and  N_6 
REMARK    4  A    between atoms: N_6  and  C_7 
REMARK    5  A    between atoms: C_7  and  C_8 
ROOT
HETATM    1  C   UNL     1     -41.584 -52.404  12.958  1.00  0.00     0.274 C 
ENDROOT
BRANCH   1   2
HETATM    2  C   UNL     1     -41.875 -53.896  13.159  1.00  0.00     0.072 C 
BRANCH   2   3
HETATM    3  C   UNL     1     -43.019 -54.139  14.073  1.00  0.00    -0.016 A 
HETATM    4  C   UNL     1     -43.070 -53.953  15.445  1.00  0.00     0.032 A 
HETATM    5  C   UNL     1     -42.036 -53.500  16.410  1.00  0.00     0.070 C 
HETATM    6  N   UNL     1     -44.357 -54.264  15.808  1.00  0.00    -0.301 N 
HETATM    7  N   UNL     1     -45.123 -54.666  14.778  1.00  0.00    -0.309 N 
HETATM    8  C   UNL     1     -44.929 -54.195  17.133  1.00  0.00     0.177 C 
HETATM    9  C   UNL     1     -44.312 -54.583  13.725  1.00  0.00     0.116 A 
ATOM     10  HN  UNL     1     -46.098 -54.965  14.798  1.00  0.00     0.186 HD
ENDBRANCH   2   3
ENDBRANCH   1   2
BRANCH   1  11
HETATM   11  N   UNL     1     -42.674 -51.682  12.292  1.00  0.00     0.084 N 
HETATM   12  H   UNL     1     -43.531 -52.232  12.335  1.00  0.00     0.315 HD
BRANCH  11  13
HETATM   13  C   UNL     1     -42.908 -50.360  12.872  1.00  0.00     0.274 C 
BRANCH  13  14
HETATM   14  C   UNL     1     -44.268 -50.300  13.587  1.00  0.00     0.017 C 
HETATM   15  C   UNL     1     -44.102 -50.567  15.090  1.00  0.00     0.010 C 
HETATM   16  C   UNL     1     -45.406 -50.827  15.844  1.00  0.00     0.027 C 
HETATM   17  C   UNL     1     -46.530 -51.374  15.020  1.00  0.00    -0.031 C 
HETATM   18  C   UNL     1     -46.454 -51.584  13.701  1.00  0.00    -0.030 C 
HETATM   19  C   UNL     1     -45.230 -51.285  12.901  1.00  0.00     0.033 C 
ENDBRANCH  13  14
ENDBRANCH  11  13
ENDBRANCH   1  11
TORSDOF 5
ENDMDL
MODEL 8
REMARK VINA RESULT:      -5.0      3.776      6.119
REMARK  5 active torsions:
REMARK  status: ('A' for Active; 'I' for Inactive)
REMARK    1  A    between atoms: C_3  and  C_4 
REMARK    2  A    between atoms: C_4  and  C_5 
REMARK    3  A    between atoms: C_5  and  N_6 
REMARK    4  A    between atoms: N_6  and  C_7 
REMARK    5  A    between atoms: C_7  and  C_8 
ROOT
HETATM    1  C   UNL     1     -40.616 -51.075  11.580  1.00  0.00     0.274 C 
ENDROOT
BRANCH   1   2
HETATM    2  C   UNL     1     -41.597 -49.992  12.048  1.00  0.00     0.072 C 
BRANCH   2   3
HETATM    3  C   UNL     1     -41.226 -48.637  11.569  1.00  0.00    -0.016 A 
HETATM    4  C   UNL     1     -42.064 -47.636  11.107  1.00  0.00     0.032 A 
HETATM    5  C   UNL     1     -43.536 -47.602  10.918  1.00  0.00     0.070 C 
HETATM    6  N   UNL     1     -41.244 -46.567  10.843  1.00  0.00    -0.301 N 
HETATM    7  N   UNL     1     -39.942 -46.820  11.070  1.00  0.00    -0.309 N 
HETATM    8  C   UNL     1     -41.641 -45.261  10.371  1.00  0.00     0.177 C 
HETATM    9  C   UNL     1     -39.934 -48.074  11.517  1.00  0.00     0.116 A 
ATOM     10  HN  UNL     1     -39.147 -46.196  10.932  1.00  0.00     0.186 HD
ENDBRANCH   2   3
ENDBRANCH   1   2
BRANCH   1  11
HETATM   11  N   UNL     1     -41.237 -52.395  11.421  1.00  0.00     0.084 N 
HETATM   12  H   UNL     1     -40.866 -52.854  10.590  1.00  0.00     0.315 HD
BRANCH  11  13
HETATM   13  C   UNL     1     -41.037 -53.253  12.588  1.00  0.00     0.274 C 
BRANCH  13  14
HETATM   14  C   UNL     1     -42.335 -53.396  13.401  1.00  0.00     0.017 C 
HETATM   15  C   UNL     1     -42.271 -54.631  14.311  1.00  0.00     0.010 C 
HETATM   16  C   UNL     1     -43.605 -55.038  14.936  1.00  0.00     0.027 C 
HETATM   17  C   UNL     1     -44.826 -54.626  14.174  1.00  0.00    -0.031 C 
HETATM   18  C   UNL     1     -44.795 -53.905  13.048  1.00  0.00    -0.030 C 
HETATM   19  C   UNL     1     -43.526 -53.422  12.428  1.00  0.00     0.033 C 
ENDBRANCH  13  14
ENDBRANCH  11  13
ENDBRANCH   1  11
TORSDOF 5
ENDMDL
MODEL 9
REMARK VINA RESULT:      -4.8      2.011      5.413
REMARK  5 active torsions:
REMARK  status: ('A' for Active; 'I' for Inactive)
REMARK    1  A    between atoms: C_3  and  C_4 
REMARK    2  A    between atoms: C_4  and  C_5 
REMARK    3  A    between atoms: C_5  and  N_6 
REMARK    4  A    between atoms: N_6  and  C_7 
REMARK    5  A    between atoms: C_7  and  C_8 
ROOT
HETATM    1  C   UNL     1     -46.287 -51.429  13.279  1.00  0.00     0.274 C 
ENDROOT
BRANCH   1   2
HETATM    2  C   UNL     1     -46.818 -52.235  14.471  1.00  0.00     0.072 C 
BRANCH   2   3
HETATM    3  C   UNL     1     -46.681 -51.510  15.759  1.00  0.00    -0.016 A 
HETATM    4  C   UNL     1     -45.524 -51.029  16.350  1.00  0.00     0.032 A 
HETATM    5  C   UNL     1     -44.103 -51.105  15.923  1.00  0.00     0.070 C 
HETATM    6  N   UNL     1     -45.936 -50.392  17.493  1.00  0.00    -0.301 N 
HETATM    7  N   UNL     1     -47.264 -50.457  17.696  1.00  0.00    -0.309 N 
HETATM    8  C   UNL     1     -45.106 -49.690  18.446  1.00  0.00     0.177 C 
HETATM    9  C   UNL     1     -47.715 -51.129  16.639  1.00  0.00     0.116 A 
ATOM     10  HN  UNL     1     -47.800 -50.079  18.476  1.00  0.00     0.186 HD
ENDBRANCH   2   3
ENDBRANCH   1   2
BRANCH   1  11
HETATM   11  N   UNL     1     -45.212 -52.110  12.547  1.00  0.00     0.084 N 
HETATM   12  H   UNL     1     -44.306 -51.794  12.891  1.00  0.00     0.315 HD
BRANCH  11  13
HETATM   13  C   UNL     1     -45.298 -53.566  12.650  1.00  0.00     0.274 C 
BRANCH  13  14
HETATM   14  C   UNL     1     -43.956 -54.171  13.098  1.00  0.00     0.017 C 
HETATM   15  C   UNL     1     -44.073 -54.761  14.510  1.00  0.00     0.010 C 
HETATM   16  C   UNL     1     -42.740 -55.117  15.170  1.00  0.00     0.027 C 
HETATM   17  C   UNL     1     -41.554 -54.343  14.685  1.00  0.00    -0.031 C 
HETATM   18  C   UNL     1     -41.606 -53.432  13.707  1.00  0.00    -0.030 C 
HETATM   19  C   UNL     1     -42.866 -53.092  12.981  1.00  0.00     0.033 C 
ENDBRANCH  13  14
ENDBRANCH  11  13
ENDBRANCH   1  11
TORSDOF 5
ENDMDL
