MODEL 1
REMARK VINA RESULT:      -5.6      0.000      0.000
REMARK  4 active torsions:
REMARK  status: ('A' for Active; 'I' for Inactive)
REMARK    1  A    between atoms: C_2  and  N_3 
REMARK    2  A    between atoms: C_2  and  C_9 
REMARK    3  A    between atoms: N_3  and  C_4 
REMARK    4  A    between atoms: C_9  and  N_11 
ROOT
HETATM    1  C   UNL     1     -41.072 -46.785  12.827  1.00  0.00     0.045 C 
HETATM    2  C   UNL     1     -40.777 -47.296  11.409  1.00  0.00     0.241 C 
ENDROOT
BRANCH   2   3
HETATM    3  N   UNL     1     -39.364 -47.749  11.319  1.00  0.00     0.094 N 
HETATM    4  H   UNL     1     -38.779 -47.012  11.728  1.00  0.00     0.317 HD
BRANCH   3   5
HETATM    5  C   UNL     1     -39.065 -48.990  12.032  1.00  0.00     0.221 C 
HETATM    6  C   UNL     1     -38.558 -48.819  13.470  1.00  0.00     0.035 C 
HETATM    7  C   UNL     1     -37.596 -49.982  13.722  1.00  0.00     0.002 C 
HETATM    8  C   UNL     1     -37.521 -50.763  12.415  1.00  0.00     0.002 C 
HETATM    9  C   UNL     1     -37.924 -49.753  11.353  1.00  0.00     0.035 C 
ENDBRANCH   3   5
ENDBRANCH   2   3
BRANCH   2  10
HETATM   10  C   UNL     1     -41.758 -48.451  11.013  1.00  0.00     0.136 C 
HETATM   11  C   UNL     1     -42.428 -49.122  12.218  1.00  0.00     0.036 C 
BRANCH  10  12
HETATM   12  N   UNL     1     -42.798 -47.992  10.087  1.00  0.00    -0.297 N 
HETATM   13  C   UNL     1     -44.046 -47.542  10.421  1.00  0.00     0.118 A 
HETATM   14  C   UNL     1     -44.694 -47.268   9.237  1.00  0.00    -0.028 A 
HETATM   15  C   UNL     1     -46.072 -46.766   9.037  1.00  0.00     0.051 C 
HETATM   16  C   UNL     1     -43.738 -47.581   8.243  1.00  0.00     0.115 A 
HETATM   17  N   UNL     1     -42.590 -48.025   8.755  1.00  0.00    -0.309 N 
ATOM     18  HN  UNL     1     -41.751 -48.321   8.256  1.00  0.00     0.186 HD
ENDBRANCH  10  12
ENDBRANCH   2  10
TORSDOF 4
ENDMDL
MODEL 2
REMARK VINA RESULT:      -5.5      5.283      6.645
REMARK  4 active torsions:
REMARK  status: ('A' for Active; 'I' for Inactive)
REMARK    1  A    between atoms: C_2  and  N_3 
REMARK    2  A    between atoms: C_2  and  C_9 
REMARK    3  A    between atoms: N_3  and  C_4 
REMARK    4  A    between atoms: C_9  and  N_11 
ROOT
HETATM    1  C   UNL     1     -44.807 -54.336  13.161  1.00  0.00     0.045 C 
HETATM    2  C   UNL     1     -44.130 -52.957  13.181  1.00  0.00     0.241 C 
ENDROOT
BRANCH   2   3
HETATM    3  N   UNL     1     -43.195 -52.837  12.031  1.00  0.00     0.094 N 
HETATM    4  H   UNL     1     -43.425 -51.967  11.539  1.00  0.00     0.317 HD
BRANCH   3   5
HETATM    5  C   UNL     1     -41.778 -52.776  12.389  1.00  0.00     0.221 C 
HETATM    6  C   UNL     1     -41.144 -54.110  12.803  1.00  0.00     0.035 C 
HETATM    7  C   UNL     1     -40.071 -53.766  13.838  1.00  0.00     0.002 C 
HETATM    8  C   UNL     1     -40.147 -52.258  14.045  1.00  0.00     0.002 C 
HETATM    9  C   UNL     1     -41.561 -51.893  13.620  1.00  0.00     0.035 C 
ENDBRANCH   3   5
ENDBRANCH   2   3
BRANCH   2  10
HETATM   10  C   UNL     1     -45.194 -51.808  13.156  1.00  0.00     0.136 C 
HETATM   11  C   UNL     1     -46.397 -52.111  12.255  1.00  0.00     0.036 C 
BRANCH  10  12
HETATM   12  N   UNL     1     -45.679 -51.483  14.501  1.00  0.00    -0.297 N 
HETATM   13  C   UNL     1     -46.968 -51.585  14.949  1.00  0.00     0.118 A 
HETATM   14  C   UNL     1     -46.968 -51.129  16.250  1.00  0.00    -0.028 A 
HETATM   15  C   UNL     1     -48.109 -51.018  17.185  1.00  0.00     0.051 C 
HETATM   16  C   UNL     1     -45.618 -50.784  16.491  1.00  0.00     0.115 A 
HETATM   17  N   UNL     1     -44.836 -50.992  15.431  1.00  0.00    -0.309 N 
ATOM     18  HN  UNL     1     -43.834 -50.820  15.345  1.00  0.00     0.186 HD
ENDBRANCH  10  12
ENDBRANCH   2  10
TORSDOF 4
ENDMDL
MODEL 3
REMARK VINA RESULT:      -5.4      4.099      6.919
REMARK  4 active torsions:
REMARK  status: ('A' for Active; 'I' for Inactive)
REMARK    1  A    between atoms: C_2  and  N_3 
REMARK    2  A    between atoms: C_2  and  C_9 
REMARK    3  A    between atoms: N_3  and  C_4 
REMARK    4  A    between atoms: C_9  and  N_11 
ROOT
HETATM    1  C   UNL     1     -42.272 -54.168  13.269  1.00  0.00     0.045 C 
HETATM    2  C   UNL     1     -42.687 -52.896  12.513  1.00  0.00     0.241 C 
ENDROOT
BRANCH   2   3
HETATM    3  N   UNL     1     -44.164 -52.869  12.345  1.00  0.00     0.094 N 
HETATM    4  H   UNL     1     -44.458 -53.813  12.073  1.00  0.00     0.317 HD
BRANCH   3   5
HETATM    5  C   UNL     1     -44.917 -52.504  13.544  1.00  0.00     0.221 C 
HETATM    6  C   UNL     1     -45.791 -53.617  14.137  1.00  0.00     0.035 C 
HETATM    7  C   UNL     1     -47.003 -52.918  14.757  1.00  0.00     0.002 C 
HETATM    8  C   UNL     1     -46.837 -51.432  14.460  1.00  0.00     0.002 C 
HETATM    9  C   UNL     1     -45.928 -51.396  13.241  1.00  0.00     0.035 C 
ENDBRANCH   3   5
ENDBRANCH   2   3
BRANCH   2  10
HETATM   10  C   UNL     1     -42.187 -51.612  13.257  1.00  0.00     0.136 C 
HETATM   11  C   UNL     1     -41.603 -51.900  14.646  1.00  0.00     0.036 C 
BRANCH  10  12
HETATM   12  N   UNL     1     -41.194 -50.875  12.470  1.00  0.00    -0.297 N 
HETATM   13  C   UNL     1     -39.840 -50.871  12.665  1.00  0.00     0.118 A 
HETATM   14  C   UNL     1     -39.312 -50.007  11.729  1.00  0.00    -0.028 A 
HETATM   15  C   UNL     1     -37.895 -49.634  11.518  1.00  0.00     0.051 C 
HETATM   16  C   UNL     1     -40.440 -49.549  11.011  1.00  0.00     0.115 A 
HETATM   17  N   UNL     1     -41.583 -50.069  11.461  1.00  0.00    -0.309 N 
ATOM     18  HN  UNL     1     -42.530 -49.898  11.122  1.00  0.00     0.186 HD
ENDBRANCH  10  12
ENDBRANCH   2  10
TORSDOF 4
ENDMDL
MODEL 4
REMARK VINA RESULT:      -5.4      2.097      3.361
REMARK  4 active torsions:
REMARK  status: ('A' for Active; 'I' for Inactive)
REMARK    1  A    between atoms: C_2  and  N_3 
REMARK    2  A    between atoms: C_2  and  C_9 
REMARK    3  A    between atoms: N_3  and  C_4 
REMARK    4  A    between atoms: C_9  and  N_11 
ROOT
HETATM    1  C   UNL     1     -42.649 -49.138  12.177  1.00  0.00     0.045 C 
HETATM    2  C   UNL     1     -41.449 -48.524  11.438  1.00  0.00     0.241 C 
ENDROOT
BRANCH   2   3
HETATM    3  N   UNL     1     -40.667 -49.597  10.768  1.00  0.00     0.094 N 
HETATM    4  H   UNL     1     -40.425 -49.258   9.830  1.00  0.00     0.317 HD
BRANCH   3   5
HETATM    5  C   UNL     1     -39.420 -49.964  11.437  1.00  0.00     0.221 C 
HETATM    6  C   UNL     1     -39.534 -51.087  12.475  1.00  0.00     0.035 C 
HETATM    7  C   UNL     1     -38.488 -50.780  13.548  1.00  0.00     0.002 C 
HETATM    8  C   UNL     1     -37.835 -49.463  13.143  1.00  0.00     0.002 C 
HETATM    9  C   UNL     1     -38.871 -48.792  12.255  1.00  0.00     0.035 C 
ENDBRANCH   3   5
ENDBRANCH   2   3
BRANCH   2  10
HETATM   10  C   UNL     1     -41.919 -47.447  10.402  1.00  0.00     0.136 C 
HETATM   11  C   UNL     1     -43.430 -47.188  10.435  1.00  0.00     0.036 C 
BRANCH  10  12
HETATM   12  N   UNL     1     -41.216 -46.173  10.581  1.00  0.00    -0.297 N 
HETATM   13  C   UNL     1     -41.730 -45.028  11.125  1.00  0.00     0.118 A 
HETATM   14  C   UNL     1     -40.736 -44.076  11.047  1.00  0.00    -0.028 A 
HETATM   15  C   UNL     1     -40.780 -42.663  11.485  1.00  0.00     0.051 C 
HETATM   16  C   UNL     1     -39.655 -44.759  10.444  1.00  0.00     0.115 A 
HETATM   17  N   UNL     1     -39.945 -46.029  10.156  1.00  0.00    -0.309 N 
ATOM     18  HN  UNL     1     -39.344 -46.727   9.716  1.00  0.00     0.186 HD
ENDBRANCH  10  12
ENDBRANCH   2  10
TORSDOF 4
ENDMDL
MODEL 5
REMARK VINA RESULT:      -5.3      4.035      5.698
REMARK  4 active torsions:
REMARK  status: ('A' for Active; 'I' for Inactive)
REMARK    1  A    between atoms: C_2  and  N_3 
REMARK    2  A    between atoms: C_2  and  C_9 
REMARK    3  A    between atoms: N_3  and  C_4 
REMARK    4  A    between atoms: C_9  and  N_11 
ROOT
HETATM    1  C   UNL     1     -39.607 -51.476  14.219  1.00  0.00     0.045 C 
HETATM    2  C   UNL     1     -40.451 -51.676  12.951  1.00  0.00     0.241 C 
ENDROOT
BRANCH   2   3
HETATM    3  N   UNL     1     -39.728 -51.130  11.772  1.00  0.00     0.094 N 
HETATM    4  H   UNL     1     -39.857 -51.793  11.000  1.00  0.00     0.317 HD
BRANCH   3   5
HETATM    5  C   UNL     1     -40.196 -49.824  11.310  1.00  0.00     0.221 C 
HETATM    6  C   UNL     1     -39.391 -48.619  11.814  1.00  0.00     0.035 C 
HETATM    7  C   UNL     1     -40.389 -47.467  11.944  1.00  0.00     0.002 C 
HETATM    8  C   UNL     1     -41.753 -48.040  11.574  1.00  0.00     0.002 C 
HETATM    9  C   UNL     1     -41.609 -49.533  11.822  1.00  0.00     0.035 C 
ENDBRANCH   3   5
ENDBRANCH   2   3
BRANCH   2  10
HETATM   10  C   UNL     1     -40.798 -53.189  12.740  1.00  0.00     0.136 C 
HETATM   11  C   UNL     1     -40.075 -54.122  13.720  1.00  0.00     0.036 C 
BRANCH  10  12
HETATM   12  N   UNL     1     -42.240 -53.437  12.826  1.00  0.00    -0.297 N 
HETATM   13  C   UNL     1     -42.866 -54.331  13.651  1.00  0.00     0.118 A 
HETATM   14  C   UNL     1     -44.211 -54.261  13.357  1.00  0.00    -0.028 A 
HETATM   15  C   UNL     1     -45.324 -55.030  13.956  1.00  0.00     0.051 C 
HETATM   16  C   UNL     1     -44.288 -53.280  12.342  1.00  0.00     0.115 A 
HETATM   17  N   UNL     1     -43.095 -52.783  12.014  1.00  0.00    -0.309 N 
ATOM     18  HN  UNL     1     -42.880 -52.074  11.313  1.00  0.00     0.186 HD
ENDBRANCH  10  12
ENDBRANCH   2  10
TORSDOF 4
ENDMDL
MODEL 6
REMARK VINA RESULT:      -5.2      2.698      4.054
REMARK  4 active torsions:
REMARK  status: ('A' for Active; 'I' for Inactive)
REMARK    1  A    between atoms: C_2  and  N_3 
REMARK    2  A    between atoms: C_2  and  C_9 
REMARK    3  A    between atoms: N_3  and  C_4 
REMARK    4  A    between atoms: C_9  and  N_11 
ROOT
HETATM    1  C   UNL     1     -42.895 -48.878  13.106  1.00  0.00     0.045 C 
HETATM    2  C   UNL     1     -41.860 -48.976  11.976  1.00  0.00     0.241 C 
ENDROOT
BRANCH   2   3
HETATM    3  N   UNL     1     -41.757 -50.383  11.507  1.00  0.00     0.094 N 
HETATM    4  H   UNL     1     -40.884 -50.465  10.975  1.00  0.00     0.317 HD
BRANCH   3   5
HETATM    5  C   UNL     1     -41.718 -51.388  12.568  1.00  0.00     0.221 C 
HETATM    6  C   UNL     1     -40.382 -52.124  12.731  1.00  0.00     0.035 C 
HETATM    7  C   UNL     1     -40.731 -53.536  13.207  1.00  0.00     0.002 C 
HETATM    8  C   UNL     1     -42.253 -53.607  13.252  1.00  0.00     0.002 C 
HETATM    9  C   UNL     1     -42.705 -52.524  12.285  1.00  0.00     0.035 C 
ENDBRANCH   3   5
ENDBRANCH   2   3
BRANCH   2  10
HETATM   10  C   UNL     1     -42.229 -48.020  10.791  1.00  0.00     0.136 C 
HETATM   11  C   UNL     1     -43.721 -47.667  10.734  1.00  0.00     0.036 C 
BRANCH  10  12
HETATM   12  N   UNL     1     -41.450 -46.778  10.827  1.00  0.00    -0.297 N 
HETATM   13  C   UNL     1     -41.922 -45.528  11.118  1.00  0.00     0.118 A 
HETATM   14  C   UNL     1     -40.856 -44.665  10.984  1.00  0.00    -0.028 A 
HETATM   15  C   UNL     1     -40.831 -43.198  11.175  1.00  0.00     0.051 C 
HETATM   16  C   UNL     1     -39.780 -45.506  10.617  1.00  0.00     0.115 A 
HETATM   17  N   UNL     1     -40.138 -46.786  10.515  1.00  0.00    -0.309 N 
ATOM     18  HN  UNL     1     -39.556 -47.585  10.261  1.00  0.00     0.186 HD
ENDBRANCH  10  12
ENDBRANCH   2  10
TORSDOF 4
ENDMDL
MODEL 7
REMARK VINA RESULT:      -5.1      2.791      5.732
REMARK  4 active torsions:
REMARK  status: ('A' for Active; 'I' for Inactive)
REMARK    1  A    between atoms: C_2  and  N_3 
REMARK    2  A    between atoms: C_2  and  C_9 
REMARK    3  A    between atoms: N_3  and  C_4 
REMARK    4  A    between atoms: C_9  and  N_11 
ROOT
HETATM    1  C   UNL     1     -39.601 -47.864  13.245  1.00  0.00     0.045 C 
HETATM    2  C   UNL     1     -40.247 -48.478  11.994  1.00  0.00     0.241 C 
ENDROOT
BRANCH   2   3
HETATM    3  N   UNL     1     -40.349 -47.451  10.923  1.00  0.00     0.094 N 
HETATM    4  H   UNL     1     -41.213 -47.638  10.401  1.00  0.00     0.317 HD
BRANCH   3   5
HETATM    5  C   UNL     1     -40.414 -46.069  11.395  1.00  0.00     0.221 C 
HETATM    6  C   UNL     1     -41.827 -45.487  11.542  1.00  0.00     0.035 C 
HETATM    7  C   UNL     1     -41.705 -43.994  11.232  1.00  0.00     0.002 C 
HETATM    8  C   UNL     1     -40.247 -43.754  10.857  1.00  0.00     0.002 C 
HETATM    9  C   UNL     1     -39.751 -45.116  10.396  1.00  0.00     0.035 C 
ENDBRANCH   3   5
ENDBRANCH   2   3
BRANCH   2  10
HETATM   10  C   UNL     1     -39.437 -49.723  11.496  1.00  0.00     0.136 C 
HETATM   11  C   UNL     1     -37.943 -49.652  11.835  1.00  0.00     0.036 C 
BRANCH  10  12
HETATM   12  N   UNL     1     -39.983 -50.977  12.023  1.00  0.00    -0.297 N 
HETATM   13  C   UNL     1     -39.583 -51.628  13.157  1.00  0.00     0.118 A 
HETATM   14  C   UNL     1     -40.334 -52.781  13.234  1.00  0.00    -0.028 A 
HETATM   15  C   UNL     1     -40.285 -53.843  14.263  1.00  0.00     0.051 C 
HETATM   16  C   UNL     1     -41.168 -52.722  12.094  1.00  0.00     0.115 A 
HETATM   17  N   UNL     1     -40.954 -51.633  11.355  1.00  0.00    -0.309 N 
ATOM     18  HN  UNL     1     -41.416 -51.360  10.487  1.00  0.00     0.186 HD
ENDBRANCH  10  12
ENDBRANCH   2  10
TORSDOF 4
ENDMDL
MODEL 8
REMARK VINA RESULT:      -5.1      4.418      7.195
REMARK  4 active torsions:
REMARK  status: ('A' for Active; 'I' for Inactive)
REMARK    1  A    between atoms: C_2  and  N_3 
REMARK    2  A    between atoms: C_2  and  C_9 
REMARK    3  A    between atoms: N_3  and  C_4 
REMARK    4  A    between atoms: C_9  and  N_11 
ROOT
HETATM    1  C   UNL     1     -43.174 -48.882  12.312  1.00  0.00     0.045 C 
HETATM    2  C   UNL     1     -42.935 -50.231  13.006  1.00  0.00     0.241 C 
ENDROOT
BRANCH   2   3
HETATM    3  N   UNL     1     -44.013 -51.186  12.638  1.00  0.00     0.094 N 
HETATM    4  H   UNL     1     -43.565 -52.002  12.206  1.00  0.00     0.317 HD
BRANCH   3   5
HETATM    5  C   UNL     1     -44.820 -51.672  13.757  1.00  0.00     0.221 C 
HETATM    6  C   UNL     1     -46.339 -51.575  13.566  1.00  0.00     0.035 C 
HETATM    7  C   UNL     1     -46.926 -51.328  14.958  1.00  0.00     0.002 C 
HETATM    8  C   UNL     1     -45.739 -51.229  15.909  1.00  0.00     0.002 C 
HETATM    9  C   UNL     1     -44.576 -50.833  15.014  1.00  0.00     0.035 C 
ENDBRANCH   3   5
ENDBRANCH   2   3
BRANCH   2  10
HETATM   10  C   UNL     1     -41.527 -50.811  12.637  1.00  0.00     0.136 C 
HETATM   11  C   UNL     1     -40.362 -49.961  13.159  1.00  0.00     0.036 C 
BRANCH  10  12
HETATM   12  N   UNL     1     -41.361 -52.187  13.114  1.00  0.00    -0.297 N 
HETATM   13  C   UNL     1     -41.220 -52.588  14.414  1.00  0.00     0.118 A 
HETATM   14  C   UNL     1     -41.044 -53.955  14.387  1.00  0.00    -0.028 A 
HETATM   15  C   UNL     1     -40.834 -54.878  15.524  1.00  0.00     0.051 C 
HETATM   16  C   UNL     1     -41.104 -54.279  13.012  1.00  0.00     0.115 A 
HETATM   17  N   UNL     1     -41.290 -53.210  12.238  1.00  0.00    -0.309 N 
ATOM     18  HN  UNL     1     -41.363 -53.174  11.221  1.00  0.00     0.186 HD
ENDBRANCH  10  12
ENDBRANCH   2  10
TORSDOF 4
ENDMDL
MODEL 9
REMARK VINA RESULT:      -5.0      2.337      4.094
REMARK  4 active torsions:
REMARK  status: ('A' for Active; 'I' for Inactive)
REMARK    1  A    between atoms: C_2  and  N_3 
REMARK    2  A    between atoms: C_2  and  C_9 
REMARK    3  A    between atoms: N_3  and  C_4 
REMARK    4  A    between atoms: C_9  and  N_11 
ROOT
HETATM    1  C   UNL     1     -42.662 -47.267  13.116  1.00  0.00     0.045 C 
HETATM    2  C   UNL     1     -41.993 -46.519  11.953  1.00  0.00     0.241 C 
ENDROOT
BRANCH   2   3
HETATM    3  N   UNL     1     -40.723 -45.899  12.415  1.00  0.00     0.094 N 
HETATM    4  H   UNL     1     -40.045 -45.984  11.650  1.00  0.00     0.317 HD
BRANCH   3   5
HETATM    5  C   UNL     1     -40.816 -44.481  12.761  1.00  0.00     0.221 C 
HETATM    6  C   UNL     1     -41.469 -43.585  11.700  1.00  0.00     0.035 C 
HETATM    7  C   UNL     1     -40.786 -42.221  11.818  1.00  0.00     0.002 C 
HETATM    8  C   UNL     1     -39.717 -42.372  12.895  1.00  0.00     0.002 C 
HETATM    9  C   UNL     1     -39.425 -43.864  12.924  1.00  0.00     0.035 C 
ENDBRANCH   3   5
ENDBRANCH   2   3
BRANCH   2  10
HETATM   10  C   UNL     1     -41.736 -47.478  10.741  1.00  0.00     0.136 C 
HETATM   11  C   UNL     1     -41.372 -48.907  11.162  1.00  0.00     0.036 C 
BRANCH  10  12
HETATM   12  N   UNL     1     -42.884 -47.529   9.831  1.00  0.00    -0.297 N 
HETATM   13  C   UNL     1     -44.193 -47.297  10.156  1.00  0.00     0.118 A 
HETATM   14  C   UNL     1     -44.925 -47.504   9.007  1.00  0.00    -0.028 A 
HETATM   15  C   UNL     1     -46.389 -47.396   8.817  1.00  0.00     0.051 C 
HETATM   16  C   UNL     1     -43.953 -47.850   8.040  1.00  0.00     0.115 A 
HETATM   17  N   UNL     1     -42.716 -47.871   8.538  1.00  0.00    -0.309 N 
ATOM     18  HN  UNL     1     -41.846 -48.095   8.053  1.00  0.00     0.186 HD
ENDBRANCH  10  12
ENDBRANCH   2  10
TORSDOF 4
ENDMDL
