MODEL 1
REMARK VINA RESULT:      -6.9      0.000      0.000
REMARK  4 active torsions:
REMARK  status: ('A' for Active; 'I' for Inactive)
REMARK    1  A    between atoms: N_7  and  C_8 
REMARK    2  A    between atoms: C_8  and  C_9 
REMARK       I    between atoms: C_9  and  N_11 
REMARK    3  A    between atoms: N_11  and  C_12 
REMARK    4  A    between atoms: C_16  and  C_19 
ROOT
HETATM    1  C   UNL     1     -42.224 -48.624  11.757  1.00  0.00     0.237 C 
HETATM    2  O   UNL     1     -42.348 -47.926  12.761  1.00  0.00    -0.272 OA
HETATM    3  N   UNL     1     -42.329 -50.006  11.793  1.00  0.00    -0.355 N 
HETATM    4  H   UNL     1     -42.236 -50.535  10.929  1.00  0.00     0.162 HD
ENDROOT
BRANCH   3   5
HETATM    5  C   UNL     1     -42.692 -50.686  13.033  1.00  0.00     0.084 C 
HETATM    6  C   UNL     1     -42.135 -52.115  13.079  1.00  0.00     0.025 C 
HETATM    7  C   UNL     1     -42.095 -52.661  14.507  1.00  0.00     0.002 C 
HETATM    8  C   UNL     1     -43.376 -53.328  15.023  1.00  0.00     0.005 C 
HETATM    9  C   UNL     1     -44.741 -52.694  14.653  1.00  0.00    -0.007 C 
HETATM   10  C   UNL     1     -44.662 -51.153  14.606  1.00  0.00     0.007 C 
HETATM   11  C   UNL     1     -44.208 -50.634  13.238  1.00  0.00     0.025 C 
BRANCH   9  12
HETATM   12  C   UNL     1     -45.933 -53.232  15.547  1.00  0.00    -0.048 C 
HETATM   13  C   UNL     1     -45.489 -53.574  16.981  1.00  0.00     0.015 C 
HETATM   14  C   UNL     1     -47.073 -52.186  15.637  1.00  0.00     0.015 C 
HETATM   15  C   UNL     1     -46.550 -54.496  14.907  1.00  0.00     0.015 C 
ENDBRANCH   9  12
ENDBRANCH   3   5
BRANCH   1  16
HETATM   16  C   UNL     1     -41.925 -48.025  10.386  1.00  0.00     0.255 C 
BRANCH  16  17
HETATM   17  N   UNL     1     -43.071 -47.286   9.875  1.00  0.00    -0.249 N 
HETATM   18  C   UNL     1     -42.971 -45.916   9.706  1.00  0.00     0.262 A 
HETATM   19  C   UNL     1     -44.147 -45.247   9.114  1.00  0.00     0.078 A 
HETATM   20  O   UNL     1     -41.977 -45.248   9.995  1.00  0.00    -0.267 OA
HETATM   21  C   UNL     1     -45.259 -45.935   8.846  1.00  0.00     0.031 A 
HETATM   22  C   UNL     1     -45.251 -47.373   9.179  1.00  0.00     0.022 A 
HETATM   23  C   UNL     1     -46.531 -48.144   8.981  1.00  0.00     0.069 C 
HETATM   24  N   UNL     1     -44.221 -48.011   9.639  1.00  0.00    -0.300 N 
ATOM     25  HN  UNL     1     -44.260 -49.014   9.820  1.00  0.00     0.187 HD
ENDBRANCH  16  17
ENDBRANCH   1  16
TORSDOF 4
ENDMDL
MODEL 2
REMARK VINA RESULT:      -6.8      2.724      3.566
REMARK  4 active torsions:
REMARK  status: ('A' for Active; 'I' for Inactive)
REMARK    1  A    between atoms: N_7  and  C_8 
REMARK    2  A    between atoms: C_8  and  C_9 
REMARK       I    between atoms: C_9  and  N_11 
REMARK    3  A    between atoms: N_11  and  C_12 
REMARK    4  A    between atoms: C_16  and  C_19 
ROOT
HETATM    1  C   UNL     1     -42.151 -47.889  10.475  1.00  0.00     0.237 C 
HETATM    2  O   UNL     1     -42.652 -47.488  11.523  1.00  0.00    -0.272 OA
HETATM    3  N   UNL     1     -41.157 -48.855  10.447  1.00  0.00    -0.355 N 
HETATM    4  H   UNL     1     -40.789 -49.165   9.551  1.00  0.00     0.162 HD
ENDROOT
BRANCH   3   5
HETATM    5  C   UNL     1     -40.731 -49.511  11.680  1.00  0.00     0.084 C 
HETATM    6  C   UNL     1     -39.243 -49.881  11.640  1.00  0.00     0.025 C 
HETATM    7  C   UNL     1     -38.682 -50.126  13.041  1.00  0.00     0.002 C 
HETATM    8  C   UNL     1     -38.841 -51.543  13.606  1.00  0.00     0.005 C 
HETATM    9  C   UNL     1     -40.167 -52.300  13.342  1.00  0.00    -0.007 C 
HETATM   10  C   UNL     1     -41.382 -51.347  13.348  1.00  0.00     0.007 C 
HETATM   11  C   UNL     1     -41.632 -50.713  11.977  1.00  0.00     0.025 C 
BRANCH   9  12
HETATM   12  C   UNL     1     -40.357 -53.560  14.284  1.00  0.00    -0.048 C 
HETATM   13  C   UNL     1     -40.356 -53.185  15.778  1.00  0.00     0.015 C 
HETATM   14  C   UNL     1     -41.689 -54.287  13.975  1.00  0.00     0.015 C 
HETATM   15  C   UNL     1     -39.230 -54.587  14.032  1.00  0.00     0.015 C 
ENDBRANCH   9  12
ENDBRANCH   3   5
BRANCH   1  16
HETATM   16  C   UNL     1     -42.570 -47.340   9.115  1.00  0.00     0.255 C 
BRANCH  16  17
HETATM   17  N   UNL     1     -44.005 -47.105   9.064  1.00  0.00    -0.249 N 
HETATM   18  C   UNL     1     -44.475 -45.805   8.980  1.00  0.00     0.262 A 
HETATM   19  C   UNL     1     -45.939 -45.650   8.857  1.00  0.00     0.078 A 
HETATM   20  O   UNL     1     -43.759 -44.803   8.982  1.00  0.00    -0.267 OA
HETATM   21  C   UNL     1     -46.743 -46.713   8.911  1.00  0.00     0.031 A 
HETATM   22  C   UNL     1     -46.102 -48.028   9.109  1.00  0.00     0.022 A 
HETATM   23  C   UNL     1     -46.999 -49.227   9.278  1.00  0.00     0.069 C 
HETATM   24  N   UNL     1     -44.820 -48.215   9.158  1.00  0.00    -0.300 N 
ATOM     25  HN  UNL     1     -44.427 -49.150   9.262  1.00  0.00     0.187 HD
ENDBRANCH  16  17
ENDBRANCH   1  16
TORSDOF 4
ENDMDL
MODEL 3
REMARK VINA RESULT:      -6.7      3.147      7.176
REMARK  4 active torsions:
REMARK  status: ('A' for Active; 'I' for Inactive)
REMARK    1  A    between atoms: N_7  and  C_8 
REMARK    2  A    between atoms: C_8  and  C_9 
REMARK       I    between atoms: C_9  and  N_11 
REMARK    3  A    between atoms: N_11  and  C_12 
REMARK    4  A    between atoms: C_16  and  C_19 
ROOT
HETATM    1  C   UNL     1     -42.187 -52.341  12.252  1.00  0.00     0.237 C 
HETATM    2  O   UNL     1     -41.158 -52.684  11.675  1.00  0.00    -0.272 OA
HETATM    3  N   UNL     1     -42.485 -51.012  12.515  1.00  0.00    -0.355 N 
HETATM    4  H   UNL     1     -43.359 -50.780  12.980  1.00  0.00     0.162 HD
ENDROOT
BRANCH   3   5
HETATM    5  C   UNL     1     -41.615 -49.949  12.019  1.00  0.00     0.084 C 
HETATM    6  C   UNL     1     -40.506 -49.611  13.024  1.00  0.00     0.025 C 
HETATM    7  C   UNL     1     -39.346 -48.868  12.358  1.00  0.00     0.002 C 
HETATM    8  C   UNL     1     -39.477 -47.344  12.253  1.00  0.00     0.005 C 
HETATM    9  C   UNL     1     -40.863 -46.743  11.905  1.00  0.00    -0.007 C 
HETATM   10  C   UNL     1     -41.641 -47.635  10.914  1.00  0.00     0.007 C 
HETATM   11  C   UNL     1     -42.448 -48.727  11.623  1.00  0.00     0.025 C 
BRANCH   9  12
HETATM   12  C   UNL     1     -40.781 -45.228  11.450  1.00  0.00    -0.048 C 
HETATM   13  C   UNL     1     -40.309 -44.296  12.582  1.00  0.00     0.015 C 
HETATM   14  C   UNL     1     -39.808 -45.059  10.256  1.00  0.00     0.015 C 
HETATM   15  C   UNL     1     -42.164 -44.745  10.958  1.00  0.00     0.015 C 
ENDBRANCH   9  12
ENDBRANCH   3   5
BRANCH   1  16
HETATM   16  C   UNL     1     -43.216 -53.352  12.746  1.00  0.00     0.255 C 
BRANCH  16  17
HETATM   17  N   UNL     1     -44.469 -52.699  13.094  1.00  0.00    -0.249 N 
HETATM   18  C   UNL     1     -44.740 -52.420  14.423  1.00  0.00     0.262 A 
HETATM   19  C   UNL     1     -45.996 -51.690  14.690  1.00  0.00     0.078 A 
HETATM   20  O   UNL     1     -44.004 -52.722  15.363  1.00  0.00    -0.267 OA
HETATM   21  C   UNL     1     -46.841 -51.403  13.698  1.00  0.00     0.031 A 
HETATM   22  C   UNL     1     -46.464 -51.858  12.346  1.00  0.00     0.022 A 
HETATM   23  C   UNL     1     -47.453 -51.635  11.231  1.00  0.00     0.069 C 
HETATM   24  N   UNL     1     -45.344 -52.444  12.058  1.00  0.00    -0.300 N 
ATOM     25  HN  UNL     1     -45.118 -52.707  11.099  1.00  0.00     0.187 HD
ENDBRANCH  16  17
ENDBRANCH   1  16
TORSDOF 4
ENDMDL
MODEL 4
REMARK VINA RESULT:      -6.6      3.170      8.421
REMARK  4 active torsions:
REMARK  status: ('A' for Active; 'I' for Inactive)
REMARK    1  A    between atoms: N_7  and  C_8 
REMARK    2  A    between atoms: C_8  and  C_9 
REMARK       I    between atoms: C_9  and  N_11 
REMARK    3  A    between atoms: N_11  and  C_12 
REMARK    4  A    between atoms: C_16  and  C_19 
ROOT
HETATM    1  C   UNL     1     -42.159 -51.321  12.692  1.00  0.00     0.237 C 
HETATM    2  O   UNL     1     -42.119 -51.128  13.905  1.00  0.00    -0.272 OA
HETATM    3  N   UNL     1     -42.073 -50.288  11.770  1.00  0.00    -0.355 N 
HETATM    4  H   UNL     1     -42.094 -50.504  10.777  1.00  0.00     0.162 HD
ENDROOT
BRANCH   3   5
HETATM    5  C   UNL     1     -41.830 -48.919  12.218  1.00  0.00     0.084 C 
HETATM    6  C   UNL     1     -43.072 -48.037  12.042  1.00  0.00     0.025 C 
HETATM    7  C   UNL     1     -42.999 -46.778  12.907  1.00  0.00     0.002 C 
HETATM    8  C   UNL     1     -42.270 -45.572  12.303  1.00  0.00     0.005 C 
HETATM    9  C   UNL     1     -40.978 -45.822  11.485  1.00  0.00    -0.007 C 
HETATM   10  C   UNL     1     -40.149 -46.988  12.066  1.00  0.00     0.007 C 
HETATM   11  C   UNL     1     -40.594 -48.347  11.518  1.00  0.00     0.025 C 
BRANCH   9  12
HETATM   12  C   UNL     1     -40.127 -44.505  11.256  1.00  0.00    -0.048 C 
HETATM   13  C   UNL     1     -41.004 -43.240  11.193  1.00  0.00     0.015 C 
HETATM   14  C   UNL     1     -39.091 -44.310  12.391  1.00  0.00     0.015 C 
HETATM   15  C   UNL     1     -39.322 -44.613   9.942  1.00  0.00     0.015 C 
ENDBRANCH   9  12
ENDBRANCH   3   5
BRANCH   1  16
HETATM   16  C   UNL     1     -42.328 -52.716  12.097  1.00  0.00     0.255 C 
BRANCH  16  17
HETATM   17  N   UNL     1     -43.021 -53.600  13.023  1.00  0.00    -0.249 N 
HETATM   18  C   UNL     1     -44.381 -53.805  12.873  1.00  0.00     0.262 A 
HETATM   19  C   UNL     1     -44.999 -54.772  13.804  1.00  0.00     0.078 A 
HETATM   20  O   UNL     1     -45.079 -53.257  12.020  1.00  0.00    -0.267 OA
HETATM   21  C   UNL     1     -44.280 -55.337  14.776  1.00  0.00     0.031 A 
HETATM   22  C   UNL     1     -42.862 -54.939  14.876  1.00  0.00     0.022 A 
HETATM   23  C   UNL     1     -42.061 -55.485  16.030  1.00  0.00     0.069 C 
HETATM   24  N   UNL     1     -42.266 -54.144  14.043  1.00  0.00    -0.300 N 
ATOM     25  HN  UNL     1     -41.274 -53.928  14.138  1.00  0.00     0.187 HD
ENDBRANCH  16  17
ENDBRANCH   1  16
TORSDOF 4
ENDMDL
MODEL 5
REMARK VINA RESULT:      -6.4      2.967      8.262
REMARK  4 active torsions:
REMARK  status: ('A' for Active; 'I' for Inactive)
REMARK    1  A    between atoms: N_7  and  C_8 
REMARK    2  A    between atoms: C_8  and  C_9 
REMARK       I    between atoms: C_9  and  N_11 
REMARK    3  A    between atoms: N_11  and  C_12 
REMARK    4  A    between atoms: C_16  and  C_19 
ROOT
HETATM    1  C   UNL     1     -42.075 -51.054  12.346  1.00  0.00     0.237 C 
HETATM    2  O   UNL     1     -42.802 -50.764  13.294  1.00  0.00    -0.272 OA
HETATM    3  N   UNL     1     -41.644 -50.113  11.423  1.00  0.00    -0.355 N 
HETATM    4  H   UNL     1     -41.029 -50.404  10.667  1.00  0.00     0.162 HD
ENDROOT
BRANCH   3   5
HETATM    5  C   UNL     1     -41.966 -48.701  11.604  1.00  0.00     0.084 C 
HETATM    6  C   UNL     1     -42.150 -47.985  10.260  1.00  0.00     0.025 C 
HETATM    7  C   UNL     1     -42.924 -46.675  10.417  1.00  0.00     0.002 C 
HETATM    8  C   UNL     1     -42.102 -45.430  10.771  1.00  0.00     0.005 C 
HETATM    9  C   UNL     1     -40.941 -45.575  11.787  1.00  0.00    -0.007 C 
HETATM   10  C   UNL     1     -41.274 -46.596  12.895  1.00  0.00     0.007 C 
HETATM   11  C   UNL     1     -40.916 -48.030  12.493  1.00  0.00     0.025 C 
BRANCH   9  12
HETATM   12  C   UNL     1     -40.437 -44.183  12.351  1.00  0.00    -0.048 C 
HETATM   13  C   UNL     1     -40.536 -43.053  11.309  1.00  0.00     0.015 C 
HETATM   14  C   UNL     1     -41.260 -43.758  13.594  1.00  0.00     0.015 C 
HETATM   15  C   UNL     1     -38.968 -44.297  12.817  1.00  0.00     0.015 C 
ENDBRANCH   9  12
ENDBRANCH   3   5
BRANCH   1  16
HETATM   16  C   UNL     1     -41.602 -52.483  12.095  1.00  0.00     0.255 C 
BRANCH  16  17
HETATM   17  N   UNL     1     -42.131 -53.394  13.099  1.00  0.00    -0.249 N 
HETATM   18  C   UNL     1     -41.277 -53.918  14.054  1.00  0.00     0.262 A 
HETATM   19  C   UNL     1     -41.901 -54.776  15.082  1.00  0.00     0.078 A 
HETATM   20  O   UNL     1     -40.067 -53.699  14.102  1.00  0.00    -0.267 OA
HETATM   21  C   UNL     1     -43.199 -55.079  15.021  1.00  0.00     0.031 A 
HETATM   22  C   UNL     1     -43.961 -54.529  13.883  1.00  0.00     0.022 A 
HETATM   23  C   UNL     1     -45.402 -54.945  13.739  1.00  0.00     0.069 C 
HETATM   24  N   UNL     1     -43.468 -53.723  12.996  1.00  0.00    -0.300 N 
ATOM     25  HN  UNL     1     -44.048 -53.344  12.247  1.00  0.00     0.187 HD
ENDBRANCH  16  17
ENDBRANCH   1  16
TORSDOF 4
ENDMDL
MODEL 6
REMARK VINA RESULT:      -6.4      2.439      3.050
REMARK  4 active torsions:
REMARK  status: ('A' for Active; 'I' for Inactive)
REMARK    1  A    between atoms: N_7  and  C_8 
REMARK    2  A    between atoms: C_8  and  C_9 
REMARK       I    between atoms: C_9  and  N_11 
REMARK    3  A    between atoms: N_11  and  C_12 
REMARK    4  A    between atoms: C_16  and  C_19 
ROOT
HETATM    1  C   UNL     1     -41.177 -48.568  11.617  1.00  0.00     0.237 C 
HETATM    2  O   UNL     1     -40.292 -48.517  12.469  1.00  0.00    -0.272 OA
HETATM    3  N   UNL     1     -42.001 -49.673  11.464  1.00  0.00    -0.355 N 
HETATM    4  H   UNL     1     -42.729 -49.655  10.755  1.00  0.00     0.162 HD
ENDROOT
BRANCH   3   5
HETATM    5  C   UNL     1     -41.906 -50.797  12.391  1.00  0.00     0.084 C 
HETATM    6  C   UNL     1     -41.398 -52.065  11.693  1.00  0.00     0.025 C 
HETATM    7  C   UNL     1     -40.858 -53.086  12.695  1.00  0.00     0.002 C 
HETATM    8  C   UNL     1     -41.881 -54.045  13.316  1.00  0.00     0.005 C 
HETATM    9  C   UNL     1     -43.274 -53.491  13.705  1.00  0.00    -0.007 C 
HETATM   10  C   UNL     1     -43.187 -52.042  14.231  1.00  0.00     0.007 C 
HETATM   11  C   UNL     1     -43.246 -51.009  13.102  1.00  0.00     0.025 C 
BRANCH   9  12
HETATM   12  C   UNL     1     -44.076 -54.458  14.671  1.00  0.00    -0.048 C 
HETATM   13  C   UNL     1     -44.729 -53.710  15.848  1.00  0.00     0.015 C 
HETATM   14  C   UNL     1     -45.193 -55.208  13.903  1.00  0.00     0.015 C 
HETATM   15  C   UNL     1     -43.133 -55.543  15.239  1.00  0.00     0.015 C 
ENDBRANCH   9  12
ENDBRANCH   3   5
BRANCH   1  16
HETATM   16  C   UNL     1     -41.429 -47.422  10.642  1.00  0.00     0.255 C 
BRANCH  16  17
HETATM   17  N   UNL     1     -41.674 -46.174  11.351  1.00  0.00    -0.249 N 
HETATM   18  C   UNL     1     -41.157 -44.995  10.843  1.00  0.00     0.262 A 
HETATM   19  C   UNL     1     -41.509 -43.762  11.576  1.00  0.00     0.078 A 
HETATM   20  O   UNL     1     -40.456 -44.919   9.834  1.00  0.00    -0.267 OA
HETATM   21  C   UNL     1     -42.217 -43.820  12.706  1.00  0.00     0.031 A 
HETATM   22  C   UNL     1     -42.611 -45.162  13.180  1.00  0.00     0.022 A 
HETATM   23  C   UNL     1     -43.319 -45.255  14.507  1.00  0.00     0.069 C 
HETATM   24  N   UNL     1     -42.377 -46.262  12.536  1.00  0.00    -0.300 N 
ATOM     25  HN  UNL     1     -42.701 -47.161  12.892  1.00  0.00     0.187 HD
ENDBRANCH  16  17
ENDBRANCH   1  16
TORSDOF 4
ENDMDL
MODEL 7
REMARK VINA RESULT:      -6.3      1.569      2.077
REMARK  4 active torsions:
REMARK  status: ('A' for Active; 'I' for Inactive)
REMARK    1  A    between atoms: N_7  and  C_8 
REMARK    2  A    between atoms: C_8  and  C_9 
REMARK       I    between atoms: C_9  and  N_11 
REMARK    3  A    between atoms: N_11  and  C_12 
REMARK    4  A    between atoms: C_16  and  C_19 
ROOT
HETATM    1  C   UNL     1     -40.566 -49.820  12.086  1.00  0.00     0.237 C 
HETATM    2  O   UNL     1     -39.899 -49.995  13.103  1.00  0.00    -0.272 OA
HETATM    3  N   UNL     1     -41.730 -50.529  11.826  1.00  0.00    -0.355 N 
HETATM    4  H   UNL     1     -42.253 -50.332  10.978  1.00  0.00     0.162 HD
ENDROOT
BRANCH   3   5
HETATM    5  C   UNL     1     -42.264 -51.457  12.818  1.00  0.00     0.084 C 
HETATM    6  C   UNL     1     -42.541 -52.838  12.210  1.00  0.00     0.025 C 
HETATM    7  C   UNL     1     -42.646 -53.920  13.286  1.00  0.00     0.002 C 
HETATM    8  C   UNL     1     -44.024 -54.117  13.929  1.00  0.00     0.005 C 
HETATM    9  C   UNL     1     -44.881 -52.864  14.242  1.00  0.00    -0.007 C 
HETATM   10  C   UNL     1     -44.008 -51.671  14.686  1.00  0.00     0.007 C 
HETATM   11  C   UNL     1     -43.494 -50.851  13.499  1.00  0.00     0.025 C 
BRANCH   9  12
HETATM   12  C   UNL     1     -46.076 -53.167  15.237  1.00  0.00    -0.048 C 
HETATM   13  C   UNL     1     -47.105 -52.022  15.290  1.00  0.00     0.015 C 
HETATM   14  C   UNL     1     -46.824 -54.461  14.826  1.00  0.00     0.015 C 
HETATM   15  C   UNL     1     -45.534 -53.410  16.663  1.00  0.00     0.015 C 
ENDBRANCH   9  12
ENDBRANCH   3   5
BRANCH   1  16
HETATM   16  C   UNL     1     -40.156 -48.818  11.011  1.00  0.00     0.255 C 
BRANCH  16  17
HETATM   17  N   UNL     1     -41.261 -47.934  10.669  1.00  0.00    -0.249 N 
HETATM   18  C   UNL     1     -41.586 -46.894  11.523  1.00  0.00     0.262 A 
HETATM   19  C   UNL     1     -42.669 -45.997  11.073  1.00  0.00     0.078 A 
HETATM   20  O   UNL     1     -41.024 -46.673  12.596  1.00  0.00    -0.267 OA
HETATM   21  C   UNL     1     -43.335 -46.248   9.943  1.00  0.00     0.031 A 
HETATM   22  C   UNL     1     -42.944 -47.455   9.190  1.00  0.00     0.022 A 
HETATM   23  C   UNL     1     -43.753 -47.812   7.970  1.00  0.00     0.069 C 
HETATM   24  N   UNL     1     -41.960 -48.232   9.517  1.00  0.00    -0.300 N 
ATOM     25  HN  UNL     1     -41.710 -49.036   8.941  1.00  0.00     0.187 HD
ENDBRANCH  16  17
ENDBRANCH   1  16
TORSDOF 4
ENDMDL
MODEL 8
REMARK VINA RESULT:      -6.1      1.975      3.051
REMARK  4 active torsions:
REMARK  status: ('A' for Active; 'I' for Inactive)
REMARK    1  A    between atoms: N_7  and  C_8 
REMARK    2  A    between atoms: C_8  and  C_9 
REMARK       I    between atoms: C_9  and  N_11 
REMARK    3  A    between atoms: N_11  and  C_12 
REMARK    4  A    between atoms: C_16  and  C_19 
ROOT
HETATM    1  C   UNL     1     -41.751 -50.724  12.527  1.00  0.00     0.237 C 
HETATM    2  O   UNL     1     -41.227 -51.503  13.320  1.00  0.00    -0.272 OA
HETATM    3  N   UNL     1     -43.121 -50.509  12.491  1.00  0.00    -0.355 N 
HETATM    4  H   UNL     1     -43.502 -49.840  11.827  1.00  0.00     0.162 HD
ENDROOT
BRANCH   3   5
HETATM    5  C   UNL     1     -43.994 -51.142  13.476  1.00  0.00     0.084 C 
HETATM    6  C   UNL     1     -45.440 -51.236  12.974  1.00  0.00     0.025 C 
HETATM    7  C   UNL     1     -46.243 -52.279  13.753  1.00  0.00     0.002 C 
HETATM    8  C   UNL     1     -46.907 -51.804  15.051  1.00  0.00     0.005 C 
HETATM    9  C   UNL     1     -46.125 -50.830  15.968  1.00  0.00    -0.007 C 
HETATM   10  C   UNL     1     -44.611 -51.131  15.965  1.00  0.00     0.007 C 
HETATM   11  C   UNL     1     -43.879 -50.421  14.821  1.00  0.00     0.025 C 
BRANCH   9  12
HETATM   12  C   UNL     1     -46.738 -50.729  17.426  1.00  0.00    -0.048 C 
HETATM   13  C   UNL     1     -46.351 -49.421  18.140  1.00  0.00     0.015 C 
HETATM   14  C   UNL     1     -48.285 -50.809  17.383  1.00  0.00     0.015 C 
HETATM   15  C   UNL     1     -46.263 -51.921  18.287  1.00  0.00     0.015 C 
ENDBRANCH   9  12
ENDBRANCH   3   5
BRANCH   1  16
HETATM   16  C   UNL     1     -40.938 -49.940  11.502  1.00  0.00     0.255 C 
BRANCH  16  17
HETATM   17  N   UNL     1     -41.557 -48.655  11.213  1.00  0.00    -0.249 N 
HETATM   18  C   UNL     1     -41.380 -47.604  12.097  1.00  0.00     0.262 A 
HETATM   19  C   UNL     1     -41.976 -46.313  11.699  1.00  0.00     0.078 A 
HETATM   20  O   UNL     1     -40.755 -47.682  13.155  1.00  0.00    -0.267 OA
HETATM   21  C   UNL     1     -42.708 -46.214  10.587  1.00  0.00     0.031 A 
HETATM   22  C   UNL     1     -42.896 -47.448   9.799  1.00  0.00     0.022 A 
HETATM   23  C   UNL     1     -43.805 -47.380   8.599  1.00  0.00     0.069 C 
HETATM   24  N   UNL     1     -42.339 -48.585  10.078  1.00  0.00    -0.300 N 
ATOM     25  HN  UNL     1     -42.476 -49.399   9.480  1.00  0.00     0.187 HD
ENDBRANCH  16  17
ENDBRANCH   1  16
TORSDOF 4
ENDMDL
MODEL 9
REMARK VINA RESULT:      -6.1      4.200      7.136
REMARK  4 active torsions:
REMARK  status: ('A' for Active; 'I' for Inactive)
REMARK    1  A    between atoms: N_7  and  C_8 
REMARK    2  A    between atoms: C_8  and  C_9 
REMARK       I    between atoms: C_9  and  N_11 
REMARK    3  A    between atoms: N_11  and  C_12 
REMARK    4  A    between atoms: C_16  and  C_19 
ROOT
HETATM    1  C   UNL     1     -42.226 -52.756  12.863  1.00  0.00     0.237 C 
HETATM    2  O   UNL     1     -42.054 -52.277  11.745  1.00  0.00    -0.272 OA
HETATM    3  N   UNL     1     -41.375 -52.492  13.926  1.00  0.00    -0.355 N 
HETATM    4  H   UNL     1     -41.573 -52.900  14.836  1.00  0.00     0.162 HD
ENDROOT
BRANCH   3   5
HETATM    5  C   UNL     1     -40.279 -51.539  13.773  1.00  0.00     0.084 C 
HETATM    6  C   UNL     1     -38.946 -52.128  14.252  1.00  0.00     0.025 C 
HETATM    7  C   UNL     1     -37.751 -51.360  13.685  1.00  0.00     0.002 C 
HETATM    8  C   UNL     1     -37.291 -50.127  14.473  1.00  0.00     0.005 C 
HETATM    9  C   UNL     1     -38.368 -49.202  15.094  1.00  0.00    -0.007 C 
HETATM   10  C   UNL     1     -39.620 -49.097  14.196  1.00  0.00     0.007 C 
HETATM   11  C   UNL     1     -40.626 -50.219  14.467  1.00  0.00     0.025 C 
BRANCH   9  12
HETATM   12  C   UNL     1     -37.793 -47.792  15.531  1.00  0.00    -0.048 C 
HETATM   13  C   UNL     1     -38.079 -46.691  14.493  1.00  0.00     0.015 C 
HETATM   14  C   UNL     1     -38.399 -47.342  16.884  1.00  0.00     0.015 C 
HETATM   15  C   UNL     1     -36.265 -47.884  15.745  1.00  0.00     0.015 C 
ENDBRANCH   9  12
ENDBRANCH   3   5
BRANCH   1  16
HETATM   16  C   UNL     1     -43.383 -53.701  13.171  1.00  0.00     0.255 C 
BRANCH  16  17
HETATM   17  N   UNL     1     -44.621 -52.965  13.377  1.00  0.00    -0.249 N 
HETATM   18  C   UNL     1     -45.035 -52.686  14.668  1.00  0.00     0.262 A 
HETATM   19  C   UNL     1     -46.261 -51.871  14.796  1.00  0.00     0.078 A 
HETATM   20  O   UNL     1     -44.445 -53.052  15.684  1.00  0.00    -0.267 OA
HETATM   21  C   UNL     1     -46.955 -51.510  13.714  1.00  0.00     0.031 A 
HETATM   22  C   UNL     1     -46.445 -51.972  12.408  1.00  0.00     0.022 A 
HETATM   23  C   UNL     1     -47.270 -51.664  11.186  1.00  0.00     0.069 C 
HETATM   24  N   UNL     1     -45.341 -52.633  12.247  1.00  0.00    -0.300 N 
ATOM     25  HN  UNL     1     -45.017 -52.899  11.318  1.00  0.00     0.187 HD
ENDBRANCH  16  17
ENDBRANCH   1  16
TORSDOF 4
ENDMDL
