MODEL 1
REMARK VINA RESULT:      -6.4      0.000      0.000
REMARK  4 active torsions:
REMARK  status: ('A' for Active; 'I' for Inactive)
REMARK       I    between atoms: N_2  and  C_3 
REMARK    1  A    between atoms: C_3  and  C_5 
REMARK    2  A    between atoms: C_5  and  C_6 
REMARK    3  A    between atoms: C_10  and  C_11 
REMARK    4  A    between atoms: C_11  and  C_12 
ROOT
HETATM    1  C   UNL     1     -39.986 -50.866  12.570  1.00  0.00     0.112 A 
HETATM    2  N   UNL     1     -40.549 -51.199  11.401  1.00  0.00    -0.247 N 
ATOM      3  HN  UNL     1     -40.211 -51.000  10.459  1.00  0.00     0.196 HD
HETATM    4  O   UNL     1     -41.699 -51.878  11.773  1.00  0.00    -0.223 OA
HETATM    5  C   UNL     1     -41.721 -51.904  13.140  1.00  0.00     0.148 A 
HETATM    6  N   UNL     1     -40.679 -51.315  13.684  1.00  0.00    -0.326 N 
ATOM      7  HN  UNL     1     -40.441 -51.215  14.670  1.00  0.00     0.169 HD
ENDROOT
BRANCH   5   8
HETATM    8  C   UNL     1     -42.970 -52.453  13.732  1.00  0.00     0.091 C 
BRANCH   8   9
HETATM    9  C   UNL     1     -44.262 -51.744  13.330  1.00  0.00    -0.002 C 
HETATM   10  C   UNL     1     -45.083 -51.050  14.439  1.00  0.00     0.010 C 
HETATM   11  C   UNL     1     -46.541 -51.469  14.117  1.00  0.00    -0.014 C 
HETATM   12  C   UNL     1     -46.769 -52.891  14.643  1.00  0.00     0.005 C 
HETATM   13  C   UNL     1     -46.511 -51.732  12.610  1.00  0.00     0.009 C 
HETATM   14  C   UNL     1     -45.845 -53.723  13.742  1.00  0.00     0.005 C 
HETATM   15  C   UNL     1     -45.323 -52.692  12.712  1.00  0.00    -0.010 C 
ENDBRANCH   8   9
ENDBRANCH   5   8
BRANCH   1  16
HETATM   16  C   UNL     1     -38.684 -50.149  12.601  1.00  0.00     0.181 C 
BRANCH  16  17
HETATM   17  C   UNL     1     -37.616 -50.666  11.660  1.00  0.00     0.224 C 
HETATM   18  N   UNL     1     -37.450 -49.986  10.477  1.00  0.00    -0.365 N 
HETATM   19  C   UNL     1     -36.440 -50.372   9.527  1.00  0.00     0.149 C 
HETATM   20  H   UNL     1     -38.166 -49.316  10.201  1.00  0.00     0.161 HD
HETATM   21  O   UNL     1     -36.868 -51.586  11.995  1.00  0.00    -0.273 OA
ENDBRANCH  16  17
ENDBRANCH   1  16
TORSDOF 4
ENDMDL
MODEL 2
REMARK VINA RESULT:      -6.3      2.762      3.890
REMARK  4 active torsions:
REMARK  status: ('A' for Active; 'I' for Inactive)
REMARK       I    between atoms: N_2  and  C_3 
REMARK    1  A    between atoms: C_3  and  C_5 
REMARK    2  A    between atoms: C_5  and  C_6 
REMARK    3  A    between atoms: C_10  and  C_11 
REMARK    4  A    between atoms: C_11  and  C_12 
ROOT
HETATM    1  C   UNL     1     -40.804 -49.938  11.435  1.00  0.00     0.112 A 
HETATM    2  N   UNL     1     -39.595 -50.476  11.648  1.00  0.00    -0.247 N 
ATOM      3  HN  UNL     1     -38.680 -50.056  11.480  1.00  0.00     0.196 HD
HETATM    4  O   UNL     1     -39.881 -51.736  12.150  1.00  0.00    -0.223 OA
HETATM    5  C   UNL     1     -41.243 -51.842  12.207  1.00  0.00     0.148 A 
HETATM    6  N   UNL     1     -41.863 -50.755  11.799  1.00  0.00    -0.326 N 
ATOM      7  HN  UNL     1     -42.863 -50.564  11.762  1.00  0.00     0.169 HD
ENDROOT
BRANCH   5   8
HETATM    8  C   UNL     1     -41.748 -53.192  12.570  1.00  0.00     0.091 C 
BRANCH   8   9
HETATM    9  C   UNL     1     -42.492 -53.286  13.901  1.00  0.00    -0.002 C 
HETATM   10  C   UNL     1     -42.679 -54.684  14.529  1.00  0.00     0.010 C 
HETATM   11  C   UNL     1     -44.159 -54.670  14.994  1.00  0.00    -0.014 C 
HETATM   12  C   UNL     1     -45.055 -54.942  13.779  1.00  0.00     0.005 C 
HETATM   13  C   UNL     1     -44.446 -53.185  15.223  1.00  0.00     0.009 C 
HETATM   14  C   UNL     1     -44.833 -53.686  12.923  1.00  0.00     0.005 C 
HETATM   15  C   UNL     1     -43.959 -52.784  13.829  1.00  0.00    -0.010 C 
ENDBRANCH   8   9
ENDBRANCH   5   8
BRANCH   1  16
HETATM   16  C   UNL     1     -40.929 -48.546  10.929  1.00  0.00     0.181 C 
BRANCH  16  17
HETATM   17  C   UNL     1     -42.307 -48.128  10.461  1.00  0.00     0.224 C 
HETATM   18  N   UNL     1     -42.473 -47.942   9.110  1.00  0.00    -0.365 N 
HETATM   19  C   UNL     1     -43.750 -47.578   8.554  1.00  0.00     0.149 C 
HETATM   20  H   UNL     1     -41.641 -47.892   8.523  1.00  0.00     0.161 HD
HETATM   21  O   UNL     1     -43.251 -48.063  11.250  1.00  0.00    -0.273 OA
ENDBRANCH  16  17
ENDBRANCH   1  16
TORSDOF 4
ENDMDL
MODEL 3
REMARK VINA RESULT:      -6.1      2.185      2.549
REMARK  4 active torsions:
REMARK  status: ('A' for Active; 'I' for Inactive)
REMARK       I    between atoms: N_2  and  C_3 
REMARK    1  A    between atoms: C_3  and  C_5 
REMARK    2  A    between atoms: C_5  and  C_6 
REMARK    3  A    between atoms: C_10  and  C_11 
REMARK    4  A    between atoms: C_11  and  C_12 
ROOT
HETATM    1  C   UNL     1     -40.575 -50.084  12.043  1.00  0.00     0.112 A 
HETATM    2  N   UNL     1     -40.722 -51.112  11.196  1.00  0.00    -0.247 N 
ATOM      3  HN  UNL     1     -40.262 -51.259  10.298  1.00  0.00     0.196 HD
HETATM    4  O   UNL     1     -41.646 -51.928  11.830  1.00  0.00    -0.223 OA
HETATM    5  C   UNL     1     -41.966 -51.323  13.014  1.00  0.00     0.148 A 
HETATM    6  N   UNL     1     -41.319 -50.194  13.207  1.00  0.00    -0.326 N 
ATOM      7  HN  UNL     1     -41.355 -49.564  14.007  1.00  0.00     0.169 HD
ENDROOT
BRANCH   5   8
HETATM    8  C   UNL     1     -43.072 -51.972  13.766  1.00  0.00     0.091 C 
BRANCH   8   9
HETATM    9  C   UNL     1     -44.471 -51.419  13.497  1.00  0.00    -0.002 C 
HETATM   10  C   UNL     1     -45.348 -51.045  14.713  1.00  0.00     0.010 C 
HETATM   11  C   UNL     1     -46.736 -51.630  14.342  1.00  0.00    -0.014 C 
HETATM   12  C   UNL     1     -46.725 -53.135  14.635  1.00  0.00     0.005 C 
HETATM   13  C   UNL     1     -46.720 -51.645  12.813  1.00  0.00     0.009 C 
HETATM   14  C   UNL     1     -45.718 -53.661  13.602  1.00  0.00     0.005 C 
HETATM   15  C   UNL     1     -45.397 -52.411  12.746  1.00  0.00    -0.010 C 
ENDBRANCH   8   9
ENDBRANCH   5   8
BRANCH   1  16
HETATM   16  C   UNL     1     -39.614 -48.991  11.739  1.00  0.00     0.181 C 
BRANCH  16  17
HETATM   17  C   UNL     1     -40.177 -47.586  11.749  1.00  0.00     0.224 C 
HETATM   18  N   UNL     1     -39.938 -46.813  10.638  1.00  0.00    -0.365 N 
HETATM   19  C   UNL     1     -40.458 -45.475  10.530  1.00  0.00     0.149 C 
HETATM   20  H   UNL     1     -39.242 -47.135   9.968  1.00  0.00     0.161 HD
HETATM   21  O   UNL     1     -40.901 -47.200  12.669  1.00  0.00    -0.273 OA
ENDBRANCH  16  17
ENDBRANCH   1  16
TORSDOF 4
ENDMDL
MODEL 4
REMARK VINA RESULT:      -6.0      2.536      3.595
REMARK  4 active torsions:
REMARK  status: ('A' for Active; 'I' for Inactive)
REMARK       I    between atoms: N_2  and  C_3 
REMARK    1  A    between atoms: C_3  and  C_5 
REMARK    2  A    between atoms: C_5  and  C_6 
REMARK    3  A    between atoms: C_10  and  C_11 
REMARK    4  A    between atoms: C_11  and  C_12 
ROOT
HETATM    1  C   UNL     1     -41.228 -50.348  11.799  1.00  0.00     0.112 A 
HETATM    2  N   UNL     1     -40.805 -51.382  11.059  1.00  0.00    -0.247 N 
ATOM      3  HN  UNL     1     -40.387 -51.362  10.129  1.00  0.00     0.196 HD
HETATM    4  O   UNL     1     -41.071 -52.485  11.857  1.00  0.00    -0.223 OA
HETATM    5  C   UNL     1     -41.620 -52.014  13.017  1.00  0.00     0.148 A 
HETATM    6  N   UNL     1     -41.720 -50.703  13.046  1.00  0.00    -0.326 N 
ATOM      7  HN  UNL     1     -42.069 -50.103  13.792  1.00  0.00     0.169 HD
ENDROOT
BRANCH   5   8
HETATM    8  C   UNL     1     -42.125 -53.066  13.938  1.00  0.00     0.091 C 
BRANCH   8   9
HETATM    9  C   UNL     1     -43.325 -53.867  13.437  1.00  0.00    -0.002 C 
HETATM   10  C   UNL     1     -44.467 -53.099  12.735  1.00  0.00     0.010 C 
HETATM   11  C   UNL     1     -45.746 -53.716  13.359  1.00  0.00    -0.014 C 
HETATM   12  C   UNL     1     -45.975 -53.079  14.735  1.00  0.00     0.005 C 
HETATM   13  C   UNL     1     -45.299 -55.119  13.774  1.00  0.00     0.009 C 
HETATM   14  C   UNL     1     -44.776 -53.603  15.539  1.00  0.00     0.005 C 
HETATM   15  C   UNL     1     -44.098 -54.598  14.567  1.00  0.00    -0.010 C 
ENDBRANCH   8   9
ENDBRANCH   5   8
BRANCH   1  16
HETATM   16  C   UNL     1     -41.073 -48.955  11.303  1.00  0.00     0.181 C 
BRANCH  16  17
HETATM   17  C   UNL     1     -42.324 -48.297  10.761  1.00  0.00     0.224 C 
HETATM   18  N   UNL     1     -42.344 -48.014   9.417  1.00  0.00    -0.365 N 
HETATM   19  C   UNL     1     -43.497 -47.420   8.792  1.00  0.00     0.149 C 
HETATM   20  H   UNL     1     -41.467 -48.065   8.900  1.00  0.00     0.161 HD
HETATM   21  O   UNL     1     -43.311 -48.126  11.479  1.00  0.00    -0.273 OA
ENDBRANCH  16  17
ENDBRANCH   1  16
TORSDOF 4
ENDMDL
MODEL 5
REMARK VINA RESULT:      -6.0      3.807      5.701
REMARK  4 active torsions:
REMARK  status: ('A' for Active; 'I' for Inactive)
REMARK       I    between atoms: N_2  and  C_3 
REMARK    1  A    between atoms: C_3  and  C_5 
REMARK    2  A    between atoms: C_5  and  C_6 
REMARK    3  A    between atoms: C_10  and  C_11 
REMARK    4  A    between atoms: C_11  and  C_12 
ROOT
HETATM    1  C   UNL     1     -42.412 -48.114  10.399  1.00  0.00     0.112 A 
HETATM    2  N   UNL     1     -41.219 -48.618  10.056  1.00  0.00    -0.247 N 
ATOM      3  HN  UNL     1     -40.654 -48.398   9.236  1.00  0.00     0.196 HD
HETATM    4  O   UNL     1     -40.934 -49.509  11.080  1.00  0.00    -0.223 OA
HETATM    5  C   UNL     1     -41.979 -49.453  11.959  1.00  0.00     0.148 A 
HETATM    6  N   UNL     1     -42.909 -48.593  11.601  1.00  0.00    -0.326 N 
ATOM      7  HN  UNL     1     -43.771 -48.344  12.084  1.00  0.00     0.169 HD
ENDROOT
BRANCH   5   8
HETATM    8  C   UNL     1     -41.932 -50.464  13.048  1.00  0.00     0.091 C 
BRANCH   8   9
HETATM    9  C   UNL     1     -41.762 -51.914  12.600  1.00  0.00    -0.002 C 
HETATM   10  C   UNL     1     -43.019 -52.811  12.555  1.00  0.00     0.010 C 
HETATM   11  C   UNL     1     -42.532 -54.137  13.198  1.00  0.00    -0.014 C 
HETATM   12  C   UNL     1     -42.533 -53.969  14.723  1.00  0.00     0.005 C 
HETATM   13  C   UNL     1     -41.028 -54.136  12.920  1.00  0.00     0.009 C 
HETATM   14  C   UNL     1     -41.428 -52.925  14.936  1.00  0.00     0.005 C 
HETATM   15  C   UNL     1     -40.828 -52.742  13.521  1.00  0.00    -0.010 C 
ENDBRANCH   8   9
ENDBRANCH   5   8
BRANCH   1  16
HETATM   16  C   UNL     1     -43.055 -47.067   9.561  1.00  0.00     0.181 C 
BRANCH  16  17
HETATM   17  C   UNL     1     -44.398 -47.426   8.961  1.00  0.00     0.224 C 
HETATM   18  N   UNL     1     -45.511 -46.902   9.573  1.00  0.00    -0.365 N 
HETATM   19  C   UNL     1     -46.834 -47.151   9.064  1.00  0.00     0.149 C 
HETATM   20  H   UNL     1     -45.402 -46.481  10.494  1.00  0.00     0.161 HD
HETATM   21  O   UNL     1     -44.471 -48.069   7.913  1.00  0.00    -0.273 OA
ENDBRANCH  16  17
ENDBRANCH   1  16
TORSDOF 4
ENDMDL
MODEL 6
REMARK VINA RESULT:      -5.9      2.143      3.111
REMARK  4 active torsions:
REMARK  status: ('A' for Active; 'I' for Inactive)
REMARK       I    between atoms: N_2  and  C_3 
REMARK    1  A    between atoms: C_3  and  C_5 
REMARK    2  A    between atoms: C_5  and  C_6 
REMARK    3  A    between atoms: C_10  and  C_11 
REMARK    4  A    between atoms: C_11  and  C_12 
ROOT
HETATM    1  C   UNL     1     -42.425 -52.946  12.393  1.00  0.00     0.112 A 
HETATM    2  N   UNL     1     -42.837 -54.174  12.735  1.00  0.00    -0.247 N 
ATOM      3  HN  UNL     1     -42.283 -55.027  12.807  1.00  0.00     0.196 HD
HETATM    4  O   UNL     1     -44.194 -54.010  12.968  1.00  0.00    -0.223 OA
HETATM    5  C   UNL     1     -44.478 -52.690  12.757  1.00  0.00     0.148 A 
HETATM    6  N   UNL     1     -43.421 -51.982  12.423  1.00  0.00    -0.326 N 
ATOM      7  HN  UNL     1     -43.352 -50.982  12.233  1.00  0.00     0.169 HD
ENDROOT
BRANCH   5   8
HETATM    8  C   UNL     1     -45.924 -52.348  12.802  1.00  0.00     0.091 C 
BRANCH   8   9
HETATM    9  C   UNL     1     -46.384 -51.568  14.031  1.00  0.00    -0.002 C 
HETATM   10  C   UNL     1     -45.303 -50.940  14.938  1.00  0.00     0.010 C 
HETATM   11  C   UNL     1     -45.794 -51.283  16.368  1.00  0.00    -0.014 C 
HETATM   12  C   UNL     1     -45.411 -52.735  16.680  1.00  0.00     0.005 C 
HETATM   13  C   UNL     1     -47.308 -51.425  16.201  1.00  0.00     0.009 C 
HETATM   14  C   UNL     1     -46.288 -53.522  15.695  1.00  0.00     0.005 C 
HETATM   15  C   UNL     1     -47.176 -52.428  15.052  1.00  0.00    -0.010 C 
ENDBRANCH   8   9
ENDBRANCH   5   8
BRANCH   1  16
HETATM   16  C   UNL     1     -40.990 -52.688  12.102  1.00  0.00     0.181 C 
BRANCH  16  17
HETATM   17  C   UNL     1     -40.535 -51.248  12.213  1.00  0.00     0.224 C 
HETATM   18  N   UNL     1     -40.696 -50.460  11.099  1.00  0.00    -0.365 N 
HETATM   19  C   UNL     1     -40.329 -49.068  11.106  1.00  0.00     0.149 C 
HETATM   20  H   UNL     1     -40.914 -50.914  10.213  1.00  0.00     0.161 HD
HETATM   21  O   UNL     1     -40.139 -50.790  13.286  1.00  0.00    -0.273 OA
ENDBRANCH  16  17
ENDBRANCH   1  16
TORSDOF 4
ENDMDL
MODEL 7
REMARK VINA RESULT:      -5.8      4.398      5.551
REMARK  4 active torsions:
REMARK  status: ('A' for Active; 'I' for Inactive)
REMARK       I    between atoms: N_2  and  C_3 
REMARK    1  A    between atoms: C_3  and  C_5 
REMARK    2  A    between atoms: C_5  and  C_6 
REMARK    3  A    between atoms: C_10  and  C_11 
REMARK    4  A    between atoms: C_11  and  C_12 
ROOT
HETATM    1  C   UNL     1     -39.181 -54.927  15.024  1.00  0.00     0.112 A 
HETATM    2  N   UNL     1     -38.817 -54.953  13.735  1.00  0.00    -0.247 N 
ATOM      3  HN  UNL     1     -37.958 -55.325  13.330  1.00  0.00     0.196 HD
HETATM    4  O   UNL     1     -39.885 -54.357  13.082  1.00  0.00    -0.223 OA
HETATM    5  C   UNL     1     -40.806 -54.033  14.038  1.00  0.00     0.148 A 
HETATM    6  N   UNL     1     -40.435 -54.382  15.251  1.00  0.00    -0.326 N 
ATOM      7  HN  UNL     1     -40.939 -54.278  16.131  1.00  0.00     0.169 HD
ENDROOT
BRANCH   5   8
HETATM    8  C   UNL     1     -41.959 -53.233  13.548  1.00  0.00     0.091 C 
BRANCH   8   9
HETATM    9  C   UNL     1     -43.230 -54.021  13.237  1.00  0.00    -0.002 C 
HETATM   10  C   UNL     1     -44.405 -53.269  12.575  1.00  0.00     0.010 C 
HETATM   11  C   UNL     1     -45.640 -53.770  13.369  1.00  0.00    -0.014 C 
HETATM   12  C   UNL     1     -45.712 -53.003  14.694  1.00  0.00     0.005 C 
HETATM   13  C   UNL     1     -45.206 -55.149  13.870  1.00  0.00     0.009 C 
HETATM   14  C   UNL     1     -44.462 -53.505  15.430  1.00  0.00     0.005 C 
HETATM   15  C   UNL     1     -43.917 -54.613  14.496  1.00  0.00    -0.010 C 
ENDBRANCH   8   9
ENDBRANCH   5   8
BRANCH   1  16
HETATM   16  C   UNL     1     -38.304 -55.526  16.065  1.00  0.00     0.181 C 
BRANCH  16  17
HETATM   17  C   UNL     1     -38.942 -56.575  16.951  1.00  0.00     0.224 C 
HETATM   18  N   UNL     1     -38.180 -57.058  17.988  1.00  0.00    -0.365 N 
HETATM   19  C   UNL     1     -38.701 -58.031  18.911  1.00  0.00     0.149 C 
HETATM   20  H   UNL     1     -37.183 -56.850  17.992  1.00  0.00     0.161 HD
HETATM   21  O   UNL     1     -40.123 -56.895  16.804  1.00  0.00    -0.273 OA
ENDBRANCH  16  17
ENDBRANCH   1  16
TORSDOF 4
ENDMDL
MODEL 8
REMARK VINA RESULT:      -5.7      3.904      5.372
REMARK  4 active torsions:
REMARK  status: ('A' for Active; 'I' for Inactive)
REMARK       I    between atoms: N_2  and  C_3 
REMARK    1  A    between atoms: C_3  and  C_5 
REMARK    2  A    between atoms: C_5  and  C_6 
REMARK    3  A    between atoms: C_10  and  C_11 
REMARK    4  A    between atoms: C_11  and  C_12 
ROOT
HETATM    1  C   UNL     1     -41.353 -50.163  11.614  1.00  0.00     0.112 A 
HETATM    2  N   UNL     1     -42.574 -50.484  12.062  1.00  0.00    -0.247 N 
ATOM      3  HN  UNL     1     -43.405 -49.894  12.105  1.00  0.00     0.196 HD
HETATM    4  O   UNL     1     -42.441 -51.807  12.453  1.00  0.00    -0.223 OA
HETATM    5  C   UNL     1     -41.149 -52.172  12.193  1.00  0.00     0.148 A 
HETATM    6  N   UNL     1     -40.439 -51.205  11.655  1.00  0.00    -0.326 N 
ATOM      7  HN  UNL     1     -39.467 -51.218  11.347  1.00  0.00     0.169 HD
ENDROOT
BRANCH   5   8
HETATM    8  C   UNL     1     -40.768 -53.517  12.698  1.00  0.00     0.091 C 
BRANCH   8   9
HETATM    9  C   UNL     1     -39.788 -53.533  13.870  1.00  0.00    -0.002 C 
HETATM   10  C   UNL     1     -39.106 -54.872  14.226  1.00  0.00     0.010 C 
HETATM   11  C   UNL     1     -39.205 -54.921  15.774  1.00  0.00    -0.014 C 
HETATM   12  C   UNL     1     -40.618 -55.376  16.159  1.00  0.00     0.005 C 
HETATM   13  C   UNL     1     -39.271 -53.445  16.173  1.00  0.00     0.009 C 
HETATM   14  C   UNL     1     -41.481 -54.199  15.682  1.00  0.00     0.005 C 
HETATM   15  C   UNL     1     -40.437 -53.150  15.226  1.00  0.00    -0.010 C 
ENDBRANCH   8   9
ENDBRANCH   5   8
BRANCH   1  16
HETATM   16  C   UNL     1     -41.089 -48.812  11.053  1.00  0.00     0.181 C 
BRANCH  16  17
HETATM   17  C   UNL     1     -42.290 -48.069  10.508  1.00  0.00     0.224 C 
HETATM   18  N   UNL     1     -42.505 -48.146   9.153  1.00  0.00    -0.365 N 
HETATM   19  C   UNL     1     -43.637 -47.507   8.536  1.00  0.00     0.149 C 
HETATM   20  H   UNL     1     -41.757 -48.513   8.566  1.00  0.00     0.161 HD
HETATM   21  O   UNL     1     -43.089 -47.514  11.265  1.00  0.00    -0.273 OA
ENDBRANCH  16  17
ENDBRANCH   1  16
TORSDOF 4
ENDMDL
MODEL 9
REMARK VINA RESULT:      -5.7      3.765      4.577
REMARK  4 active torsions:
REMARK  status: ('A' for Active; 'I' for Inactive)
REMARK       I    between atoms: N_2  and  C_3 
REMARK    1  A    between atoms: C_3  and  C_5 
REMARK    2  A    between atoms: C_5  and  C_6 
REMARK    3  A    between atoms: C_10  and  C_11 
REMARK    4  A    between atoms: C_11  and  C_12 
ROOT
HETATM    1  C   UNL     1     -40.287 -54.391  14.636  1.00  0.00     0.112 A 
HETATM    2  N   UNL     1     -40.422 -54.344  13.304  1.00  0.00    -0.247 N 
ATOM      3  HN  UNL     1     -39.689 -54.283  12.598  1.00  0.00     0.196 HD
HETATM    4  O   UNL     1     -41.794 -54.399  13.112  1.00  0.00    -0.223 OA
HETATM    5  C   UNL     1     -42.366 -54.486  14.351  1.00  0.00     0.148 A 
HETATM    6  N   UNL     1     -41.484 -54.508  15.326  1.00  0.00    -0.326 N 
ATOM      7  HN  UNL     1     -41.640 -54.590  16.330  1.00  0.00     0.169 HD
ENDROOT
BRANCH   5   8
HETATM    8  C   UNL     1     -43.850 -54.391  14.360  1.00  0.00     0.091 C 
BRANCH   8   9
HETATM    9  C   UNL     1     -44.454 -53.349  13.421  1.00  0.00    -0.002 C 
HETATM   10  C   UNL     1     -44.191 -51.858  13.728  1.00  0.00     0.010 C 
HETATM   11  C   UNL     1     -45.581 -51.202  13.521  1.00  0.00    -0.014 C 
HETATM   12  C   UNL     1     -46.431 -51.455  14.772  1.00  0.00     0.005 C 
HETATM   13  C   UNL     1     -46.271 -52.135  12.524  1.00  0.00     0.009 C 
HETATM   14  C   UNL     1     -46.633 -52.976  14.727  1.00  0.00     0.005 C 
HETATM   15  C   UNL     1     -46.004 -53.382  13.372  1.00  0.00    -0.010 C 
ENDBRANCH   8   9
ENDBRANCH   5   8
BRANCH   1  16
HETATM   16  C   UNL     1     -38.936 -54.399  15.255  1.00  0.00     0.181 C 
BRANCH  16  17
HETATM   17  C   UNL     1     -38.631 -55.562  16.176  1.00  0.00     0.224 C 
HETATM   18  N   UNL     1     -37.518 -55.446  16.974  1.00  0.00    -0.365 N 
HETATM   19  C   UNL     1     -37.157 -56.478  17.911  1.00  0.00     0.149 C 
HETATM   20  H   UNL     1     -36.853 -54.702  16.769  1.00  0.00     0.161 HD
HETATM   21  O   UNL     1     -39.408 -56.513  16.274  1.00  0.00    -0.273 OA
ENDBRANCH  16  17
ENDBRANCH   1  16
TORSDOF 4
ENDMDL
