MODEL 1
REMARK VINA RESULT:      -6.0      0.000      0.000
REMARK  5 active torsions:
REMARK  status: ('A' for Active; 'I' for Inactive)
REMARK    1  A    between atoms: C_2  and  N_3 
REMARK    2  A    between atoms: C_2  and  C_17 
REMARK       I    between atoms: N_3  and  C_4 
REMARK    3  A    between atoms: C_4  and  C_6 
REMARK    4  A    between atoms: C_6  and  N_7 
REMARK    5  A    between atoms: C_11  and  N_12 
ROOT
HETATM    1  N   UNL     1     -44.922 -52.621  12.615  1.00  0.00    -0.355 N 
HETATM    2  C   UNL     1     -44.458 -53.914  12.758  1.00  0.00     0.236 C 
HETATM    3  O   UNL     1     -45.152 -54.851  13.150  1.00  0.00    -0.272 OA
HETATM    4  H   UNL     1     -44.365 -51.976  12.057  1.00  0.00     0.162 HD
ENDROOT
BRANCH   2   5
HETATM    5  C   UNL     1     -43.024 -54.125  12.297  1.00  0.00     0.234 C 
BRANCH   5   6
HETATM    6  N   UNL     1     -42.127 -53.607  13.322  1.00  0.00    -0.314 N 
HETATM    7  C   UNL     1     -42.331 -53.949  14.649  1.00  0.00     0.095 C 
HETATM    8  C   UNL     1     -41.493 -53.535  15.608  1.00  0.00     0.020 C 
HETATM    9  C   UNL     1     -40.394 -52.660  15.272  1.00  0.00     0.043 C 
HETATM   10  C   UNL     1     -40.162 -52.348  13.984  1.00  0.00     0.170 C 
HETATM   11  C   UNL     1     -40.985 -52.912  12.887  1.00  0.00     0.281 C 
HETATM   12  O   UNL     1     -40.695 -52.818  11.698  1.00  0.00    -0.265 OA
BRANCH  10  13
HETATM   13  N   UNL     1     -39.126 -51.394  13.681  1.00  0.00    -0.110 N 
HETATM   14  O   UNL     1     -38.046 -51.825  13.262  1.00  0.00    -0.532 OA
HETATM   15  O   UNL     1     -39.403 -50.189  13.796  1.00  0.00    -0.532 OA
ENDBRANCH  10  13
ENDBRANCH   5   6
ENDBRANCH   2   5
BRANCH   1  16
HETATM   16  C   UNL     1     -46.291 -52.249  12.955  1.00  0.00     0.084 C 
HETATM   17  C   UNL     1     -46.975 -51.646  11.725  1.00  0.00     0.032 C 
BRANCH  16  18
HETATM   18  C   UNL     1     -46.329 -51.273  14.153  1.00  0.00     0.012 C 
HETATM   19  C   UNL     1     -44.946 -50.925  14.761  1.00  0.00     0.011 C 
HETATM   20  C   UNL     1     -45.098 -51.321  16.235  1.00  0.00    -0.014 C 
HETATM   21  C   UNL     1     -45.183 -52.858  16.326  1.00  0.00     0.005 C 
HETATM   22  C   UNL     1     -46.532 -50.887  16.513  1.00  0.00     0.010 C 
HETATM   23  C   UNL     1     -46.618 -53.151  15.867  1.00  0.00     0.005 C 
HETATM   24  C   UNL     1     -47.113 -51.772  15.405  1.00  0.00    -0.008 C 
ENDBRANCH  16  18
ENDBRANCH   1  16
TORSDOF 5
ENDMDL
MODEL 2
REMARK VINA RESULT:      -6.0      1.844      2.058
REMARK  5 active torsions:
REMARK  status: ('A' for Active; 'I' for Inactive)
REMARK    1  A    between atoms: C_2  and  N_3 
REMARK    2  A    between atoms: C_2  and  C_17 
REMARK       I    between atoms: N_3  and  C_4 
REMARK    3  A    between atoms: C_4  and  C_6 
REMARK    4  A    between atoms: C_6  and  N_7 
REMARK    5  A    between atoms: C_11  and  N_12 
ROOT
HETATM    1  N   UNL     1     -44.792 -52.021  12.513  1.00  0.00    -0.355 N 
HETATM    2  C   UNL     1     -43.903 -53.074  12.409  1.00  0.00     0.236 C 
HETATM    3  O   UNL     1     -44.231 -54.257  12.480  1.00  0.00    -0.272 OA
HETATM    4  H   UNL     1     -44.481 -51.105  12.197  1.00  0.00     0.162 HD
ENDROOT
BRANCH   2   5
HETATM    5  C   UNL     1     -42.472 -52.663  12.097  1.00  0.00     0.234 C 
BRANCH   5   6
HETATM    6  N   UNL     1     -41.626 -53.041  13.222  1.00  0.00    -0.314 N 
HETATM    7  C   UNL     1     -40.761 -54.117  13.098  1.00  0.00     0.095 C 
HETATM    8  C   UNL     1     -39.930 -54.455  14.092  1.00  0.00     0.020 C 
HETATM    9  C   UNL     1     -39.979 -53.737  15.344  1.00  0.00     0.043 C 
HETATM   10  C   UNL     1     -40.786 -52.669  15.467  1.00  0.00     0.170 C 
HETATM   11  C   UNL     1     -41.608 -52.180  14.333  1.00  0.00     0.281 C 
HETATM   12  O   UNL     1     -42.203 -51.106  14.333  1.00  0.00    -0.265 OA
BRANCH  10  13
HETATM   13  N   UNL     1     -40.896 -52.029  16.754  1.00  0.00    -0.110 N 
HETATM   14  O   UNL     1     -41.835 -52.358  17.487  1.00  0.00    -0.532 OA
HETATM   15  O   UNL     1     -40.000 -51.232  17.076  1.00  0.00    -0.532 OA
ENDBRANCH  10  13
ENDBRANCH   5   6
ENDBRANCH   2   5
BRANCH   1  16
HETATM   16  C   UNL     1     -46.215 -52.234  12.754  1.00  0.00     0.084 C 
HETATM   17  C   UNL     1     -47.020 -51.660  11.585  1.00  0.00     0.032 C 
BRANCH  16  18
HETATM   18  C   UNL     1     -46.658 -51.613  14.099  1.00  0.00     0.012 C 
HETATM   19  C   UNL     1     -45.536 -50.898  14.894  1.00  0.00     0.011 C 
HETATM   20  C   UNL     1     -45.551 -51.614  16.250  1.00  0.00    -0.014 C 
HETATM   21  C   UNL     1     -45.029 -53.052  16.054  1.00  0.00     0.005 C 
HETATM   22  C   UNL     1     -47.046 -51.825  16.458  1.00  0.00     0.010 C 
HETATM   23  C   UNL     1     -46.224 -53.768  15.409  1.00  0.00     0.005 C 
HETATM   24  C   UNL     1     -47.210 -52.616  15.156  1.00  0.00    -0.008 C 
ENDBRANCH  16  18
ENDBRANCH   1  16
TORSDOF 5
ENDMDL
MODEL 3
REMARK VINA RESULT:      -5.9      1.809      2.455
REMARK  5 active torsions:
REMARK  status: ('A' for Active; 'I' for Inactive)
REMARK    1  A    between atoms: C_2  and  N_3 
REMARK    2  A    between atoms: C_2  and  C_17 
REMARK       I    between atoms: N_3  and  C_4 
REMARK    3  A    between atoms: C_4  and  C_6 
REMARK    4  A    between atoms: C_6  and  N_7 
REMARK    5  A    between atoms: C_11  and  N_12 
ROOT
HETATM    1  N   UNL     1     -43.688 -54.223  13.345  1.00  0.00    -0.355 N 
HETATM    2  C   UNL     1     -42.401 -54.201  13.847  1.00  0.00     0.236 C 
HETATM    3  O   UNL     1     -42.133 -54.245  15.046  1.00  0.00    -0.272 OA
HETATM    4  H   UNL     1     -43.808 -54.435  12.356  1.00  0.00     0.162 HD
ENDROOT
BRANCH   2   5
HETATM    5  C   UNL     1     -41.310 -54.218  12.787  1.00  0.00     0.234 C 
BRANCH   5   6
HETATM    6  N   UNL     1     -40.775 -52.868  12.653  1.00  0.00    -0.314 N 
HETATM    7  C   UNL     1     -41.589 -51.852  12.177  1.00  0.00     0.095 C 
HETATM    8  C   UNL     1     -41.145 -50.592  12.094  1.00  0.00     0.020 C 
HETATM    9  C   UNL     1     -39.776 -50.289  12.437  1.00  0.00     0.043 C 
HETATM   10  C   UNL     1     -38.984 -51.256  12.932  1.00  0.00     0.170 C 
HETATM   11  C   UNL     1     -39.493 -52.628  13.176  1.00  0.00     0.281 C 
HETATM   12  O   UNL     1     -38.876 -53.484  13.804  1.00  0.00    -0.265 OA
BRANCH  10  13
HETATM   13  N   UNL     1     -37.595 -50.958  13.171  1.00  0.00    -0.110 N 
HETATM   14  O   UNL     1     -36.755 -51.465  12.419  1.00  0.00    -0.532 OA
HETATM   15  O   UNL     1     -37.328 -50.155  14.079  1.00  0.00    -0.532 OA
ENDBRANCH  10  13
ENDBRANCH   5   6
ENDBRANCH   2   5
BRANCH   1  16
HETATM   16  C   UNL     1     -44.856 -54.267  14.217  1.00  0.00     0.084 C 
HETATM   17  C   UNL     1     -45.707 -55.491  13.868  1.00  0.00     0.032 C 
BRANCH  16  18
HETATM   18  C   UNL     1     -45.682 -52.964  14.119  1.00  0.00     0.012 C 
HETATM   19  C   UNL     1     -44.872 -51.657  14.314  1.00  0.00     0.011 C 
HETATM   20  C   UNL     1     -45.594 -50.963  15.476  1.00  0.00    -0.014 C 
HETATM   21  C   UNL     1     -45.340 -51.770  16.765  1.00  0.00     0.005 C 
HETATM   22  C   UNL     1     -47.049 -51.287  15.158  1.00  0.00     0.010 C 
HETATM   23  C   UNL     1     -46.277 -52.976  16.607  1.00  0.00     0.005 C 
HETATM   24  C   UNL     1     -46.814 -52.800  15.178  1.00  0.00    -0.008 C 
ENDBRANCH  16  18
ENDBRANCH   1  16
TORSDOF 5
ENDMDL
MODEL 4
REMARK VINA RESULT:      -5.8      2.621      3.748
REMARK  5 active torsions:
REMARK  status: ('A' for Active; 'I' for Inactive)
REMARK    1  A    between atoms: C_2  and  N_3 
REMARK    2  A    between atoms: C_2  and  C_17 
REMARK       I    between atoms: N_3  and  C_4 
REMARK    3  A    between atoms: C_4  and  C_6 
REMARK    4  A    between atoms: C_6  and  N_7 
REMARK    5  A    between atoms: C_11  and  N_12 
ROOT
HETATM    1  N   UNL     1     -43.061 -51.517  12.906  1.00  0.00    -0.355 N 
HETATM    2  C   UNL     1     -42.545 -50.416  13.562  1.00  0.00     0.236 C 
HETATM    3  O   UNL     1     -42.398 -50.351  14.781  1.00  0.00    -0.272 OA
HETATM    4  H   UNL     1     -42.914 -51.583  11.901  1.00  0.00     0.162 HD
ENDROOT
BRANCH   2   5
HETATM    5  C   UNL     1     -42.069 -49.301  12.643  1.00  0.00     0.234 C 
BRANCH   5   6
HETATM    6  N   UNL     1     -40.634 -49.126  12.832  1.00  0.00    -0.314 N 
HETATM    7  C   UNL     1     -40.170 -48.130  13.678  1.00  0.00     0.095 C 
HETATM    8  C   UNL     1     -38.861 -47.980  13.916  1.00  0.00     0.020 C 
HETATM    9  C   UNL     1     -37.905 -48.817  13.230  1.00  0.00     0.043 C 
HETATM   10  C   UNL     1     -38.340 -49.810  12.434  1.00  0.00     0.170 C 
HETATM   11  C   UNL     1     -39.787 -50.096  12.269  1.00  0.00     0.281 C 
HETATM   12  O   UNL     1     -40.226 -51.101  11.719  1.00  0.00    -0.265 OA
BRANCH  10  13
HETATM   13  N   UNL     1     -37.373 -50.567  11.681  1.00  0.00    -0.110 N 
HETATM   14  O   UNL     1     -37.015 -50.123  10.585  1.00  0.00    -0.532 OA
HETATM   15  O   UNL     1     -36.908 -51.589  12.210  1.00  0.00    -0.532 OA
ENDBRANCH  10  13
ENDBRANCH   5   6
ENDBRANCH   2   5
BRANCH   1  16
HETATM   16  C   UNL     1     -43.514 -52.702  13.627  1.00  0.00     0.084 C 
HETATM   17  C   UNL     1     -42.828 -53.942  13.048  1.00  0.00     0.032 C 
BRANCH  16  18
HETATM   18  C   UNL     1     -45.053 -52.837  13.577  1.00  0.00     0.012 C 
HETATM   19  C   UNL     1     -45.819 -51.522  13.286  1.00  0.00     0.011 C 
HETATM   20  C   UNL     1     -46.769 -51.393  14.483  1.00  0.00    -0.014 C 
HETATM   21  C   UNL     1     -45.936 -51.083  15.743  1.00  0.00     0.005 C 
HETATM   22  C   UNL     1     -47.175 -52.847  14.699  1.00  0.00     0.010 C 
HETATM   23  C   UNL     1     -45.318 -52.444  16.092  1.00  0.00     0.005 C 
HETATM   24  C   UNL     1     -45.731 -53.318  14.897  1.00  0.00    -0.008 C 
ENDBRANCH  16  18
ENDBRANCH   1  16
TORSDOF 5
ENDMDL
MODEL 5
REMARK VINA RESULT:      -5.7      3.733      5.917
REMARK  5 active torsions:
REMARK  status: ('A' for Active; 'I' for Inactive)
REMARK    1  A    between atoms: C_2  and  N_3 
REMARK    2  A    between atoms: C_2  and  C_17 
REMARK       I    between atoms: N_3  and  C_4 
REMARK    3  A    between atoms: C_4  and  C_6 
REMARK    4  A    between atoms: C_6  and  N_7 
REMARK    5  A    between atoms: C_11  and  N_12 
ROOT
HETATM    1  N   UNL     1     -42.481 -50.471  12.414  1.00  0.00    -0.355 N 
HETATM    2  C   UNL     1     -41.397 -51.323  12.317  1.00  0.00     0.236 C 
HETATM    3  O   UNL     1     -40.256 -51.023  12.664  1.00  0.00    -0.272 OA
HETATM    4  H   UNL     1     -43.412 -50.877  12.343  1.00  0.00     0.162 HD
ENDROOT
BRANCH   2   5
HETATM    5  C   UNL     1     -41.738 -52.723  11.829  1.00  0.00     0.234 C 
BRANCH   5   6
HETATM    6  N   UNL     1     -42.184 -53.515  12.969  1.00  0.00    -0.314 N 
HETATM    7  C   UNL     1     -41.259 -53.958  13.901  1.00  0.00     0.095 C 
HETATM    8  C   UNL     1     -41.644 -54.639  14.988  1.00  0.00     0.020 C 
HETATM    9  C   UNL     1     -43.035 -54.982  15.165  1.00  0.00     0.043 C 
HETATM   10  C   UNL     1     -43.949 -54.530  14.289  1.00  0.00     0.170 C 
HETATM   11  C   UNL     1     -43.571 -53.648  13.157  1.00  0.00     0.281 C 
HETATM   12  O   UNL     1     -44.383 -53.054  12.454  1.00  0.00    -0.265 OA
BRANCH  10  13
HETATM   13  N   UNL     1     -45.315 -54.968  14.426  1.00  0.00    -0.110 N 
HETATM   14  O   UNL     1     -45.744 -55.792  13.611  1.00  0.00    -0.532 OA
HETATM   15  O   UNL     1     -45.960 -54.540  15.396  1.00  0.00    -0.532 OA
ENDBRANCH  10  13
ENDBRANCH   5   6
ENDBRANCH   2   5
BRANCH   1  16
HETATM   16  C   UNL     1     -42.348 -49.108  12.916  1.00  0.00     0.084 C 
HETATM   17  C   UNL     1     -43.127 -48.970  14.226  1.00  0.00     0.032 C 
BRANCH  16  18
HETATM   18  C   UNL     1     -42.822 -48.073  11.870  1.00  0.00     0.012 C 
HETATM   19  C   UNL     1     -42.103 -48.149  10.499  1.00  0.00     0.011 C 
HETATM   20  C   UNL     1     -41.539 -46.734  10.318  1.00  0.00    -0.014 C 
HETATM   21  C   UNL     1     -40.402 -46.522  11.338  1.00  0.00     0.005 C 
HETATM   22  C   UNL     1     -42.668 -45.887  10.892  1.00  0.00     0.010 C 
HETATM   23  C   UNL     1     -41.158 -46.295  12.654  1.00  0.00     0.005 C 
HETATM   24  C   UNL     1     -42.616 -46.578  12.258  1.00  0.00    -0.008 C 
ENDBRANCH  16  18
ENDBRANCH   1  16
TORSDOF 5
ENDMDL
MODEL 6
REMARK VINA RESULT:      -5.7      5.374      6.696
REMARK  5 active torsions:
REMARK  status: ('A' for Active; 'I' for Inactive)
REMARK    1  A    between atoms: C_2  and  N_3 
REMARK    2  A    between atoms: C_2  and  C_17 
REMARK       I    between atoms: N_3  and  C_4 
REMARK    3  A    between atoms: C_4  and  C_6 
REMARK    4  A    between atoms: C_6  and  N_7 
REMARK    5  A    between atoms: C_11  and  N_12 
ROOT
HETATM    1  N   UNL     1     -42.172 -48.006  11.445  1.00  0.00    -0.355 N 
HETATM    2  C   UNL     1     -42.433 -48.255  12.779  1.00  0.00     0.236 C 
HETATM    3  O   UNL     1     -43.152 -47.546  13.480  1.00  0.00    -0.272 OA
HETATM    4  H   UNL     1     -41.783 -48.765  10.888  1.00  0.00     0.162 HD
ENDROOT
BRANCH   2   5
HETATM    5  C   UNL     1     -41.834 -49.550  13.308  1.00  0.00     0.234 C 
BRANCH   5   6
HETATM    6  N   UNL     1     -40.386 -49.395  13.380  1.00  0.00    -0.314 N 
HETATM    7  C   UNL     1     -39.837 -48.498  14.283  1.00  0.00     0.095 C 
HETATM    8  C   UNL     1     -38.510 -48.372  14.414  1.00  0.00     0.020 C 
HETATM    9  C   UNL     1     -37.630 -49.128  13.555  1.00  0.00     0.043 C 
HETATM   10  C   UNL     1     -38.146 -50.028  12.699  1.00  0.00     0.170 C 
HETATM   11  C   UNL     1     -39.604 -50.296  12.638  1.00  0.00     0.281 C 
HETATM   12  O   UNL     1     -40.100 -51.236  12.025  1.00  0.00    -0.265 OA
BRANCH  10  13
HETATM   13  N   UNL     1     -37.259 -50.697  11.781  1.00  0.00    -0.110 N 
HETATM   14  O   UNL     1     -36.801 -51.795  12.114  1.00  0.00    -0.532 OA
HETATM   15  O   UNL     1     -37.060 -50.159  10.681  1.00  0.00    -0.532 OA
ENDBRANCH  10  13
ENDBRANCH   5   6
ENDBRANCH   2   5
BRANCH   1  16
HETATM   16  C   UNL     1     -42.713 -46.840  10.757  1.00  0.00     0.084 C 
HETATM   17  C   UNL     1     -43.471 -47.292   9.506  1.00  0.00     0.032 C 
BRANCH  16  18
HETATM   18  C   UNL     1     -41.600 -45.827  10.404  1.00  0.00     0.012 C 
HETATM   19  C   UNL     1     -40.172 -46.244  10.836  1.00  0.00     0.011 C 
HETATM   20  C   UNL     1     -39.712 -45.074  11.715  1.00  0.00    -0.014 C 
HETATM   21  C   UNL     1     -40.530 -45.088  13.022  1.00  0.00     0.005 C 
HETATM   22  C   UNL     1     -40.302 -43.887  10.963  1.00  0.00     0.010 C 
HETATM   23  C   UNL     1     -41.888 -44.521  12.586  1.00  0.00     0.005 C 
HETATM   24  C   UNL     1     -41.736 -44.419  11.060  1.00  0.00    -0.008 C 
ENDBRANCH  16  18
ENDBRANCH   1  16
TORSDOF 5
ENDMDL
MODEL 7
REMARK VINA RESULT:      -5.7      3.174      5.336
REMARK  5 active torsions:
REMARK  status: ('A' for Active; 'I' for Inactive)
REMARK    1  A    between atoms: C_2  and  N_3 
REMARK    2  A    between atoms: C_2  and  C_17 
REMARK       I    between atoms: N_3  and  C_4 
REMARK    3  A    between atoms: C_4  and  C_6 
REMARK    4  A    between atoms: C_6  and  N_7 
REMARK    5  A    between atoms: C_11  and  N_12 
ROOT
HETATM    1  N   UNL     1     -41.349 -50.584  11.727  1.00  0.00    -0.355 N 
HETATM    2  C   UNL     1     -42.267 -51.212  12.548  1.00  0.00     0.236 C 
HETATM    3  O   UNL     1     -42.904 -50.637  13.429  1.00  0.00    -0.272 OA
HETATM    4  H   UNL     1     -41.062 -51.068  10.879  1.00  0.00     0.162 HD
ENDROOT
BRANCH   2   5
HETATM    5  C   UNL     1     -42.511 -52.676  12.217  1.00  0.00     0.234 C 
BRANCH   5   6
HETATM    6  N   UNL     1     -42.209 -53.475  13.398  1.00  0.00    -0.314 N 
HETATM    7  C   UNL     1     -43.243 -54.051  14.119  1.00  0.00     0.095 C 
HETATM    8  C   UNL     1     -42.997 -54.836  15.175  1.00  0.00     0.020 C 
HETATM    9  C   UNL     1     -41.638 -55.035  15.621  1.00  0.00     0.043 C 
HETATM   10  C   UNL     1     -40.622 -54.512  14.912  1.00  0.00     0.170 C 
HETATM   11  C   UNL     1     -40.857 -53.762  13.653  1.00  0.00     0.281 C 
HETATM   12  O   UNL     1     -39.965 -53.440  12.874  1.00  0.00    -0.265 OA
BRANCH  10  13
HETATM   13  N   UNL     1     -39.283 -54.635  15.429  1.00  0.00    -0.110 N 
HETATM   14  O   UNL     1     -38.657 -55.670  15.177  1.00  0.00    -0.532 OA
HETATM   15  O   UNL     1     -38.813 -53.663  16.043  1.00  0.00    -0.532 OA
ENDBRANCH  10  13
ENDBRANCH   5   6
ENDBRANCH   2   5
BRANCH   1  16
HETATM   16  C   UNL     1     -41.034 -49.167  11.865  1.00  0.00     0.084 C 
HETATM   17  C   UNL     1     -41.529 -48.411  10.629  1.00  0.00     0.032 C 
BRANCH  16  18
HETATM   18  C   UNL     1     -39.520 -48.945  12.088  1.00  0.00     0.012 C 
HETATM   19  C   UNL     1     -38.655 -50.231  12.048  1.00  0.00     0.011 C 
HETATM   20  C   UNL     1     -37.942 -50.219  13.406  1.00  0.00    -0.014 C 
HETATM   21  C   UNL     1     -38.981 -50.488  14.512  1.00  0.00     0.005 C 
HETATM   22  C   UNL     1     -37.647 -48.734  13.575  1.00  0.00     0.010 C 
HETATM   23  C   UNL     1     -39.712 -49.144  14.632  1.00  0.00     0.005 C 
HETATM   24  C   UNL     1     -39.123 -48.335  13.466  1.00  0.00    -0.008 C 
ENDBRANCH  16  18
ENDBRANCH   1  16
TORSDOF 5
ENDMDL
MODEL 8
REMARK VINA RESULT:      -5.6      2.972      6.180
REMARK  5 active torsions:
REMARK  status: ('A' for Active; 'I' for Inactive)
REMARK    1  A    between atoms: C_2  and  N_3 
REMARK    2  A    between atoms: C_2  and  C_17 
REMARK       I    between atoms: N_3  and  C_4 
REMARK    3  A    between atoms: C_4  and  C_6 
REMARK    4  A    between atoms: C_6  and  N_7 
REMARK    5  A    between atoms: C_11  and  N_12 
ROOT
HETATM    1  N   UNL     1     -41.148 -50.348  11.524  1.00  0.00    -0.355 N 
HETATM    2  C   UNL     1     -41.889 -51.153  12.367  1.00  0.00     0.236 C 
HETATM    3  O   UNL     1     -42.445 -50.749  13.387  1.00  0.00    -0.272 OA
HETATM    4  H   UNL     1     -40.940 -50.701  10.592  1.00  0.00     0.162 HD
ENDROOT
BRANCH   2   5
HETATM    5  C   UNL     1     -42.052 -52.587  11.887  1.00  0.00     0.234 C 
BRANCH   5   6
HETATM    6  N   UNL     1     -42.432 -53.416  13.024  1.00  0.00    -0.314 N 
HETATM    7  C   UNL     1     -41.467 -53.812  13.937  1.00  0.00     0.095 C 
HETATM    8  C   UNL     1     -41.792 -54.526  15.022  1.00  0.00     0.020 C 
HETATM    9  C   UNL     1     -43.156 -54.957  15.216  1.00  0.00     0.043 C 
HETATM   10  C   UNL     1     -44.110 -54.552  14.359  1.00  0.00     0.170 C 
HETATM   11  C   UNL     1     -43.804 -53.637  13.231  1.00  0.00     0.281 C 
HETATM   12  O   UNL     1     -44.662 -53.086  12.547  1.00  0.00    -0.265 OA
BRANCH  10  13
HETATM   13  N   UNL     1     -45.444 -55.075  14.511  1.00  0.00    -0.110 N 
HETATM   14  O   UNL     1     -46.166 -54.575  15.380  1.00  0.00    -0.532 OA
HETATM   15  O   UNL     1     -45.810 -55.953  13.715  1.00  0.00    -0.532 OA
ENDBRANCH  10  13
ENDBRANCH   5   6
ENDBRANCH   2   5
BRANCH   1  16
HETATM   16  C   UNL     1     -40.936 -48.931  11.799  1.00  0.00     0.084 C 
HETATM   17  C   UNL     1     -41.450 -48.101  10.620  1.00  0.00     0.032 C 
BRANCH  16  18
HETATM   18  C   UNL     1     -39.448 -48.630  12.090  1.00  0.00     0.012 C 
HETATM   19  C   UNL     1     -38.500 -49.853  11.997  1.00  0.00     0.011 C 
HETATM   20  C   UNL     1     -37.831 -49.888  13.377  1.00  0.00    -0.014 C 
HETATM   21  C   UNL     1     -38.885 -50.297  14.425  1.00  0.00     0.005 C 
HETATM   22  C   UNL     1     -37.641 -48.401  13.653  1.00  0.00     0.010 C 
HETATM   23  C   UNL     1     -39.707 -49.013  14.607  1.00  0.00     0.005 C 
HETATM   24  C   UNL     1     -39.135 -48.090  13.519  1.00  0.00    -0.008 C 
ENDBRANCH  16  18
ENDBRANCH   1  16
TORSDOF 5
ENDMDL
MODEL 9
REMARK VINA RESULT:      -5.6      4.329      6.481
REMARK  5 active torsions:
REMARK  status: ('A' for Active; 'I' for Inactive)
REMARK    1  A    between atoms: C_2  and  N_3 
REMARK    2  A    between atoms: C_2  and  C_17 
REMARK       I    between atoms: N_3  and  C_4 
REMARK    3  A    between atoms: C_4  and  C_6 
REMARK    4  A    between atoms: C_6  and  N_7 
REMARK    5  A    between atoms: C_11  and  N_12 
ROOT
HETATM    1  N   UNL     1     -42.106 -48.329  11.949  1.00  0.00    -0.355 N 
HETATM    2  C   UNL     1     -41.473 -49.548  12.096  1.00  0.00     0.236 C 
HETATM    3  O   UNL     1     -40.800 -50.081  11.216  1.00  0.00    -0.272 OA
HETATM    4  H   UNL     1     -42.423 -47.854  12.792  1.00  0.00     0.162 HD
ENDROOT
BRANCH   2   5
HETATM    5  C   UNL     1     -41.589 -50.155  13.486  1.00  0.00     0.234 C 
BRANCH   5   6
HETATM    6  N   UNL     1     -41.970 -51.555  13.350  1.00  0.00    -0.314 N 
HETATM    7  C   UNL     1     -40.999 -52.541  13.423  1.00  0.00     0.095 C 
HETATM    8  C   UNL     1     -41.322 -53.838  13.357  1.00  0.00     0.020 C 
HETATM    9  C   UNL     1     -42.696 -54.225  13.137  1.00  0.00     0.043 C 
HETATM   10  C   UNL     1     -43.655 -53.283  13.099  1.00  0.00     0.170 C 
HETATM   11  C   UNL     1     -43.345 -51.849  13.318  1.00  0.00     0.281 C 
HETATM   12  O   UNL     1     -44.198 -50.984  13.489  1.00  0.00    -0.265 OA
BRANCH  10  13
HETATM   13  N   UNL     1     -45.002 -53.680  12.777  1.00  0.00    -0.110 N 
HETATM   14  O   UNL     1     -45.451 -54.697  13.317  1.00  0.00    -0.532 OA
HETATM   15  O   UNL     1     -45.655 -52.938  12.026  1.00  0.00    -0.532 OA
ENDBRANCH  10  13
ENDBRANCH   5   6
ENDBRANCH   2   5
BRANCH   1  16
HETATM   16  C   UNL     1     -42.052 -47.577  10.700  1.00  0.00     0.084 C 
HETATM   17  C   UNL     1     -40.872 -46.603  10.742  1.00  0.00     0.032 C 
BRANCH  16  18
HETATM   18  C   UNL     1     -43.382 -46.835  10.430  1.00  0.00     0.012 C 
HETATM   19  C   UNL     1     -44.640 -47.738  10.385  1.00  0.00     0.011 C 
HETATM   20  C   UNL     1     -45.238 -47.443   9.003  1.00  0.00    -0.014 C 
HETATM   21  C   UNL     1     -44.303 -48.030   7.926  1.00  0.00     0.005 C 
HETATM   22  C   UNL     1     -44.988 -45.945   8.885  1.00  0.00     0.010 C 
HETATM   23  C   UNL     1     -43.145 -47.023   7.889  1.00  0.00     0.005 C 
HETATM   24  C   UNL     1     -43.473 -46.089   9.065  1.00  0.00    -0.008 C 
ENDBRANCH  16  18
ENDBRANCH   1  16
TORSDOF 5
ENDMDL
