MODEL 1
REMARK VINA RESULT:      -6.4      0.000      0.000
REMARK  5 active torsions:
REMARK  status: ('A' for Active; 'I' for Inactive)
REMARK       I    between atoms: C_2  and  N_3 
REMARK       I    between atoms: C_2  and  N_13 
REMARK    1  A    between atoms: N_3  and  C_4 
REMARK    2  A    between atoms: C_4  and  C_5 
REMARK    3  A    between atoms: C_5  and  C_6 
REMARK    4  A    between atoms: N_13  and  C_14 
REMARK    5  A    between atoms: C_18  and  C_20 
ROOT
HETATM    1  O   UNL     1     -41.204 -49.691  13.316  1.00  0.00    -0.247 OA
HETATM    2  C   UNL     1     -42.007 -50.048  12.468  1.00  0.00     0.316 C 
HETATM    3  N   UNL     1     -42.326 -49.325  11.342  1.00  0.00    -0.343 N 
HETATM    4  N   UNL     1     -42.701 -51.231  12.491  1.00  0.00    -0.339 N 
HETATM    5  H   UNL     1     -42.553 -49.906  10.549  1.00  0.00     0.164 HD
HETATM    6  H   UNL     1     -43.579 -51.211  11.996  1.00  0.00     0.164 HD
ENDROOT
BRANCH   3   7
HETATM    7  C   UNL     1     -41.619 -48.086  11.068  1.00  0.00     0.129 C 
BRANCH   7   8
HETATM    8  C   UNL     1     -42.578 -46.971  10.652  1.00  0.00     0.058 C 
BRANCH   8   9
HETATM    9  C   UNL     1     -43.566 -47.428   9.611  1.00  0.00    -0.054 A 
HETATM   10  C   UNL     1     -43.144 -47.794   8.331  1.00  0.00     0.024 A 
HETATM   11  C   UNL     1     -44.096 -48.187   7.403  1.00  0.00     0.088 A 
HETATM   12  N   UNL     1     -45.420 -48.238   7.660  1.00  0.00    -0.375 N 
HETATM   13  C   UNL     1     -45.808 -47.875   8.901  1.00  0.00     0.088 A 
ATOM     14  HN  UNL     1     -46.092 -48.535   6.954  1.00  0.00     0.164 HD
HETATM   15  C   UNL     1     -44.933 -47.468   9.896  1.00  0.00     0.024 A 
ENDBRANCH   8   9
ENDBRANCH   7   8
ENDBRANCH   3   7
BRANCH   4  16
HETATM   16  C   UNL     1     -42.575 -52.175  13.595  1.00  0.00     0.086 C 
HETATM   17  C   UNL     1     -42.650 -53.616  13.077  1.00  0.00     0.025 C 
HETATM   18  C   UNL     1     -44.055 -53.989  12.614  1.00  0.00     0.002 C 
HETATM   19  C   UNL     1     -45.082 -53.773  13.718  1.00  0.00     0.005 C 
HETATM   20  C   UNL     1     -45.051 -52.347  14.291  1.00  0.00    -0.009 C 
HETATM   21  C   UNL     1     -43.621 -51.931  14.693  1.00  0.00     0.030 C 
BRANCH  20  22
HETATM   22  C   UNL     1     -45.971 -52.252  15.492  1.00  0.00    -0.010 A 
HETATM   23  C   UNL     1     -47.199 -51.376  15.463  1.00  0.00     0.005 A 
HETATM   24  C   UNL     1     -46.026 -50.992  16.318  1.00  0.00     0.005 A 
ENDBRANCH  20  22
ENDBRANCH   4  16
TORSDOF 5
ENDMDL
MODEL 2
REMARK VINA RESULT:      -6.2      1.384      2.035
REMARK  5 active torsions:
REMARK  status: ('A' for Active; 'I' for Inactive)
REMARK       I    between atoms: C_2  and  N_3 
REMARK       I    between atoms: C_2  and  N_13 
REMARK    1  A    between atoms: N_3  and  C_4 
REMARK    2  A    between atoms: C_4  and  C_5 
REMARK    3  A    between atoms: C_5  and  C_6 
REMARK    4  A    between atoms: N_13  and  C_14 
REMARK    5  A    between atoms: C_18  and  C_20 
ROOT
HETATM    1  O   UNL     1     -41.112 -48.823  13.228  1.00  0.00    -0.247 OA
HETATM    2  C   UNL     1     -41.724 -49.557  12.468  1.00  0.00     0.316 C 
HETATM    3  N   UNL     1     -42.146 -49.200  11.208  1.00  0.00    -0.343 N 
HETATM    4  N   UNL     1     -42.071 -50.857  12.739  1.00  0.00    -0.339 N 
HETATM    5  H   UNL     1     -42.148 -49.971  10.557  1.00  0.00     0.164 HD
HETATM    6  H   UNL     1     -42.883 -51.186  12.240  1.00  0.00     0.164 HD
ENDROOT
BRANCH   3   7
HETATM    7  C   UNL     1     -41.784 -47.895  10.680  1.00  0.00     0.129 C 
BRANCH   7   8
HETATM    8  C   UNL     1     -43.008 -46.995  10.516  1.00  0.00     0.058 C 
BRANCH   8   9
HETATM    9  C   UNL     1     -43.954 -47.507   9.461  1.00  0.00    -0.054 A 
HETATM   10  C   UNL     1     -43.489 -47.884   8.200  1.00  0.00     0.024 A 
HETATM   11  C   UNL     1     -44.403 -48.327   7.258  1.00  0.00     0.088 A 
HETATM   12  N   UNL     1     -45.731 -48.418   7.485  1.00  0.00    -0.375 N 
HETATM   13  C   UNL     1     -46.161 -48.043   8.708  1.00  0.00     0.088 A 
ATOM     14  HN  UNL     1     -46.376 -48.752   6.768  1.00  0.00     0.164 HD
HETATM   15  C   UNL     1     -45.325 -47.587   9.714  1.00  0.00     0.024 A 
ENDBRANCH   8   9
ENDBRANCH   7   8
ENDBRANCH   3   7
BRANCH   4  16
HETATM   16  C   UNL     1     -41.773 -51.480  14.022  1.00  0.00     0.086 C 
HETATM   17  C   UNL     1     -40.447 -52.245  13.950  1.00  0.00     0.025 C 
HETATM   18  C   UNL     1     -40.557 -53.508  13.101  1.00  0.00     0.002 C 
HETATM   19  C   UNL     1     -41.665 -54.424  13.603  1.00  0.00     0.005 C 
HETATM   20  C   UNL     1     -43.024 -53.712  13.711  1.00  0.00    -0.009 C 
HETATM   21  C   UNL     1     -42.909 -52.394  14.504  1.00  0.00     0.030 C 
BRANCH  20  22
HETATM   22  C   UNL     1     -44.035 -54.626  14.374  1.00  0.00    -0.010 A 
HETATM   23  C   UNL     1     -45.302 -55.031  13.661  1.00  0.00     0.005 A 
HETATM   24  C   UNL     1     -45.369 -54.091  14.829  1.00  0.00     0.005 A 
ENDBRANCH  20  22
ENDBRANCH   4  16
TORSDOF 5
ENDMDL
MODEL 3
REMARK VINA RESULT:      -6.1      1.973      6.949
REMARK  5 active torsions:
REMARK  status: ('A' for Active; 'I' for Inactive)
REMARK       I    between atoms: C_2  and  N_3 
REMARK       I    between atoms: C_2  and  N_13 
REMARK    1  A    between atoms: N_3  and  C_4 
REMARK    2  A    between atoms: C_4  and  C_5 
REMARK    3  A    between atoms: C_5  and  C_6 
REMARK    4  A    between atoms: N_13  and  C_14 
REMARK    5  A    between atoms: C_18  and  C_20 
ROOT
HETATM    1  O   UNL     1     -40.003 -51.796  12.340  1.00  0.00    -0.247 OA
HETATM    2  C   UNL     1     -41.204 -51.717  12.135  1.00  0.00     0.316 C 
HETATM    3  N   UNL     1     -42.089 -52.762  12.263  1.00  0.00    -0.343 N 
HETATM    4  N   UNL     1     -41.865 -50.572  11.766  1.00  0.00    -0.339 N 
HETATM    5  H   UNL     1     -43.006 -52.471  12.567  1.00  0.00     0.164 HD
HETATM    6  H   UNL     1     -42.718 -50.730  11.252  1.00  0.00     0.164 HD
ENDROOT
BRANCH   3   7
HETATM    7  C   UNL     1     -41.610 -54.044  12.754  1.00  0.00     0.129 C 
BRANCH   7   8
HETATM    8  C   UNL     1     -41.939 -54.239  14.233  1.00  0.00     0.058 C 
BRANCH   8   9
HETATM    9  C   UNL     1     -43.417 -54.131  14.506  1.00  0.00    -0.054 A 
HETATM   10  C   UNL     1     -44.331 -54.967  13.862  1.00  0.00     0.024 A 
HETATM   11  C   UNL     1     -45.681 -54.812  14.132  1.00  0.00     0.088 A 
HETATM   12  N   UNL     1     -46.175 -53.892  14.987  1.00  0.00    -0.375 N 
HETATM   13  C   UNL     1     -45.276 -53.089  15.596  1.00  0.00     0.088 A 
ATOM     14  HN  UNL     1     -47.176 -53.808  15.165  1.00  0.00     0.164 HD
HETATM   15  C   UNL     1     -43.908 -53.168  15.391  1.00  0.00     0.024 A 
ENDBRANCH   8   9
ENDBRANCH   7   8
ENDBRANCH   3   7
BRANCH   4  16
HETATM   16  C   UNL     1     -41.159 -49.320  11.528  1.00  0.00     0.086 C 
HETATM   17  C   UNL     1     -41.037 -48.519  12.829  1.00  0.00     0.025 C 
HETATM   18  C   UNL     1     -42.377 -47.946  13.280  1.00  0.00     0.002 C 
HETATM   19  C   UNL     1     -43.011 -47.089  12.193  1.00  0.00     0.005 C 
HETATM   20  C   UNL     1     -43.152 -47.831  10.853  1.00  0.00    -0.009 C 
HETATM   21  C   UNL     1     -41.819 -48.478  10.426  1.00  0.00     0.030 C 
BRANCH  20  22
HETATM   22  C   UNL     1     -43.628 -46.873   9.779  1.00  0.00    -0.010 A 
HETATM   23  C   UNL     1     -44.914 -47.121   9.031  1.00  0.00     0.005 A 
HETATM   24  C   UNL     1     -43.597 -47.274   8.326  1.00  0.00     0.005 A 
ENDBRANCH  20  22
ENDBRANCH   4  16
TORSDOF 5
ENDMDL
MODEL 4
REMARK VINA RESULT:      -5.9      2.224      7.399
REMARK  5 active torsions:
REMARK  status: ('A' for Active; 'I' for Inactive)
REMARK       I    between atoms: C_2  and  N_3 
REMARK       I    between atoms: C_2  and  N_13 
REMARK    1  A    between atoms: N_3  and  C_4 
REMARK    2  A    between atoms: C_4  and  C_5 
REMARK    3  A    between atoms: C_5  and  C_6 
REMARK    4  A    between atoms: N_13  and  C_14 
REMARK    5  A    between atoms: C_18  and  C_20 
ROOT
HETATM    1  O   UNL     1     -41.997 -49.852  13.535  1.00  0.00    -0.247 OA
HETATM    2  C   UNL     1     -41.860 -50.043  12.337  1.00  0.00     0.316 C 
HETATM    3  N   UNL     1     -41.178 -51.104  11.788  1.00  0.00    -0.343 N 
HETATM    4  N   UNL     1     -42.379 -49.244  11.349  1.00  0.00    -0.339 N 
HETATM    5  H   UNL     1     -41.562 -51.408  10.906  1.00  0.00     0.164 HD
HETATM    6  H   UNL     1     -41.871 -49.271  10.479  1.00  0.00     0.164 HD
ENDROOT
BRANCH   3   7
HETATM    7  C   UNL     1     -40.641 -52.133  12.662  1.00  0.00     0.129 C 
BRANCH   7   8
HETATM    8  C   UNL     1     -41.177 -53.517  12.297  1.00  0.00     0.058 C 
BRANCH   8   9
HETATM    9  C   UNL     1     -42.382 -53.894  13.118  1.00  0.00    -0.054 A 
HETATM   10  C   UNL     1     -42.241 -54.510  14.363  1.00  0.00     0.024 A 
HETATM   11  C   UNL     1     -43.383 -54.857  15.068  1.00  0.00     0.088 A 
HETATM   12  N   UNL     1     -44.637 -54.636  14.621  1.00  0.00    -0.375 N 
HETATM   13  C   UNL     1     -44.753 -54.045  13.413  1.00  0.00     0.088 A 
ATOM     14  HN  UNL     1     -45.456 -54.902  15.168  1.00  0.00     0.164 HD
HETATM   15  C   UNL     1     -43.672 -53.662  12.634  1.00  0.00     0.024 A 
ENDBRANCH   8   9
ENDBRANCH   7   8
ENDBRANCH   3   7
BRANCH   4  16
HETATM   16  C   UNL     1     -43.122 -48.028  11.655  1.00  0.00     0.086 C 
HETATM   17  C   UNL     1     -44.212 -47.789  10.605  1.00  0.00     0.025 C 
HETATM   18  C   UNL     1     -43.632 -47.372   9.257  1.00  0.00     0.002 C 
HETATM   19  C   UNL     1     -42.750 -46.138   9.388  1.00  0.00     0.005 C 
HETATM   20  C   UNL     1     -41.639 -46.307  10.438  1.00  0.00    -0.009 C 
HETATM   21  C   UNL     1     -42.207 -46.802  11.784  1.00  0.00     0.030 C 
BRANCH  20  22
HETATM   22  C   UNL     1     -40.912 -44.992  10.638  1.00  0.00    -0.010 A 
HETATM   23  C   UNL     1     -39.508 -44.794  10.122  1.00  0.00     0.005 A 
HETATM   24  C   UNL     1     -39.754 -44.895  11.599  1.00  0.00     0.005 A 
ENDBRANCH  20  22
ENDBRANCH   4  16
TORSDOF 5
ENDMDL
MODEL 5
REMARK VINA RESULT:      -5.8      4.359      5.904
REMARK  5 active torsions:
REMARK  status: ('A' for Active; 'I' for Inactive)
REMARK       I    between atoms: C_2  and  N_3 
REMARK       I    between atoms: C_2  and  N_13 
REMARK    1  A    between atoms: N_3  and  C_4 
REMARK    2  A    between atoms: C_4  and  C_5 
REMARK    3  A    between atoms: C_5  and  C_6 
REMARK    4  A    between atoms: N_13  and  C_14 
REMARK    5  A    between atoms: C_18  and  C_20 
ROOT
HETATM    1  O   UNL     1     -43.095 -55.689  15.505  1.00  0.00    -0.247 OA
HETATM    2  C   UNL     1     -42.938 -54.480  15.566  1.00  0.00     0.316 C 
HETATM    3  N   UNL     1     -41.739 -53.860  15.828  1.00  0.00    -0.343 N 
HETATM    4  N   UNL     1     -43.925 -53.548  15.361  1.00  0.00    -0.339 N 
HETATM    5  H   UNL     1     -41.641 -52.971  15.361  1.00  0.00     0.164 HD
HETATM    6  H   UNL     1     -43.771 -52.667  15.827  1.00  0.00     0.164 HD
ENDROOT
BRANCH   3   7
HETATM    7  C   UNL     1     -40.537 -54.665  15.968  1.00  0.00     0.129 C 
BRANCH   7   8
HETATM    8  C   UNL     1     -39.806 -54.821  14.635  1.00  0.00     0.058 C 
BRANCH   8   9
HETATM    9  C   UNL     1     -39.977 -53.616  13.748  1.00  0.00    -0.054 A 
HETATM   10  C   UNL     1     -40.889 -53.624  12.690  1.00  0.00     0.024 A 
HETATM   11  C   UNL     1     -40.992 -52.497  11.891  1.00  0.00     0.088 A 
HETATM   12  N   UNL     1     -40.256 -51.379  12.070  1.00  0.00    -0.375 N 
HETATM   13  C   UNL     1     -39.377 -51.393  13.093  1.00  0.00     0.088 A 
ATOM     14  HN  UNL     1     -40.360 -50.566  11.463  1.00  0.00     0.164 HD
HETATM   15  C   UNL     1     -39.202 -52.471  13.947  1.00  0.00     0.024 A 
ENDBRANCH   8   9
ENDBRANCH   7   8
ENDBRANCH   3   7
BRANCH   4  16
HETATM   16  C   UNL     1     -45.305 -53.935  15.096  1.00  0.00     0.086 C 
HETATM   17  C   UNL     1     -45.669 -53.648  13.635  1.00  0.00     0.025 C 
HETATM   18  C   UNL     1     -45.791 -52.154  13.355  1.00  0.00     0.002 C 
HETATM   19  C   UNL     1     -46.797 -51.492  14.287  1.00  0.00     0.005 C 
HETATM   20  C   UNL     1     -46.496 -51.752  15.773  1.00  0.00    -0.009 C 
HETATM   21  C   UNL     1     -46.295 -53.255  16.053  1.00  0.00     0.030 C 
BRANCH  20  22
HETATM   22  C   UNL     1     -47.623 -51.214  16.631  1.00  0.00    -0.010 A 
HETATM   23  C   UNL     1     -47.343 -50.296  17.796  1.00  0.00     0.005 A 
HETATM   24  C   UNL     1     -47.809 -51.701  18.046  1.00  0.00     0.005 A 
ENDBRANCH  20  22
ENDBRANCH   4  16
TORSDOF 5
ENDMDL
MODEL 6
REMARK VINA RESULT:      -5.8      2.476      3.080
REMARK  5 active torsions:
REMARK  status: ('A' for Active; 'I' for Inactive)
REMARK       I    between atoms: C_2  and  N_3 
REMARK       I    between atoms: C_2  and  N_13 
REMARK    1  A    between atoms: N_3  and  C_4 
REMARK    2  A    between atoms: C_4  and  C_5 
REMARK    3  A    between atoms: C_5  and  C_6 
REMARK    4  A    between atoms: N_13  and  C_14 
REMARK    5  A    between atoms: C_18  and  C_20 
ROOT
HETATM    1  O   UNL     1     -41.316 -51.954  12.825  1.00  0.00    -0.247 OA
HETATM    2  C   UNL     1     -42.141 -51.176  12.374  1.00  0.00     0.316 C 
HETATM    3  N   UNL     1     -41.836 -50.051  11.644  1.00  0.00    -0.343 N 
HETATM    4  N   UNL     1     -43.501 -51.307  12.506  1.00  0.00    -0.339 N 
HETATM    5  H   UNL     1     -42.533 -49.828  10.949  1.00  0.00     0.164 HD
HETATM    6  H   UNL     1     -44.011 -50.439  12.461  1.00  0.00     0.164 HD
ENDROOT
BRANCH   3   7
HETATM    7  C   UNL     1     -40.451 -49.784  11.294  1.00  0.00     0.129 C 
BRANCH   7   8
HETATM    8  C   UNL     1     -39.947 -48.493  11.939  1.00  0.00     0.058 C 
BRANCH   8   9
HETATM    9  C   UNL     1     -40.955 -47.378  11.844  1.00  0.00    -0.054 A 
HETATM   10  C   UNL     1     -41.208 -46.738  10.629  1.00  0.00     0.024 A 
HETATM   11  C   UNL     1     -42.130 -45.704  10.600  1.00  0.00     0.088 A 
HETATM   12  N   UNL     1     -42.804 -45.268  11.685  1.00  0.00    -0.375 N 
HETATM   13  C   UNL     1     -42.541 -45.895  12.851  1.00  0.00     0.088 A 
ATOM     14  HN  UNL     1     -43.478 -44.505  11.627  1.00  0.00     0.164 HD
HETATM   15  C   UNL     1     -41.638 -46.939  12.981  1.00  0.00     0.024 A 
ENDBRANCH   8   9
ENDBRANCH   7   8
ENDBRANCH   3   7
BRANCH   4  16
HETATM   16  C   UNL     1     -44.098 -52.398  13.266  1.00  0.00     0.086 C 
HETATM   17  C   UNL     1     -45.440 -52.807  12.649  1.00  0.00     0.025 C 
HETATM   18  C   UNL     1     -46.520 -51.754  12.872  1.00  0.00     0.002 C 
HETATM   19  C   UNL     1     -46.696 -51.439  14.351  1.00  0.00     0.005 C 
HETATM   20  C   UNL     1     -45.380 -51.032  15.035  1.00  0.00    -0.009 C 
HETATM   21  C   UNL     1     -44.259 -52.053  14.753  1.00  0.00     0.030 C 
BRANCH  20  22
HETATM   22  C   UNL     1     -45.594 -50.900  16.530  1.00  0.00    -0.010 A 
HETATM   23  C   UNL     1     -45.130 -49.674  17.277  1.00  0.00     0.005 A 
HETATM   24  C   UNL     1     -44.427 -50.984  17.481  1.00  0.00     0.005 A 
ENDBRANCH  20  22
ENDBRANCH   4  16
TORSDOF 5
ENDMDL
MODEL 7
REMARK VINA RESULT:      -5.7      3.004      8.075
REMARK  5 active torsions:
REMARK  status: ('A' for Active; 'I' for Inactive)
REMARK       I    between atoms: C_2  and  N_3 
REMARK       I    between atoms: C_2  and  N_13 
REMARK    1  A    between atoms: N_3  and  C_4 
REMARK    2  A    between atoms: C_4  and  C_5 
REMARK    3  A    between atoms: C_5  and  C_6 
REMARK    4  A    between atoms: N_13  and  C_14 
REMARK    5  A    between atoms: C_18  and  C_20 
ROOT
HETATM    1  O   UNL     1     -39.923 -51.758  12.462  1.00  0.00    -0.247 OA
HETATM    2  C   UNL     1     -41.104 -51.725  12.153  1.00  0.00     0.316 C 
HETATM    3  N   UNL     1     -41.957 -52.802  12.213  1.00  0.00    -0.343 N 
HETATM    4  N   UNL     1     -41.772 -50.608  11.717  1.00  0.00    -0.339 N 
HETATM    5  H   UNL     1     -42.907 -52.544  12.434  1.00  0.00     0.164 HD
HETATM    6  H   UNL     1     -42.571 -50.800  11.133  1.00  0.00     0.164 HD
ENDROOT
BRANCH   3   7
HETATM    7  C   UNL     1     -41.475 -54.062  12.755  1.00  0.00     0.129 C 
BRANCH   7   8
HETATM    8  C   UNL     1     -41.988 -54.297  14.175  1.00  0.00     0.058 C 
BRANCH   8   9
HETATM    9  C   UNL     1     -40.911 -54.818  15.090  1.00  0.00    -0.054 A 
HETATM   10  C   UNL     1     -41.229 -55.396  16.320  1.00  0.00     0.024 A 
HETATM   11  C   UNL     1     -40.199 -55.841  17.134  1.00  0.00     0.088 A 
HETATM   12  N   UNL     1     -38.892 -55.748  16.810  1.00  0.00    -0.375 N 
HETATM   13  C   UNL     1     -38.604 -55.181  15.619  1.00  0.00     0.088 A 
ATOM     14  HN  UNL     1     -38.159 -56.088  17.432  1.00  0.00     0.164 HD
HETATM   15  C   UNL     1     -39.563 -54.707  14.738  1.00  0.00     0.024 A 
ENDBRANCH   8   9
ENDBRANCH   7   8
ENDBRANCH   3   7
BRANCH   4  16
HETATM   16  C   UNL     1     -41.095 -49.332  11.530  1.00  0.00     0.086 C 
HETATM   17  C   UNL     1     -41.061 -48.546  12.846  1.00  0.00     0.025 C 
HETATM   18  C   UNL     1     -42.439 -48.021  13.238  1.00  0.00     0.002 C 
HETATM   19  C   UNL     1     -43.046 -47.168  12.132  1.00  0.00     0.005 C 
HETATM   20  C   UNL     1     -43.098 -47.895  10.778  1.00  0.00    -0.009 C 
HETATM   21  C   UNL     1     -41.726 -48.495  10.408  1.00  0.00     0.030 C 
BRANCH  20  22
HETATM   22  C   UNL     1     -43.550 -46.936   9.694  1.00  0.00    -0.010 A 
HETATM   23  C   UNL     1     -44.947 -47.007   9.128  1.00  0.00     0.005 A 
HETATM   24  C   UNL     1     -43.776 -47.424   8.286  1.00  0.00     0.005 A 
ENDBRANCH  20  22
ENDBRANCH   4  16
TORSDOF 5
ENDMDL
MODEL 8
REMARK VINA RESULT:      -5.6      2.622      7.425
REMARK  5 active torsions:
REMARK  status: ('A' for Active; 'I' for Inactive)
REMARK       I    between atoms: C_2  and  N_3 
REMARK       I    between atoms: C_2  and  N_13 
REMARK    1  A    between atoms: N_3  and  C_4 
REMARK    2  A    between atoms: C_4  and  C_5 
REMARK    3  A    between atoms: C_5  and  C_6 
REMARK    4  A    between atoms: N_13  and  C_14 
REMARK    5  A    between atoms: C_18  and  C_20 
ROOT
HETATM    1  O   UNL     1     -43.734 -50.690  14.538  1.00  0.00    -0.247 OA
HETATM    2  C   UNL     1     -43.799 -50.657  13.319  1.00  0.00     0.316 C 
HETATM    3  N   UNL     1     -44.357 -51.644  12.540  1.00  0.00    -0.343 N 
HETATM    4  N   UNL     1     -43.347 -49.625  12.535  1.00  0.00    -0.339 N 
HETATM    5  H   UNL     1     -44.792 -51.289  11.702  1.00  0.00     0.164 HD
HETATM    6  H   UNL     1     -43.093 -49.894  11.598  1.00  0.00     0.164 HD
ENDROOT
BRANCH   3   7
HETATM    7  C   UNL     1     -44.997 -52.781  13.181  1.00  0.00     0.129 C 
BRANCH   7   8
HETATM    8  C   UNL     1     -44.287 -54.091  12.841  1.00  0.00     0.058 C 
BRANCH   8   9
HETATM    9  C   UNL     1     -43.051 -54.302  13.675  1.00  0.00    -0.054 A 
HETATM   10  C   UNL     1     -43.139 -54.778  14.984  1.00  0.00     0.024 A 
HETATM   11  C   UNL     1     -41.972 -54.934  15.716  1.00  0.00     0.088 A 
HETATM   12  N   UNL     1     -40.742 -54.649  15.239  1.00  0.00    -0.375 N 
HETATM   13  C   UNL     1     -40.679 -54.184  13.974  1.00  0.00     0.088 A 
ATOM     14  HN  UNL     1     -39.904 -54.779  15.805  1.00  0.00     0.164 HD
HETATM   15  C   UNL     1     -41.787 -53.995  13.164  1.00  0.00     0.024 A 
ENDBRANCH   8   9
ENDBRANCH   7   8
ENDBRANCH   3   7
BRANCH   4  16
HETATM   16  C   UNL     1     -42.680 -48.462  13.105  1.00  0.00     0.086 C 
HETATM   17  C   UNL     1     -43.018 -47.203  12.299  1.00  0.00     0.025 C 
HETATM   18  C   UNL     1     -42.352 -47.202  10.927  1.00  0.00     0.002 C 
HETATM   19  C   UNL     1     -40.841 -47.363  11.041  1.00  0.00     0.005 C 
HETATM   20  C   UNL     1     -40.433 -48.605  11.851  1.00  0.00    -0.009 C 
HETATM   21  C   UNL     1     -41.160 -48.655  13.210  1.00  0.00     0.030 C 
BRANCH  20  22
HETATM   22  C   UNL     1     -38.933 -48.609  12.069  1.00  0.00    -0.010 A 
HETATM   23  C   UNL     1     -38.075 -49.734  11.544  1.00  0.00     0.005 A 
HETATM   24  C   UNL     1     -38.299 -49.591  13.022  1.00  0.00     0.005 A 
ENDBRANCH  20  22
ENDBRANCH   4  16
TORSDOF 5
ENDMDL
MODEL 9
REMARK VINA RESULT:      -5.6      3.889      5.112
REMARK  5 active torsions:
REMARK  status: ('A' for Active; 'I' for Inactive)
REMARK       I    between atoms: C_2  and  N_3 
REMARK       I    between atoms: C_2  and  N_13 
REMARK    1  A    between atoms: N_3  and  C_4 
REMARK    2  A    between atoms: C_4  and  C_5 
REMARK    3  A    between atoms: C_5  and  C_6 
REMARK    4  A    between atoms: N_13  and  C_14 
REMARK    5  A    between atoms: C_18  and  C_20 
ROOT
HETATM    1  O   UNL     1     -41.854 -54.073  14.892  1.00  0.00    -0.247 OA
HETATM    2  C   UNL     1     -42.104 -52.878  14.862  1.00  0.00     0.316 C 
HETATM    3  N   UNL     1     -41.166 -51.881  14.994  1.00  0.00    -0.343 N 
HETATM    4  N   UNL     1     -43.353 -52.341  14.672  1.00  0.00    -0.339 N 
HETATM    5  H   UNL     1     -41.391 -51.052  14.464  1.00  0.00     0.164 HD
HETATM    6  H   UNL     1     -43.476 -51.421  15.067  1.00  0.00     0.164 HD
ENDROOT
BRANCH   3   7
HETATM    7  C   UNL     1     -39.761 -52.235  15.095  1.00  0.00     0.129 C 
BRANCH   7   8
HETATM    8  C   UNL     1     -38.862 -51.002  15.004  1.00  0.00     0.058 C 
BRANCH   8   9
HETATM    9  C   UNL     1     -38.611 -50.585  13.578  1.00  0.00    -0.054 A 
HETATM   10  C   UNL     1     -37.490 -51.041  12.882  1.00  0.00     0.024 A 
HETATM   11  C   UNL     1     -37.294 -50.610  11.579  1.00  0.00     0.088 A 
HETATM   12  N   UNL     1     -38.127 -49.767  10.934  1.00  0.00    -0.375 N 
HETATM   13  C   UNL     1     -39.202 -49.332  11.626  1.00  0.00     0.088 A 
ATOM     14  HN  UNL     1     -37.954 -49.472   9.973  1.00  0.00     0.164 HD
HETATM   15  C   UNL     1     -39.483 -49.706  12.931  1.00  0.00     0.024 A 
ENDBRANCH   8   9
ENDBRANCH   7   8
ENDBRANCH   3   7
BRANCH   4  16
HETATM   16  C   UNL     1     -44.538 -53.178  14.537  1.00  0.00     0.086 C 
HETATM   17  C   UNL     1     -45.145 -53.021  13.138  1.00  0.00     0.025 C 
HETATM   18  C   UNL     1     -45.802 -51.658  12.946  1.00  0.00     0.002 C 
HETATM   19  C   UNL     1     -46.859 -51.393  14.010  1.00  0.00     0.005 C 
HETATM   20  C   UNL     1     -46.316 -51.546  15.441  1.00  0.00    -0.009 C 
HETATM   21  C   UNL     1     -45.583 -52.890  15.624  1.00  0.00     0.030 C 
BRANCH  20  22
HETATM   22  C   UNL     1     -47.452 -51.438  16.439  1.00  0.00    -0.010 A 
HETATM   23  C   UNL     1     -47.385 -50.465  17.590  1.00  0.00     0.005 A 
HETATM   24  C   UNL     1     -47.282 -51.940  17.850  1.00  0.00     0.005 A 
ENDBRANCH  20  22
ENDBRANCH   4  16
TORSDOF 5
ENDMDL
