MODEL 1
REMARK VINA RESULT:      -5.6      0.000      0.000
REMARK  5 active torsions:
REMARK  status: ('A' for Active; 'I' for Inactive)
REMARK    1  A    between atoms: C_2  and  N_3 
REMARK    2  A    between atoms: N_3  and  C_4 
REMARK       I    between atoms: N_3  and  C_6 
REMARK    3  A    between atoms: C_6  and  C_8 
REMARK    4  A    between atoms: C_8  and  C_9 
REMARK    5  A    between atoms: C_12  and  N_15 
ROOT
HETATM    1  C   UNL     1     -41.447 -51.304  12.121  1.00  0.00     0.026 A 
HETATM    2  C   UNL     1     -40.095 -51.416  12.377  1.00  0.00     0.078 A 
HETATM    3  S   UNL     1     -39.306 -49.948  12.005  1.00  0.00    -0.064 SA
HETATM    4  C   UNL     1     -40.798 -49.256  11.541  1.00  0.00     0.155 A 
HETATM    5  N   UNL     1     -41.834 -50.070  11.602  1.00  0.00    -0.339 N 
ATOM      6  HN  UNL     1     -42.783 -49.830  11.312  1.00  0.00     0.168 HD
ENDROOT
BRANCH   1   7
HETATM    7  C   UNL     1     -42.480 -52.343  12.415  1.00  0.00     0.160 C 
BRANCH   7   8
HETATM    8  C   UNL     1     -43.462 -51.883  13.484  1.00  0.00     0.225 C 
HETATM    9  N   UNL     1     -44.591 -52.669  13.743  1.00  0.00    -0.353 N 
HETATM   10  O   UNL     1     -43.241 -50.833  14.097  1.00  0.00    -0.273 OA
BRANCH   9  11
HETATM   11  C   UNL     1     -45.457 -52.251  14.848  1.00  0.00     0.121 C 
HETATM   12  C   UNL     1     -46.686 -51.477  14.388  1.00  0.00     0.026 C 
ENDBRANCH   9  11
BRANCH   9  13
HETATM   13  C   UNL     1     -44.836 -53.924  13.024  1.00  0.00     0.121 C 
HETATM   14  C   UNL     1     -45.383 -55.113  13.796  1.00  0.00     0.026 C 
ENDBRANCH   9  13
ENDBRANCH   7   8
ENDBRANCH   1   7
BRANCH   4  15
HETATM   15  N   UNL     1     -40.879 -47.943  11.121  1.00  0.00    -0.278 N 
HETATM   16  C   UNL     1     -39.922 -46.920  11.483  1.00  0.00     0.155 C 
HETATM   17  C   UNL     1     -40.254 -45.747  10.573  1.00  0.00     0.145 C 
HETATM   18  N   UNL     1     -41.524 -46.091  10.009  1.00  0.00    -0.341 N 
HETATM   19  C   UNL     1     -41.838 -47.430  10.243  1.00  0.00     0.324 C 
HETATM   20  H   UNL     1     -41.983 -45.617   9.240  1.00  0.00     0.164 HD
HETATM   21  O   UNL     1     -42.777 -47.962   9.677  1.00  0.00    -0.247 OA
ENDBRANCH   4  15
TORSDOF 5
ENDMDL
MODEL 2
REMARK VINA RESULT:      -5.2      2.314      3.099
REMARK  5 active torsions:
REMARK  status: ('A' for Active; 'I' for Inactive)
REMARK    1  A    between atoms: C_2  and  N_3 
REMARK    2  A    between atoms: N_3  and  C_4 
REMARK       I    between atoms: N_3  and  C_6 
REMARK    3  A    between atoms: C_6  and  C_8 
REMARK    4  A    between atoms: C_8  and  C_9 
REMARK    5  A    between atoms: C_12  and  N_15 
ROOT
HETATM    1  C   UNL     1     -42.652 -53.424  12.924  1.00  0.00     0.026 A 
HETATM    2  C   UNL     1     -41.833 -53.935  13.912  1.00  0.00     0.078 A 
HETATM    3  S   UNL     1     -40.405 -53.007  14.025  1.00  0.00    -0.064 SA
HETATM    4  C   UNL     1     -40.961 -51.986  12.772  1.00  0.00     0.155 A 
HETATM    5  N   UNL     1     -42.122 -52.327  12.248  1.00  0.00    -0.339 N 
ATOM      6  HN  UNL     1     -42.568 -51.855  11.461  1.00  0.00     0.168 HD
ENDROOT
BRANCH   1   7
HETATM    7  C   UNL     1     -44.029 -53.904  12.597  1.00  0.00     0.160 C 
BRANCH   7   8
HETATM    8  C   UNL     1     -44.946 -53.870  13.812  1.00  0.00     0.225 C 
HETATM    9  N   UNL     1     -45.802 -52.775  13.979  1.00  0.00    -0.353 N 
HETATM   10  O   UNL     1     -44.918 -54.806  14.619  1.00  0.00    -0.273 OA
BRANCH   9  11
HETATM   11  C   UNL     1     -46.743 -52.826  15.100  1.00  0.00     0.121 C 
HETATM   12  C   UNL     1     -47.114 -51.449  15.636  1.00  0.00     0.026 C 
ENDBRANCH   9  11
BRANCH   9  13
HETATM   13  C   UNL     1     -45.844 -51.676  13.007  1.00  0.00     0.121 C 
HETATM   14  C   UNL     1     -46.907 -51.703  11.920  1.00  0.00     0.026 C 
ENDBRANCH   9  13
ENDBRANCH   7   8
ENDBRANCH   1   7
BRANCH   4  15
HETATM   15  N   UNL     1     -40.219 -50.900  12.351  1.00  0.00    -0.278 N 
HETATM   16  C   UNL     1     -38.775 -50.838  12.407  1.00  0.00     0.155 C 
HETATM   17  C   UNL     1     -38.412 -49.610  11.587  1.00  0.00     0.145 C 
HETATM   18  N   UNL     1     -39.661 -48.932  11.402  1.00  0.00    -0.341 N 
HETATM   19  C   UNL     1     -40.737 -49.747  11.753  1.00  0.00     0.324 C 
HETATM   20  H   UNL     1     -39.830 -48.156  10.773  1.00  0.00     0.164 HD
HETATM   21  O   UNL     1     -41.881 -49.427  11.481  1.00  0.00    -0.247 OA
ENDBRANCH   4  15
TORSDOF 5
ENDMDL
MODEL 3
REMARK VINA RESULT:      -5.0      2.162      3.348
REMARK  5 active torsions:
REMARK  status: ('A' for Active; 'I' for Inactive)
REMARK    1  A    between atoms: C_2  and  N_3 
REMARK    2  A    between atoms: N_3  and  C_4 
REMARK       I    between atoms: N_3  and  C_6 
REMARK    3  A    between atoms: C_6  and  C_8 
REMARK    4  A    between atoms: C_8  and  C_9 
REMARK    5  A    between atoms: C_12  and  N_15 
ROOT
HETATM    1  C   UNL     1     -42.416 -54.034  14.019  1.00  0.00     0.026 A 
HETATM    2  C   UNL     1     -41.065 -54.210  14.249  1.00  0.00     0.078 A 
HETATM    3  S   UNL     1     -40.188 -52.884  13.628  1.00  0.00    -0.064 SA
HETATM    4  C   UNL     1     -41.644 -52.157  13.105  1.00  0.00     0.155 A 
HETATM    5  N   UNL     1     -42.733 -52.868  13.325  1.00  0.00    -0.339 N 
ATOM      6  HN  UNL     1     -43.673 -52.602  13.030  1.00  0.00     0.168 HD
ENDROOT
BRANCH   1   7
HETATM    7  C   UNL     1     -43.508 -54.930  14.504  1.00  0.00     0.160 C 
BRANCH   7   8
HETATM    8  C   UNL     1     -44.887 -54.387  14.154  1.00  0.00     0.225 C 
HETATM    9  N   UNL     1     -45.613 -53.709  15.141  1.00  0.00    -0.353 N 
HETATM   10  O   UNL     1     -45.332 -54.553  13.013  1.00  0.00    -0.273 OA
BRANCH   9  11
HETATM   11  C   UNL     1     -46.888 -53.110  14.740  1.00  0.00     0.121 C 
HETATM   12  C   UNL     1     -46.848 -51.588  14.694  1.00  0.00     0.026 C 
ENDBRANCH   9  11
BRANCH   9  13
HETATM   13  C   UNL     1     -45.069 -53.500  16.488  1.00  0.00     0.121 C 
HETATM   14  C   UNL     1     -45.826 -54.068  17.677  1.00  0.00     0.026 C 
ENDBRANCH   9  13
ENDBRANCH   7   8
ENDBRANCH   1   7
BRANCH   4  15
HETATM   15  N   UNL     1     -41.646 -50.922  12.488  1.00  0.00    -0.278 N 
HETATM   16  C   UNL     1     -40.563 -50.429  11.664  1.00  0.00     0.155 C 
HETATM   17  C   UNL     1     -41.132 -49.192  10.985  1.00  0.00     0.145 C 
HETATM   18  N   UNL     1     -42.345 -48.929  11.699  1.00  0.00    -0.341 N 
HETATM   19  C   UNL     1     -42.705 -50.008  12.505  1.00  0.00     0.324 C 
HETATM   20  H   UNL     1     -43.066 -48.271  11.426  1.00  0.00     0.164 HD
HETATM   21  O   UNL     1     -43.801 -50.058  13.034  1.00  0.00    -0.247 OA
ENDBRANCH   4  15
TORSDOF 5
ENDMDL
MODEL 4
REMARK VINA RESULT:      -4.9      2.714      3.249
REMARK  5 active torsions:
REMARK  status: ('A' for Active; 'I' for Inactive)
REMARK    1  A    between atoms: C_2  and  N_3 
REMARK    2  A    between atoms: N_3  and  C_4 
REMARK       I    between atoms: N_3  and  C_6 
REMARK    3  A    between atoms: C_6  and  C_8 
REMARK    4  A    between atoms: C_8  and  C_9 
REMARK    5  A    between atoms: C_12  and  N_15 
ROOT
HETATM    1  C   UNL     1     -41.447 -53.317  14.064  1.00  0.00     0.026 A 
HETATM    2  C   UNL     1     -40.934 -52.988  15.303  1.00  0.00     0.078 A 
HETATM    3  S   UNL     1     -39.677 -51.846  15.133  1.00  0.00    -0.064 SA
HETATM    4  C   UNL     1     -39.896 -51.848  13.437  1.00  0.00     0.155 A 
HETATM    5  N   UNL     1     -40.815 -52.684  12.994  1.00  0.00    -0.339 N 
ATOM      6  HN  UNL     1     -41.032 -52.845  12.011  1.00  0.00     0.168 HD
ENDROOT
BRANCH   1   7
HETATM    7  C   UNL     1     -42.620 -54.206  13.812  1.00  0.00     0.160 C 
BRANCH   7   8
HETATM    8  C   UNL     1     -43.747 -53.472  13.097  1.00  0.00     0.225 C 
HETATM    9  N   UNL     1     -45.055 -53.620  13.575  1.00  0.00    -0.353 N 
HETATM   10  O   UNL     1     -43.484 -52.765  12.119  1.00  0.00    -0.273 OA
BRANCH   9  11
HETATM   11  C   UNL     1     -46.097 -52.818  12.929  1.00  0.00     0.121 C 
HETATM   12  C   UNL     1     -46.366 -51.498  13.640  1.00  0.00     0.026 C 
ENDBRANCH   9  11
BRANCH   9  13
HETATM   13  C   UNL     1     -45.357 -54.446  14.749  1.00  0.00     0.121 C 
HETATM   14  C   UNL     1     -45.440 -53.777  16.111  1.00  0.00     0.026 C 
ENDBRANCH   9  13
ENDBRANCH   7   8
ENDBRANCH   1   7
BRANCH   4  15
HETATM   15  N   UNL     1     -39.141 -51.035  12.617  1.00  0.00    -0.278 N 
HETATM   16  C   UNL     1     -37.696 -50.967  12.656  1.00  0.00     0.155 C 
HETATM   17  C   UNL     1     -37.316 -50.183  11.408  1.00  0.00     0.145 C 
HETATM   18  N   UNL     1     -38.556 -49.630  10.952  1.00  0.00    -0.341 N 
HETATM   19  C   UNL     1     -39.643 -50.222  11.595  1.00  0.00     0.324 C 
HETATM   20  H   UNL     1     -38.714 -49.177  10.059  1.00  0.00     0.164 HD
HETATM   21  O   UNL     1     -40.782 -50.032  11.206  1.00  0.00    -0.247 OA
ENDBRANCH   4  15
TORSDOF 5
ENDMDL
MODEL 5
REMARK VINA RESULT:      -4.9      1.641      2.281
REMARK  5 active torsions:
REMARK  status: ('A' for Active; 'I' for Inactive)
REMARK    1  A    between atoms: C_2  and  N_3 
REMARK    2  A    between atoms: N_3  and  C_4 
REMARK       I    between atoms: N_3  and  C_6 
REMARK    3  A    between atoms: C_6  and  C_8 
REMARK    4  A    between atoms: C_8  and  C_9 
REMARK    5  A    between atoms: C_12  and  N_15 
ROOT
HETATM    1  C   UNL     1     -40.553 -51.021  11.917  1.00  0.00     0.026 A 
HETATM    2  C   UNL     1     -39.500 -50.717  12.758  1.00  0.00     0.078 A 
HETATM    3  S   UNL     1     -39.172 -49.043  12.704  1.00  0.00    -0.064 SA
HETATM    4  C   UNL     1     -40.446 -48.823  11.585  1.00  0.00     0.155 A 
HETATM    5  N   UNL     1     -41.064 -49.929  11.218  1.00  0.00    -0.339 N 
ATOM      6  HN  UNL     1     -41.808 -49.978  10.522  1.00  0.00     0.168 HD
ENDROOT
BRANCH   1   7
HETATM    7  C   UNL     1     -41.194 -52.362  11.771  1.00  0.00     0.160 C 
BRANCH   7   8
HETATM    8  C   UNL     1     -42.264 -52.600  12.828  1.00  0.00     0.225 C 
HETATM    9  N   UNL     1     -42.042 -53.586  13.798  1.00  0.00    -0.353 N 
HETATM   10  O   UNL     1     -43.296 -51.922  12.809  1.00  0.00    -0.273 OA
BRANCH   9  11
HETATM   11  C   UNL     1     -43.043 -53.715  14.860  1.00  0.00     0.121 C 
HETATM   12  C   UNL     1     -43.984 -54.895  14.657  1.00  0.00     0.026 C 
ENDBRANCH   9  11
BRANCH   9  13
HETATM   13  C   UNL     1     -40.805 -54.374  13.825  1.00  0.00     0.121 C 
HETATM   14  C   UNL     1     -39.670 -53.921  14.728  1.00  0.00     0.026 C 
ENDBRANCH   9  13
ENDBRANCH   7   8
ENDBRANCH   1   7
BRANCH   4  15
HETATM   15  N   UNL     1     -40.770 -47.569  11.107  1.00  0.00    -0.278 N 
HETATM   16  C   UNL     1     -39.995 -46.377  11.375  1.00  0.00     0.155 C 
HETATM   17  C   UNL     1     -40.560 -45.332  10.425  1.00  0.00     0.145 C 
HETATM   18  N   UNL     1     -41.771 -45.921   9.937  1.00  0.00    -0.341 N 
HETATM   19  C   UNL     1     -41.836 -47.279  10.249  1.00  0.00     0.324 C 
HETATM   20  H   UNL     1     -42.333 -45.577   9.168  1.00  0.00     0.164 HD
HETATM   21  O   UNL     1     -42.687 -47.996   9.753  1.00  0.00    -0.247 OA
ENDBRANCH   4  15
TORSDOF 5
ENDMDL
MODEL 6
REMARK VINA RESULT:      -4.9      5.425      7.360
REMARK  5 active torsions:
REMARK  status: ('A' for Active; 'I' for Inactive)
REMARK    1  A    between atoms: C_2  and  N_3 
REMARK    2  A    between atoms: N_3  and  C_4 
REMARK       I    between atoms: N_3  and  C_6 
REMARK    3  A    between atoms: C_6  and  C_8 
REMARK    4  A    between atoms: C_8  and  C_9 
REMARK    5  A    between atoms: C_12  and  N_15 
ROOT
HETATM    1  C   UNL     1     -43.385 -54.414  13.985  1.00  0.00     0.026 A 
HETATM    2  C   UNL     1     -42.325 -53.798  13.351  1.00  0.00     0.078 A 
HETATM    3  S   UNL     1     -40.873 -54.122  14.189  1.00  0.00    -0.064 SA
HETATM    4  C   UNL     1     -41.733 -55.063  15.328  1.00  0.00     0.155 A 
HETATM    5  N   UNL     1     -43.039 -55.106  15.144  1.00  0.00    -0.339 N 
ATOM      6  HN  UNL     1     -43.700 -55.578  15.761  1.00  0.00     0.168 HD
ENDROOT
BRANCH   1   7
HETATM    7  C   UNL     1     -44.797 -54.444  13.496  1.00  0.00     0.160 C 
BRANCH   7   8
HETATM    8  C   UNL     1     -45.773 -53.924  14.544  1.00  0.00     0.225 C 
HETATM    9  N   UNL     1     -46.266 -52.620  14.414  1.00  0.00    -0.353 N 
HETATM   10  O   UNL     1     -46.108 -54.661  15.478  1.00  0.00    -0.273 OA
BRANCH   9  11
HETATM   11  C   UNL     1     -47.281 -52.191  15.379  1.00  0.00     0.121 C 
HETATM   12  C   UNL     1     -46.759 -51.179  16.390  1.00  0.00     0.026 C 
ENDBRANCH   9  11
BRANCH   9  13
HETATM   13  C   UNL     1     -45.878 -51.759  13.292  1.00  0.00     0.121 C 
HETATM   14  C   UNL     1     -46.801 -51.669  12.087  1.00  0.00     0.026 C 
ENDBRANCH   9  13
ENDBRANCH   7   8
ENDBRANCH   1   7
BRANCH   4  15
HETATM   15  N   UNL     1     -41.083 -55.705  16.362  1.00  0.00    -0.278 N 
HETATM   16  C   UNL     1     -39.645 -55.830  16.459  1.00  0.00     0.155 C 
HETATM   17  C   UNL     1     -39.399 -56.338  17.871  1.00  0.00     0.145 C 
HETATM   18  N   UNL     1     -40.696 -56.736  18.331  1.00  0.00    -0.341 N 
HETATM   19  C   UNL     1     -41.701 -56.259  17.489  1.00  0.00     0.324 C 
HETATM   20  H   UNL     1     -40.942 -56.980  19.283  1.00  0.00     0.164 HD
HETATM   21  O   UNL     1     -42.873 -56.321  17.813  1.00  0.00    -0.247 OA
ENDBRANCH   4  15
TORSDOF 5
ENDMDL
MODEL 7
REMARK VINA RESULT:      -4.9      3.982      7.207
REMARK  5 active torsions:
REMARK  status: ('A' for Active; 'I' for Inactive)
REMARK    1  A    between atoms: C_2  and  N_3 
REMARK    2  A    between atoms: N_3  and  C_4 
REMARK       I    between atoms: N_3  and  C_6 
REMARK    3  A    between atoms: C_6  and  C_8 
REMARK    4  A    between atoms: C_8  and  C_9 
REMARK    5  A    between atoms: C_12  and  N_15 
ROOT
HETATM    1  C   UNL     1     -41.013 -54.252  14.918  1.00  0.00     0.026 A 
HETATM    2  C   UNL     1     -41.147 -54.904  16.128  1.00  0.00     0.078 A 
HETATM    3  S   UNL     1     -42.798 -55.056  16.532  1.00  0.00    -0.064 SA
HETATM    4  C   UNL     1     -43.233 -54.262  15.082  1.00  0.00     0.155 A 
HETATM    5  N   UNL     1     -42.219 -53.852  14.345  1.00  0.00    -0.339 N 
ATOM      6  HN  UNL     1     -42.305 -53.318  13.479  1.00  0.00     0.168 HD
ENDROOT
BRANCH   1   7
HETATM    7  C   UNL     1     -39.731 -54.022  14.187  1.00  0.00     0.160 C 
BRANCH   7   8
HETATM    8  C   UNL     1     -39.818 -52.825  13.249  1.00  0.00     0.225 C 
HETATM    9  N   UNL     1     -39.217 -51.621  13.637  1.00  0.00    -0.353 N 
HETATM   10  O   UNL     1     -40.411 -52.942  12.171  1.00  0.00    -0.273 OA
BRANCH   9  11
HETATM   11  C   UNL     1     -39.230 -50.524  12.666  1.00  0.00     0.121 C 
HETATM   12  C   UNL     1     -37.908 -50.360  11.929  1.00  0.00     0.026 C 
ENDBRANCH   9  11
BRANCH   9  13
HETATM   13  C   UNL     1     -38.499 -51.496  14.910  1.00  0.00     0.121 C 
HETATM   14  C   UNL     1     -38.547 -50.168  15.648  1.00  0.00     0.026 C 
ENDBRANCH   9  13
ENDBRANCH   7   8
ENDBRANCH   1   7
BRANCH   4  15
HETATM   15  N   UNL     1     -44.556 -54.065  14.743  1.00  0.00    -0.278 N 
HETATM   16  C   UNL     1     -45.593 -53.728  15.695  1.00  0.00     0.155 C 
HETATM   17  C   UNL     1     -46.786 -53.334  14.838  1.00  0.00     0.145 C 
HETATM   18  N   UNL     1     -46.427 -53.765  13.520  1.00  0.00    -0.341 N 
HETATM   19  C   UNL     1     -45.073 -54.091  13.443  1.00  0.00     0.324 C 
HETATM   20  H   UNL     1     -46.915 -53.531  12.663  1.00  0.00     0.164 HD
HETATM   21  O   UNL     1     -44.535 -54.288  12.368  1.00  0.00    -0.247 OA
ENDBRANCH   4  15
TORSDOF 5
ENDMDL
MODEL 8
REMARK VINA RESULT:      -4.9      2.554      6.757
REMARK  5 active torsions:
REMARK  status: ('A' for Active; 'I' for Inactive)
REMARK    1  A    between atoms: C_2  and  N_3 
REMARK    2  A    between atoms: N_3  and  C_4 
REMARK       I    between atoms: N_3  and  C_6 
REMARK    3  A    between atoms: C_6  and  C_8 
REMARK    4  A    between atoms: C_8  and  C_9 
REMARK    5  A    between atoms: C_12  and  N_15 
ROOT
HETATM    1  C   UNL     1     -41.418 -51.585  12.216  1.00  0.00     0.026 A 
HETATM    2  C   UNL     1     -40.683 -52.707  12.546  1.00  0.00     0.078 A 
HETATM    3  S   UNL     1     -41.712 -53.921  13.163  1.00  0.00    -0.064 SA
HETATM    4  C   UNL     1     -43.063 -52.896  12.946  1.00  0.00     0.155 A 
HETATM    5  N   UNL     1     -42.781 -51.691  12.488  1.00  0.00    -0.339 N 
ATOM      6  HN  UNL     1     -43.463 -50.945  12.352  1.00  0.00     0.168 HD
ENDROOT
BRANCH   1   7
HETATM    7  C   UNL     1     -40.886 -50.356  11.556  1.00  0.00     0.160 C 
BRANCH   7   8
HETATM    8  C   UNL     1     -40.482 -49.294  12.571  1.00  0.00     0.225 C 
HETATM    9  N   UNL     1     -39.143 -48.887  12.620  1.00  0.00    -0.353 N 
HETATM   10  O   UNL     1     -41.339 -48.818  13.322  1.00  0.00    -0.273 OA
BRANCH   9  11
HETATM   11  C   UNL     1     -38.812 -47.791  13.534  1.00  0.00     0.121 C 
HETATM   12  C   UNL     1     -37.507 -48.013  14.288  1.00  0.00     0.026 C 
ENDBRANCH   9  11
BRANCH   9  13
HETATM   13  C   UNL     1     -38.135 -49.444  11.711  1.00  0.00     0.121 C 
HETATM   14  C   UNL     1     -37.419 -50.723  12.111  1.00  0.00     0.026 C 
ENDBRANCH   9  13
ENDBRANCH   7   8
ENDBRANCH   1   7
BRANCH   4  15
HETATM   15  N   UNL     1     -44.340 -53.320  13.252  1.00  0.00    -0.278 N 
HETATM   16  C   UNL     1     -44.656 -54.645  13.740  1.00  0.00     0.155 C 
HETATM   17  C   UNL     1     -46.103 -54.549  14.200  1.00  0.00     0.145 C 
HETATM   18  N   UNL     1     -46.557 -53.300  13.665  1.00  0.00    -0.341 N 
HETATM   19  C   UNL     1     -45.492 -52.527  13.205  1.00  0.00     0.324 C 
HETATM   20  H   UNL     1     -47.425 -52.833  13.898  1.00  0.00     0.164 HD
HETATM   21  O   UNL     1     -45.651 -51.359  12.899  1.00  0.00    -0.247 OA
ENDBRANCH   4  15
TORSDOF 5
ENDMDL
MODEL 9
REMARK VINA RESULT:      -4.8      3.636      7.780
REMARK  5 active torsions:
REMARK  status: ('A' for Active; 'I' for Inactive)
REMARK    1  A    between atoms: C_2  and  N_3 
REMARK    2  A    between atoms: N_3  and  C_4 
REMARK       I    between atoms: N_3  and  C_6 
REMARK    3  A    between atoms: C_6  and  C_8 
REMARK    4  A    between atoms: C_8  and  C_9 
REMARK    5  A    between atoms: C_12  and  N_15 
ROOT
HETATM    1  C   UNL     1     -40.685 -45.960  10.530  1.00  0.00     0.026 A 
HETATM    2  C   UNL     1     -42.018 -46.126  10.207  1.00  0.00     0.078 A 
HETATM    3  S   UNL     1     -42.505 -47.728  10.537  1.00  0.00    -0.064 SA
HETATM    4  C   UNL     1     -40.932 -48.099  11.095  1.00  0.00     0.155 A 
HETATM    5  N   UNL     1     -40.060 -47.113  11.002  1.00  0.00    -0.339 N 
ATOM      6  HN  UNL     1     -39.071 -47.184  11.243  1.00  0.00     0.168 HD
ENDROOT
BRANCH   1   7
HETATM    7  C   UNL     1     -39.927 -44.674  10.475  1.00  0.00     0.160 C 
BRANCH   7   8
HETATM    8  C   UNL     1     -39.776 -44.044  11.854  1.00  0.00     0.225 C 
HETATM    9  N   UNL     1     -40.531 -42.904  12.158  1.00  0.00    -0.353 N 
HETATM   10  O   UNL     1     -38.998 -44.550  12.669  1.00  0.00    -0.273 OA
BRANCH   9  11
HETATM   11  C   UNL     1     -40.439 -42.388  13.526  1.00  0.00     0.121 C 
HETATM   12  C   UNL     1     -40.021 -40.924  13.588  1.00  0.00     0.026 C 
ENDBRANCH   9  11
BRANCH   9  13
HETATM   13  C   UNL     1     -41.467 -42.320  11.191  1.00  0.00     0.121 C 
HETATM   14  C   UNL     1     -42.959 -42.488  11.425  1.00  0.00     0.026 C 
ENDBRANCH   9  13
ENDBRANCH   7   8
ENDBRANCH   1   7
BRANCH   4  15
HETATM   15  N   UNL     1     -40.623 -49.352  11.585  1.00  0.00    -0.278 N 
HETATM   16  C   UNL     1     -41.612 -50.321  12.005  1.00  0.00     0.155 C 
HETATM   17  C   UNL     1     -40.829 -51.613  12.182  1.00  0.00     0.145 C 
HETATM   18  N   UNL     1     -39.459 -51.200  12.145  1.00  0.00    -0.341 N 
HETATM   19  C   UNL     1     -39.336 -49.890  11.681  1.00  0.00     0.324 C 
HETATM   20  H   UNL     1     -38.653 -51.811  12.078  1.00  0.00     0.164 HD
HETATM   21  O   UNL     1     -38.247 -49.427  11.391  1.00  0.00    -0.247 OA
ENDBRANCH   4  15
TORSDOF 5
ENDMDL
