MODEL 1
REMARK VINA RESULT:      -6.0      0.000      0.000
REMARK  6 active torsions:
REMARK  status: ('A' for Active; 'I' for Inactive)
REMARK    1  A    between atoms: N_7  and  C_8 
REMARK    2  A    between atoms: C_8  and  C_9 
REMARK    3  A    between atoms: C_9  and  O_10 
REMARK    4  A    between atoms: C_9  and  C_11 
REMARK    5  A    between atoms: C_11  and  O_12 
REMARK    6  A    between atoms: O_12  and  C_13 
ROOT
HETATM    1  C   UNL     1     -41.664 -52.650  12.262  1.00  0.00     0.161 C 
ENDROOT
BRANCH   1   2
HETATM    2  C   UNL     1     -40.990 -51.833  13.374  1.00  0.00     0.171 C 
BRANCH   2   3
HETATM    3  N   UNL     1     -40.040 -50.821  12.936  1.00  0.00    -0.264 N 
HETATM    4  C   UNL     1     -38.704 -51.167  12.871  1.00  0.00     0.252 C 
HETATM    5  C   UNL     1     -37.797 -50.175  12.276  1.00  0.00     0.092 C 
HETATM    6  O   UNL     1     -38.240 -52.227  13.282  1.00  0.00    -0.268 OA
HETATM    7  C   UNL     1     -38.290 -49.011  11.856  1.00  0.00     0.100 C 
HETATM    8  N   UNL     1     -39.618 -48.701  11.995  1.00  0.00    -0.314 N 
HETATM    9  C   UNL     1     -40.120 -47.430  11.498  1.00  0.00     0.160 C 
HETATM   10  C   UNL     1     -40.536 -49.564  12.595  1.00  0.00     0.331 C 
HETATM   11  O   UNL     1     -41.707 -49.239  12.795  1.00  0.00    -0.246 OA
ENDBRANCH   2   3
ENDBRANCH   1   2
BRANCH   1  12
HETATM   12  O   UNL     1     -40.629 -53.418  11.616  1.00  0.00    -0.392 OA
HETATM   13  H   UNL     1     -40.516 -54.250  12.109  1.00  0.00     0.210 HD
ENDBRANCH   1  12
BRANCH   1  14
HETATM   14  C   UNL     1     -42.775 -53.583  12.773  1.00  0.00     0.209 C 
BRANCH  14  15
HETATM   15  O   UNL     1     -44.019 -53.141  12.223  1.00  0.00    -0.349 OA
BRANCH  15  16
HETATM   16  C   UNL     1     -45.026 -52.846  13.101  1.00  0.00     0.068 A 
HETATM   17  C   UNL     1     -45.578 -51.585  13.327  1.00  0.00     0.037 A 
HETATM   18  C   UNL     1     -46.610 -51.429  14.260  1.00  0.00     0.003 A 
HETATM   19  C   UNL     1     -47.093 -52.532  14.964  1.00  0.00     0.000 A 
HETATM   20  C   UNL     1     -46.544 -53.791  14.741  1.00  0.00     0.003 A 
HETATM   21  C   UNL     1     -45.516 -53.945  13.811  1.00  0.00     0.037 A 
ENDBRANCH  15  16
ENDBRANCH  14  15
ENDBRANCH   1  14
TORSDOF 6
ENDMDL
MODEL 2
REMARK VINA RESULT:      -5.8      2.040      2.494
REMARK  6 active torsions:
REMARK  status: ('A' for Active; 'I' for Inactive)
REMARK    1  A    between atoms: N_7  and  C_8 
REMARK    2  A    between atoms: C_8  and  C_9 
REMARK    3  A    between atoms: C_9  and  O_10 
REMARK    4  A    between atoms: C_9  and  C_11 
REMARK    5  A    between atoms: C_11  and  O_12 
REMARK    6  A    between atoms: O_12  and  C_13 
ROOT
HETATM    1  C   UNL     1     -39.489 -53.105  13.951  1.00  0.00     0.161 C 
ENDROOT
BRANCH   1   2
HETATM    2  C   UNL     1     -38.604 -51.950  14.442  1.00  0.00     0.171 C 
BRANCH   2   3
HETATM    3  N   UNL     1     -38.514 -50.795  13.560  1.00  0.00    -0.264 N 
HETATM    4  C   UNL     1     -37.651 -50.866  12.482  1.00  0.00     0.252 C 
HETATM    5  C   UNL     1     -37.702 -49.750  11.526  1.00  0.00     0.092 C 
HETATM    6  O   UNL     1     -36.855 -51.781  12.288  1.00  0.00    -0.268 OA
HETATM    7  C   UNL     1     -38.542 -48.740  11.748  1.00  0.00     0.100 C 
HETATM    8  N   UNL     1     -39.337 -48.698  12.864  1.00  0.00    -0.314 N 
HETATM    9  C   UNL     1     -40.260 -47.591  13.054  1.00  0.00     0.160 C 
HETATM   10  C   UNL     1     -39.313 -49.690  13.845  1.00  0.00     0.331 C 
HETATM   11  O   UNL     1     -39.965 -49.598  14.886  1.00  0.00    -0.246 OA
ENDBRANCH   2   3
ENDBRANCH   1   2
BRANCH   1  12
HETATM   12  O   UNL     1     -38.606 -54.173  13.551  1.00  0.00    -0.392 OA
HETATM   13  H   UNL     1     -39.048 -54.684  12.850  1.00  0.00     0.210 HD
ENDBRANCH   1  12
BRANCH   1  14
HETATM   14  C   UNL     1     -40.485 -53.608  15.010  1.00  0.00     0.209 C 
BRANCH  14  15
HETATM   15  O   UNL     1     -41.226 -54.694  14.447  1.00  0.00    -0.349 OA
BRANCH  15  16
HETATM   16  C   UNL     1     -42.485 -54.423  13.986  1.00  0.00     0.068 A 
HETATM   17  C   UNL     1     -42.807 -53.625  12.889  1.00  0.00     0.037 A 
HETATM   18  C   UNL     1     -44.146 -53.435  12.528  1.00  0.00     0.003 A 
HETATM   19  C   UNL     1     -45.164 -54.046  13.260  1.00  0.00     0.000 A 
HETATM   20  C   UNL     1     -44.847 -54.843  14.356  1.00  0.00     0.003 A 
HETATM   21  C   UNL     1     -43.512 -55.031  14.714  1.00  0.00     0.037 A 
ENDBRANCH  15  16
ENDBRANCH  14  15
ENDBRANCH   1  14
TORSDOF 6
ENDMDL
MODEL 3
REMARK VINA RESULT:      -5.8      1.632      1.870
REMARK  6 active torsions:
REMARK  status: ('A' for Active; 'I' for Inactive)
REMARK    1  A    between atoms: N_7  and  C_8 
REMARK    2  A    between atoms: C_8  and  C_9 
REMARK    3  A    between atoms: C_9  and  O_10 
REMARK    4  A    between atoms: C_9  and  C_11 
REMARK    5  A    between atoms: C_11  and  O_12 
REMARK    6  A    between atoms: O_12  and  C_13 
ROOT
HETATM    1  C   UNL     1     -41.038 -52.334  12.282  1.00  0.00     0.161 C 
ENDROOT
BRANCH   1   2
HETATM    2  C   UNL     1     -39.973 -52.204  13.381  1.00  0.00     0.171 C 
BRANCH   2   3
HETATM    3  N   UNL     1     -39.367 -50.889  13.529  1.00  0.00    -0.264 N 
HETATM    4  C   UNL     1     -38.226 -50.613  12.800  1.00  0.00     0.252 C 
HETATM    5  C   UNL     1     -37.732 -49.229  12.852  1.00  0.00     0.092 C 
HETATM    6  O   UNL     1     -37.608 -51.441  12.136  1.00  0.00    -0.268 OA
HETATM    7  C   UNL     1     -38.381 -48.334  13.596  1.00  0.00     0.100 C 
HETATM    8  N   UNL     1     -39.478 -48.679  14.341  1.00  0.00    -0.314 N 
HETATM    9  C   UNL     1     -40.173 -47.664  15.117  1.00  0.00     0.160 C 
HETATM   10  C   UNL     1     -39.980 -49.980  14.388  1.00  0.00     0.331 C 
HETATM   11  O   UNL     1     -40.911 -50.297  15.130  1.00  0.00    -0.246 OA
ENDBRANCH   2   3
ENDBRANCH   1   2
BRANCH   1  12
HETATM   12  O   UNL     1     -40.619 -53.404  11.411  1.00  0.00    -0.392 OA
HETATM   13  H   UNL     1     -40.359 -53.015  10.557  1.00  0.00     0.210 HD
ENDBRANCH   1  12
BRANCH   1  14
HETATM   14  C   UNL     1     -42.450 -52.616  12.825  1.00  0.00     0.209 C 
BRANCH  14  15
HETATM   15  O   UNL     1     -43.165 -51.378  12.878  1.00  0.00    -0.349 OA
BRANCH  15  16
HETATM   16  C   UNL     1     -44.368 -51.374  13.529  1.00  0.00     0.068 A 
HETATM   17  C   UNL     1     -45.619 -51.590  12.951  1.00  0.00     0.037 A 
HETATM   18  C   UNL     1     -46.772 -51.559  13.743  1.00  0.00     0.003 A 
HETATM   19  C   UNL     1     -46.677 -51.315  15.113  1.00  0.00     0.000 A 
HETATM   20  C   UNL     1     -45.430 -51.100  15.694  1.00  0.00     0.003 A 
HETATM   21  C   UNL     1     -44.282 -51.131  14.903  1.00  0.00     0.037 A 
ENDBRANCH  15  16
ENDBRANCH  14  15
ENDBRANCH   1  14
TORSDOF 6
ENDMDL
MODEL 4
REMARK VINA RESULT:      -5.8      1.049      2.246
REMARK  6 active torsions:
REMARK  status: ('A' for Active; 'I' for Inactive)
REMARK    1  A    between atoms: N_7  and  C_8 
REMARK    2  A    between atoms: C_8  and  C_9 
REMARK    3  A    between atoms: C_9  and  O_10 
REMARK    4  A    between atoms: C_9  and  C_11 
REMARK    5  A    between atoms: C_11  and  O_12 
REMARK    6  A    between atoms: O_12  and  C_13 
ROOT
HETATM    1  C   UNL     1     -41.846 -53.245  12.664  1.00  0.00     0.161 C 
ENDROOT
BRANCH   1   2
HETATM    2  C   UNL     1     -41.311 -52.080  13.510  1.00  0.00     0.171 C 
BRANCH   2   3
HETATM    3  N   UNL     1     -40.852 -50.913  12.770  1.00  0.00    -0.264 N 
HETATM    4  C   UNL     1     -41.773 -49.926  12.475  1.00  0.00     0.252 C 
HETATM    5  C   UNL     1     -41.244 -48.695  11.869  1.00  0.00     0.092 C 
HETATM    6  O   UNL     1     -42.981 -50.020  12.675  1.00  0.00    -0.268 OA
HETATM    7  C   UNL     1     -39.939 -48.599  11.622  1.00  0.00     0.100 C 
HETATM    8  N   UNL     1     -39.079 -49.633  11.888  1.00  0.00    -0.314 N 
HETATM    9  C   UNL     1     -37.657 -49.476  11.629  1.00  0.00     0.160 C 
HETATM   10  C   UNL     1     -39.506 -50.853  12.415  1.00  0.00     0.331 C 
HETATM   11  O   UNL     1     -38.739 -51.805  12.566  1.00  0.00    -0.246 OA
ENDBRANCH   2   3
ENDBRANCH   1   2
BRANCH   1  12
HETATM   12  O   UNL     1     -40.701 -53.934  12.122  1.00  0.00    -0.392 OA
HETATM   13  H   UNL     1     -39.906 -53.415  12.335  1.00  0.00     0.210 HD
ENDBRANCH   1  12
BRANCH   1  14
HETATM   14  C   UNL     1     -42.728 -54.225  13.457  1.00  0.00     0.209 C 
BRANCH  14  15
HETATM   15  O   UNL     1     -44.031 -54.233  12.867  1.00  0.00    -0.349 OA
BRANCH  15  16
HETATM   16  C   UNL     1     -44.915 -53.276  13.282  1.00  0.00     0.068 A 
HETATM   17  C   UNL     1     -45.771 -52.535  12.467  1.00  0.00     0.037 A 
HETATM   18  C   UNL     1     -46.628 -51.584  13.031  1.00  0.00     0.003 A 
HETATM   19  C   UNL     1     -46.634 -51.374  14.410  1.00  0.00     0.000 A 
HETATM   20  C   UNL     1     -45.782 -52.110  15.227  1.00  0.00     0.003 A 
HETATM   21  C   UNL     1     -44.928 -53.058  14.663  1.00  0.00     0.037 A 
ENDBRANCH  15  16
ENDBRANCH  14  15
ENDBRANCH   1  14
TORSDOF 6
ENDMDL
MODEL 5
REMARK VINA RESULT:      -5.7      2.999      4.349
REMARK  6 active torsions:
REMARK  status: ('A' for Active; 'I' for Inactive)
REMARK    1  A    between atoms: N_7  and  C_8 
REMARK    2  A    between atoms: C_8  and  C_9 
REMARK    3  A    between atoms: C_9  and  O_10 
REMARK    4  A    between atoms: C_9  and  C_11 
REMARK    5  A    between atoms: C_11  and  O_12 
REMARK    6  A    between atoms: O_12  and  C_13 
ROOT
HETATM    1  C   UNL     1     -41.312 -52.915  12.560  1.00  0.00     0.161 C 
ENDROOT
BRANCH   1   2
HETATM    2  C   UNL     1     -41.466 -54.290  13.225  1.00  0.00     0.171 C 
BRANCH   2   3
HETATM    3  N   UNL     1     -40.816 -54.450  14.518  1.00  0.00    -0.264 N 
HETATM    4  C   UNL     1     -39.460 -54.195  14.600  1.00  0.00     0.252 C 
HETATM    5  C   UNL     1     -38.869 -54.213  15.946  1.00  0.00     0.092 C 
HETATM    6  O   UNL     1     -38.735 -53.972  13.634  1.00  0.00    -0.268 OA
HETATM    7  C   UNL     1     -39.645 -54.485  16.995  1.00  0.00     0.100 C 
HETATM    8  N   UNL     1     -40.974 -54.783  16.846  1.00  0.00    -0.314 N 
HETATM    9  C   UNL     1     -41.792 -55.047  18.020  1.00  0.00     0.160 C 
HETATM   10  C   UNL     1     -41.601 -54.838  15.601  1.00  0.00     0.331 C 
HETATM   11  O   UNL     1     -42.774 -55.194  15.473  1.00  0.00    -0.246 OA
ENDBRANCH   2   3
ENDBRANCH   1   2
BRANCH   1  12
HETATM   12  O   UNL     1     -40.638 -53.126  11.303  1.00  0.00    -0.392 OA
HETATM   13  H   UNL     1     -39.678 -53.095  11.465  1.00  0.00     0.210 HD
ENDBRANCH   1  12
BRANCH   1  14
HETATM   14  C   UNL     1     -42.650 -52.191  12.328  1.00  0.00     0.209 C 
BRANCH  14  15
HETATM   15  O   UNL     1     -43.700 -53.159  12.399  1.00  0.00    -0.349 OA
BRANCH  15  16
HETATM   16  C   UNL     1     -44.783 -52.856  13.178  1.00  0.00     0.068 A 
HETATM   17  C   UNL     1     -45.306 -51.582  13.403  1.00  0.00     0.037 A 
HETATM   18  C   UNL     1     -46.426 -51.419  14.226  1.00  0.00     0.003 A 
HETATM   19  C   UNL     1     -47.026 -52.527  14.823  1.00  0.00     0.000 A 
HETATM   20  C   UNL     1     -46.508 -53.800  14.601  1.00  0.00     0.003 A 
HETATM   21  C   UNL     1     -45.392 -53.961  13.780  1.00  0.00     0.037 A 
ENDBRANCH  15  16
ENDBRANCH  14  15
ENDBRANCH   1  14
TORSDOF 6
ENDMDL
MODEL 6
REMARK VINA RESULT:      -5.6      2.441      4.034
REMARK  6 active torsions:
REMARK  status: ('A' for Active; 'I' for Inactive)
REMARK    1  A    between atoms: N_7  and  C_8 
REMARK    2  A    between atoms: C_8  and  C_9 
REMARK    3  A    between atoms: C_9  and  O_10 
REMARK    4  A    between atoms: C_9  and  C_11 
REMARK    5  A    between atoms: C_11  and  O_12 
REMARK    6  A    between atoms: O_12  and  C_13 
ROOT
HETATM    1  C   UNL     1     -41.835 -52.623  12.141  1.00  0.00     0.161 C 
ENDROOT
BRANCH   1   2
HETATM    2  C   UNL     1     -41.178 -51.865  13.304  1.00  0.00     0.171 C 
BRANCH   2   3
HETATM    3  N   UNL     1     -40.938 -52.638  14.514  1.00  0.00    -0.264 N 
HETATM    4  C   UNL     1     -41.857 -52.540  15.542  1.00  0.00     0.252 C 
HETATM    5  C   UNL     1     -41.668 -53.451  16.681  1.00  0.00     0.092 C 
HETATM    6  O   UNL     1     -42.794 -51.747  15.563  1.00  0.00    -0.268 OA
HETATM    7  C   UNL     1     -40.635 -54.293  16.677  1.00  0.00     0.100 C 
HETATM    8  N   UNL     1     -39.724 -54.308  15.653  1.00  0.00    -0.314 N 
HETATM    9  C   UNL     1     -38.627 -55.262  15.675  1.00  0.00     0.160 C 
HETATM   10  C   UNL     1     -39.801 -53.442  14.561  1.00  0.00     0.331 C 
HETATM   11  O   UNL     1     -38.928 -53.404  13.693  1.00  0.00    -0.246 OA
ENDBRANCH   2   3
ENDBRANCH   1   2
BRANCH   1  12
HETATM   12  O   UNL     1     -40.780 -53.302  11.429  1.00  0.00    -0.392 OA
HETATM   13  H   UNL     1     -40.812 -54.245  11.669  1.00  0.00     0.210 HD
ENDBRANCH   1  12
BRANCH   1  14
HETATM   14  C   UNL     1     -42.905 -53.632  12.592  1.00  0.00     0.209 C 
BRANCH  14  15
HETATM   15  O   UNL     1     -44.181 -53.158  12.153  1.00  0.00    -0.349 OA
BRANCH  15  16
HETATM   16  C   UNL     1     -45.091 -52.819  13.116  1.00  0.00     0.068 A 
HETATM   17  C   UNL     1     -45.778 -51.609  13.212  1.00  0.00     0.037 A 
HETATM   18  C   UNL     1     -46.686 -51.398  14.255  1.00  0.00     0.003 A 
HETATM   19  C   UNL     1     -46.912 -52.397  15.202  1.00  0.00     0.000 A 
HETATM   20  C   UNL     1     -46.228 -53.606  15.111  1.00  0.00     0.003 A 
HETATM   21  C   UNL     1     -45.323 -53.814  14.070  1.00  0.00     0.037 A 
ENDBRANCH  15  16
ENDBRANCH  14  15
ENDBRANCH   1  14
TORSDOF 6
ENDMDL
MODEL 7
REMARK VINA RESULT:      -5.4      1.973      3.556
REMARK  6 active torsions:
REMARK  status: ('A' for Active; 'I' for Inactive)
REMARK    1  A    between atoms: N_7  and  C_8 
REMARK    2  A    between atoms: C_8  and  C_9 
REMARK    3  A    between atoms: C_9  and  O_10 
REMARK    4  A    between atoms: C_9  and  C_11 
REMARK    5  A    between atoms: C_11  and  O_12 
REMARK    6  A    between atoms: O_12  and  C_13 
ROOT
HETATM    1  C   UNL     1     -40.928 -50.474  12.288  1.00  0.00     0.161 C 
ENDROOT
BRANCH   1   2
HETATM    2  C   UNL     1     -39.658 -49.793  11.757  1.00  0.00     0.171 C 
BRANCH   2   3
HETATM    3  N   UNL     1     -39.189 -48.640  12.512  1.00  0.00    -0.264 N 
HETATM    4  C   UNL     1     -39.785 -47.417  12.268  1.00  0.00     0.252 C 
HETATM    5  C   UNL     1     -39.400 -46.310  13.155  1.00  0.00     0.092 C 
HETATM    6  O   UNL     1     -40.591 -47.204  11.366  1.00  0.00    -0.268 OA
HETATM    7  C   UNL     1     -38.503 -46.528  14.117  1.00  0.00     0.100 C 
HETATM    8  N   UNL     1     -37.905 -47.750  14.277  1.00  0.00    -0.314 N 
HETATM    9  C   UNL     1     -36.952 -47.953  15.357  1.00  0.00     0.160 C 
HETATM   10  C   UNL     1     -38.176 -48.838  13.447  1.00  0.00     0.331 C 
HETATM   11  O   UNL     1     -37.567 -49.905  13.545  1.00  0.00    -0.246 OA
ENDBRANCH   2   3
ENDBRANCH   1   2
BRANCH   1  12
HETATM   12  O   UNL     1     -42.039 -49.939  11.540  1.00  0.00    -0.392 OA
HETATM   13  H   UNL     1     -42.803 -50.529  11.669  1.00  0.00     0.210 HD
ENDBRANCH   1  12
BRANCH   1  14
HETATM   14  C   UNL     1     -40.899 -52.007  12.168  1.00  0.00     0.209 C 
BRANCH  14  15
HETATM   15  O   UNL     1     -42.224 -52.460  11.878  1.00  0.00    -0.349 OA
BRANCH  15  16
HETATM   16  C   UNL     1     -42.810 -53.308  12.777  1.00  0.00     0.068 A 
HETATM   17  C   UNL     1     -42.190 -53.900  13.877  1.00  0.00     0.037 A 
HETATM   18  C   UNL     1     -42.916 -54.751  14.718  1.00  0.00     0.003 A 
HETATM   19  C   UNL     1     -44.263 -55.007  14.464  1.00  0.00     0.000 A 
HETATM   20  C   UNL     1     -44.886 -54.418  13.368  1.00  0.00     0.003 A 
HETATM   21  C   UNL     1     -44.161 -53.570  12.530  1.00  0.00     0.037 A 
ENDBRANCH  15  16
ENDBRANCH  14  15
ENDBRANCH   1  14
TORSDOF 6
ENDMDL
MODEL 8
REMARK VINA RESULT:      -5.4      1.601      2.476
REMARK  6 active torsions:
REMARK  status: ('A' for Active; 'I' for Inactive)
REMARK    1  A    between atoms: N_7  and  C_8 
REMARK    2  A    between atoms: C_8  and  C_9 
REMARK    3  A    between atoms: C_9  and  O_10 
REMARK    4  A    between atoms: C_9  and  C_11 
REMARK    5  A    between atoms: C_11  and  O_12 
REMARK    6  A    between atoms: O_12  and  C_13 
ROOT
HETATM    1  C   UNL     1     -41.801 -51.927  12.861  1.00  0.00     0.161 C 
ENDROOT
BRANCH   1   2
HETATM    2  C   UNL     1     -40.323 -52.215  12.559  1.00  0.00     0.171 C 
BRANCH   2   3
HETATM    3  N   UNL     1     -39.361 -51.290  13.141  1.00  0.00    -0.264 N 
HETATM    4  C   UNL     1     -39.041 -50.150  12.429  1.00  0.00     0.252 C 
HETATM    5  C   UNL     1     -38.191 -49.165  13.115  1.00  0.00     0.092 C 
HETATM    6  O   UNL     1     -39.408 -49.922  11.280  1.00  0.00    -0.268 OA
HETATM    7  C   UNL     1     -37.765 -49.420  14.351  1.00  0.00     0.100 C 
HETATM    8  N   UNL     1     -38.071 -50.595  14.988  1.00  0.00    -0.314 N 
HETATM    9  C   UNL     1     -37.609 -50.821  16.348  1.00  0.00     0.160 C 
HETATM   10  C   UNL     1     -38.829 -51.603  14.390  1.00  0.00     0.331 C 
HETATM   11  O   UNL     1     -39.022 -52.689  14.938  1.00  0.00    -0.246 OA
ENDBRANCH   2   3
ENDBRANCH   1   2
BRANCH   1  12
HETATM   12  O   UNL     1     -42.276 -51.030  11.835  1.00  0.00    -0.392 OA
HETATM   13  H   UNL     1     -41.919 -50.143  12.021  1.00  0.00     0.210 HD
ENDBRANCH   1  12
BRANCH   1  14
HETATM   14  C   UNL     1     -42.677 -53.191  12.905  1.00  0.00     0.209 C 
BRANCH  14  15
HETATM   15  O   UNL     1     -43.951 -52.874  12.339  1.00  0.00    -0.349 OA
BRANCH  15  16
HETATM   16  C   UNL     1     -44.992 -52.678  13.205  1.00  0.00     0.068 A 
HETATM   17  C   UNL     1     -45.601 -51.458  13.500  1.00  0.00     0.037 A 
HETATM   18  C   UNL     1     -46.663 -51.406  14.409  1.00  0.00     0.003 A 
HETATM   19  C   UNL     1     -47.121 -52.572  15.022  1.00  0.00     0.000 A 
HETATM   20  C   UNL     1     -46.516 -53.792  14.731  1.00  0.00     0.003 A 
HETATM   21  C   UNL     1     -45.457 -53.842  13.824  1.00  0.00     0.037 A 
ENDBRANCH  15  16
ENDBRANCH  14  15
ENDBRANCH   1  14
TORSDOF 6
ENDMDL
MODEL 9
REMARK VINA RESULT:      -5.3      2.219      6.391
REMARK  6 active torsions:
REMARK  status: ('A' for Active; 'I' for Inactive)
REMARK    1  A    between atoms: N_7  and  C_8 
REMARK    2  A    between atoms: C_8  and  C_9 
REMARK    3  A    between atoms: C_9  and  O_10 
REMARK    4  A    between atoms: C_9  and  C_11 
REMARK    5  A    between atoms: C_11  and  O_12 
REMARK    6  A    between atoms: O_12  and  C_13 
ROOT
HETATM    1  C   UNL     1     -39.830 -54.315  13.963  1.00  0.00     0.161 C 
ENDROOT
BRANCH   1   2
HETATM    2  C   UNL     1     -40.973 -54.223  12.941  1.00  0.00     0.171 C 
BRANCH   2   3
HETATM    3  N   UNL     1     -42.157 -53.495  13.373  1.00  0.00    -0.264 N 
HETATM    4  C   UNL     1     -42.430 -52.281  12.772  1.00  0.00     0.252 C 
HETATM    5  C   UNL     1     -43.713 -51.651  13.116  1.00  0.00     0.092 C 
HETATM    6  O   UNL     1     -41.675 -51.705  11.993  1.00  0.00    -0.268 OA
HETATM    7  C   UNL     1     -44.524 -52.256  13.984  1.00  0.00     0.100 C 
HETATM    8  N   UNL     1     -44.176 -53.435  14.590  1.00  0.00    -0.314 N 
HETATM    9  C   UNL     1     -45.102 -54.076  15.510  1.00  0.00     0.160 C 
HETATM   10  C   UNL     1     -42.956 -54.072  14.358  1.00  0.00     0.331 C 
HETATM   11  O   UNL     1     -42.617 -55.083  14.975  1.00  0.00    -0.246 OA
ENDBRANCH   2   3
ENDBRANCH   1   2
BRANCH   1  12
HETATM   12  O   UNL     1     -38.750 -55.027  13.326  1.00  0.00    -0.392 OA
HETATM   13  H   UNL     1     -38.033 -55.134  13.976  1.00  0.00     0.210 HD
ENDBRANCH   1  12
BRANCH   1  14
HETATM   14  C   UNL     1     -39.340 -52.945  14.462  1.00  0.00     0.209 C 
BRANCH  14  15
HETATM   15  O   UNL     1     -38.378 -52.447  13.529  1.00  0.00    -0.349 OA
BRANCH  15  16
HETATM   16  C   UNL     1     -38.483 -51.134  13.158  1.00  0.00     0.068 A 
HETATM   17  C   UNL     1     -37.894 -50.544  12.040  1.00  0.00     0.037 A 
HETATM   18  C   UNL     1     -38.090 -49.183  11.781  1.00  0.00     0.003 A 
HETATM   19  C   UNL     1     -38.876 -48.411  12.636  1.00  0.00     0.000 A 
HETATM   20  C   UNL     1     -39.465 -48.996  13.753  1.00  0.00     0.003 A 
HETATM   21  C   UNL     1     -39.270 -50.353  14.010  1.00  0.00     0.037 A 
ENDBRANCH  15  16
ENDBRANCH  14  15
ENDBRANCH   1  14
TORSDOF 6
ENDMDL
