MODEL 1
REMARK VINA RESULT:      -6.5      0.000      0.000
REMARK  5 active torsions:
REMARK  status: ('A' for Active; 'I' for Inactive)
REMARK    1  A    between atoms: C_2  and  C_3 
REMARK    2  A    between atoms: C_2  and  N_20 
REMARK    3  A    between atoms: C_3  and  N_4 
REMARK       I    between atoms: N_4  and  C_5 
REMARK       I    between atoms: C_5  and  N_7 
REMARK    4  A    between atoms: N_7  and  C_8 
REMARK    5  A    between atoms: C_14  and  N_15 
ROOT
HETATM    1  N   UNL     1     -41.151 -49.448  11.136  1.00  0.00    -0.341 N 
HETATM    2  C   UNL     1     -41.435 -50.293  12.183  1.00  0.00     0.320 C 
HETATM    3  O   UNL     1     -41.327 -49.956  13.353  1.00  0.00    -0.247 OA
HETATM    4  N   UNL     1     -41.873 -51.527  11.745  1.00  0.00    -0.306 N 
HETATM    5  H   UNL     1     -40.792 -49.919  10.318  1.00  0.00     0.164 HD
HETATM    6  H   UNL     1     -42.591 -51.486  11.031  1.00  0.00     0.171 HD
ENDROOT
BRANCH   4   7
HETATM    7  C   UNL     1     -42.061 -52.572  12.684  1.00  0.00     0.075 A 
HETATM    8  C   UNL     1     -40.992 -53.422  12.983  1.00  0.00     0.034 A 
HETATM    9  C   UNL     1     -41.169 -54.448  13.898  1.00  0.00     0.019 A 
HETATM   10  C   UNL     1     -42.416 -54.588  14.471  1.00  0.00     0.089 A 
HETATM   11  N   UNL     1     -43.478 -53.804  14.177  1.00  0.00    -0.355 N 
HETATM   12  C   UNL     1     -43.315 -52.790  13.294  1.00  0.00     0.109 A 
ATOM     13  HN  UNL     1     -44.386 -53.973  14.613  1.00  0.00     0.166 HD
BRANCH  12  14
HETATM   14  N   UNL     1     -44.400 -51.923  13.029  1.00  0.00    -0.267 NA
HETATM   15  C   UNL     1     -45.619 -52.603  12.549  1.00  0.00     0.097 C 
HETATM   16  C   UNL     1     -46.770 -51.788  13.121  1.00  0.00     0.016 C 
HETATM   17  C   UNL     1     -46.222 -51.331  14.462  1.00  0.00     0.016 C 
HETATM   18  C   UNL     1     -44.750 -51.056  14.171  1.00  0.00     0.097 C 
ENDBRANCH  12  14
ENDBRANCH   4   7
BRANCH   1  19
HETATM   19  C   UNL     1     -40.606 -48.125  11.430  1.00  0.00     0.159 C 
BRANCH  19  20
HETATM   20  C   UNL     1     -41.228 -46.989  10.552  1.00  0.00     0.236 C 
HETATM   21  C   UNL     1     -40.178 -45.857  10.507  1.00  0.00     0.044 C 
BRANCH  20  22
HETATM   22  N   UNL     1     -42.528 -46.497  11.096  1.00  0.00     0.098 N 
HETATM   23  C   UNL     1     -43.642 -47.470  10.932  1.00  0.00     0.299 C 
HETATM   24  C   UNL     1     -44.182 -47.583   9.497  1.00  0.00     0.198 C 
HETATM   25  O   UNL     1     -44.636 -46.310   9.019  1.00  0.00    -0.388 OA
HETATM   26  C   UNL     1     -43.576 -45.348   9.075  1.00  0.00     0.198 C 
HETATM   27  C   UNL     1     -43.006 -45.221  10.500  1.00  0.00     0.299 C 
ENDBRANCH  20  22
ENDBRANCH  19  20
ENDBRANCH   1  19
TORSDOF 5
ENDMDL
MODEL 2
REMARK VINA RESULT:      -6.5      2.447      7.654
REMARK  5 active torsions:
REMARK  status: ('A' for Active; 'I' for Inactive)
REMARK    1  A    between atoms: C_2  and  C_3 
REMARK    2  A    between atoms: C_2  and  N_20 
REMARK    3  A    between atoms: C_3  and  N_4 
REMARK       I    between atoms: N_4  and  C_5 
REMARK       I    between atoms: C_5  and  N_7 
REMARK    4  A    between atoms: N_7  and  C_8 
REMARK    5  A    between atoms: C_14  and  N_15 
ROOT
HETATM    1  N   UNL     1     -43.759 -50.658  12.676  1.00  0.00    -0.341 N 
HETATM    2  C   UNL     1     -42.989 -49.519  12.640  1.00  0.00     0.320 C 
HETATM    3  O   UNL     1     -42.861 -48.777  13.604  1.00  0.00    -0.247 OA
HETATM    4  N   UNL     1     -42.379 -49.348  11.414  1.00  0.00    -0.306 N 
HETATM    5  H   UNL     1     -44.190 -50.887  11.792  1.00  0.00     0.164 HD
HETATM    6  H   UNL     1     -41.918 -50.177  11.057  1.00  0.00     0.171 HD
ENDROOT
BRANCH   4   7
HETATM    7  C   UNL     1     -41.675 -48.146  11.149  1.00  0.00     0.075 A 
HETATM    8  C   UNL     1     -42.349 -47.076  10.553  1.00  0.00     0.034 A 
HETATM    9  C   UNL     1     -41.667 -45.899  10.288  1.00  0.00     0.019 A 
HETATM   10  C   UNL     1     -40.330 -45.844  10.622  1.00  0.00     0.089 A 
HETATM   11  N   UNL     1     -39.642 -46.872  11.168  1.00  0.00    -0.355 N 
HETATM   12  C   UNL     1     -40.300 -48.024  11.444  1.00  0.00     0.109 A 
ATOM     13  HN  UNL     1     -38.645 -46.783  11.368  1.00  0.00     0.166 HD
BRANCH  12  14
HETATM   14  N   UNL     1     -39.607 -49.082  12.074  1.00  0.00    -0.267 NA
HETATM   15  C   UNL     1     -38.379 -49.508  11.374  1.00  0.00     0.097 C 
HETATM   16  C   UNL     1     -37.424 -49.926  12.483  1.00  0.00     0.016 C 
HETATM   17  C   UNL     1     -37.771 -48.962  13.604  1.00  0.00     0.016 C 
HETATM   18  C   UNL     1     -39.284 -48.811  13.488  1.00  0.00     0.097 C 
ENDBRANCH  12  14
ENDBRANCH   4   7
BRANCH   1  19
HETATM   19  C   UNL     1     -44.532 -50.945  13.882  1.00  0.00     0.159 C 
BRANCH  19  20
HETATM   20  C   UNL     1     -45.521 -52.146  13.713  1.00  0.00     0.236 C 
HETATM   21  C   UNL     1     -46.900 -51.525  13.398  1.00  0.00     0.044 C 
BRANCH  20  22
HETATM   22  N   UNL     1     -45.583 -53.007  14.930  1.00  0.00     0.098 N 
HETATM   23  C   UNL     1     -44.243 -53.427  15.425  1.00  0.00     0.299 C 
HETATM   24  C   UNL     1     -43.565 -54.516  14.578  1.00  0.00     0.198 C 
HETATM   25  O   UNL     1     -44.389 -55.687  14.493  1.00  0.00    -0.388 OA
HETATM   26  C   UNL     1     -45.670 -55.357  13.943  1.00  0.00     0.198 C 
HETATM   27  C   UNL     1     -46.369 -54.259  14.764  1.00  0.00     0.299 C 
ENDBRANCH  20  22
ENDBRANCH  19  20
ENDBRANCH   1  19
TORSDOF 5
ENDMDL
MODEL 3
REMARK VINA RESULT:      -6.4      1.481      2.153
REMARK  5 active torsions:
REMARK  status: ('A' for Active; 'I' for Inactive)
REMARK    1  A    between atoms: C_2  and  C_3 
REMARK    2  A    between atoms: C_2  and  N_20 
REMARK    3  A    between atoms: C_3  and  N_4 
REMARK       I    between atoms: N_4  and  C_5 
REMARK       I    between atoms: C_5  and  N_7 
REMARK    4  A    between atoms: N_7  and  C_8 
REMARK    5  A    between atoms: C_14  and  N_15 
ROOT
HETATM    1  N   UNL     1     -41.208 -49.739  10.996  1.00  0.00    -0.341 N 
HETATM    2  C   UNL     1     -41.520 -50.485  12.109  1.00  0.00     0.320 C 
HETATM    3  O   UNL     1     -41.455 -50.036  13.245  1.00  0.00    -0.247 OA
HETATM    4  N   UNL     1     -41.930 -51.760  11.777  1.00  0.00    -0.306 N 
HETATM    5  H   UNL     1     -40.817 -50.281  10.240  1.00  0.00     0.164 HD
HETATM    6  H   UNL     1     -42.624 -51.797  11.038  1.00  0.00     0.171 HD
ENDROOT
BRANCH   4   7
HETATM    7  C   UNL     1     -42.141 -52.714  12.805  1.00  0.00     0.075 A 
HETATM    8  C   UNL     1     -41.099 -53.576  13.160  1.00  0.00     0.034 A 
HETATM    9  C   UNL     1     -41.297 -54.513  14.162  1.00  0.00     0.019 A 
HETATM   10  C   UNL     1     -42.538 -54.555  14.763  1.00  0.00     0.089 A 
HETATM   11  N   UNL     1     -43.576 -53.759  14.418  1.00  0.00    -0.355 N 
HETATM   12  C   UNL     1     -43.391 -52.831  13.449  1.00  0.00     0.109 A 
ATOM     13  HN  UNL     1     -44.481 -53.855  14.879  1.00  0.00     0.166 HD
BRANCH  12  14
HETATM   14  N   UNL     1     -44.447 -51.949  13.126  1.00  0.00    -0.267 NA
HETATM   15  C   UNL     1     -45.638 -52.609  12.555  1.00  0.00     0.097 C 
HETATM   16  C   UNL     1     -46.817 -51.791  13.062  1.00  0.00     0.016 C 
HETATM   17  C   UNL     1     -46.356 -51.360  14.444  1.00  0.00     0.016 C 
HETATM   18  C   UNL     1     -44.866 -51.097  14.256  1.00  0.00     0.097 C 
ENDBRANCH  12  14
ENDBRANCH   4   7
BRANCH   1  19
HETATM   19  C   UNL     1     -40.687 -48.387  11.181  1.00  0.00     0.159 C 
BRANCH  19  20
HETATM   20  C   UNL     1     -41.768 -47.274  10.985  1.00  0.00     0.236 C 
HETATM   21  C   UNL     1     -42.654 -47.739   9.808  1.00  0.00     0.044 C 
BRANCH  20  22
HETATM   22  N   UNL     1     -41.165 -45.937  10.708  1.00  0.00     0.098 N 
HETATM   23  C   UNL     1     -39.970 -45.644  11.547  1.00  0.00     0.299 C 
HETATM   24  C   UNL     1     -40.291 -45.298  13.010  1.00  0.00     0.198 C 
HETATM   25  O   UNL     1     -41.170 -44.169  13.089  1.00  0.00    -0.388 OA
HETATM   26  C   UNL     1     -42.379 -44.426  12.365  1.00  0.00     0.198 C 
HETATM   27  C   UNL     1     -42.090 -44.788  10.897  1.00  0.00     0.299 C 
ENDBRANCH  20  22
ENDBRANCH  19  20
ENDBRANCH   1  19
TORSDOF 5
ENDMDL
MODEL 4
REMARK VINA RESULT:      -6.3      3.116      5.037
REMARK  5 active torsions:
REMARK  status: ('A' for Active; 'I' for Inactive)
REMARK    1  A    between atoms: C_2  and  C_3 
REMARK    2  A    between atoms: C_2  and  N_20 
REMARK    3  A    between atoms: C_3  and  N_4 
REMARK       I    between atoms: N_4  and  C_5 
REMARK       I    between atoms: C_5  and  N_7 
REMARK    4  A    between atoms: N_7  and  C_8 
REMARK    5  A    between atoms: C_14  and  N_15 
ROOT
HETATM    1  N   UNL     1     -40.640 -50.697  11.213  1.00  0.00    -0.341 N 
HETATM    2  C   UNL     1     -41.561 -51.257  12.069  1.00  0.00     0.320 C 
HETATM    3  O   UNL     1     -42.219 -50.594  12.857  1.00  0.00    -0.247 OA
HETATM    4  N   UNL     1     -41.656 -52.624  11.901  1.00  0.00    -0.306 N 
HETATM    5  H   UNL     1     -39.856 -51.299  11.009  1.00  0.00     0.164 HD
HETATM    6  H   UNL     1     -41.744 -52.921  10.936  1.00  0.00     0.171 HD
ENDROOT
BRANCH   4   7
HETATM    7  C   UNL     1     -42.441 -53.383  12.805  1.00  0.00     0.075 A 
HETATM    8  C   UNL     1     -43.771 -53.667  12.484  1.00  0.00     0.034 A 
HETATM    9  C   UNL     1     -44.546 -54.405  13.364  1.00  0.00     0.019 A 
HETATM   10  C   UNL     1     -43.957 -54.824  14.539  1.00  0.00     0.089 A 
HETATM   11  N   UNL     1     -42.684 -54.537  14.894  1.00  0.00    -0.355 N 
HETATM   12  C   UNL     1     -41.913 -53.827  14.037  1.00  0.00     0.109 A 
ATOM     13  HN  UNL     1     -42.311 -54.850  15.791  1.00  0.00     0.166 HD
BRANCH  12  14
HETATM   14  N   UNL     1     -40.561 -53.577  14.367  1.00  0.00    -0.267 NA
HETATM   15  C   UNL     1     -40.332 -53.255  15.790  1.00  0.00     0.097 C 
HETATM   16  C   UNL     1     -38.966 -53.847  16.107  1.00  0.00     0.016 C 
HETATM   17  C   UNL     1     -38.934 -55.097  15.244  1.00  0.00     0.016 C 
HETATM   18  C   UNL     1     -39.650 -54.666  13.968  1.00  0.00     0.097 C 
ENDBRANCH  12  14
ENDBRANCH   4   7
BRANCH   1  19
HETATM   19  C   UNL     1     -40.367 -49.266  11.315  1.00  0.00     0.159 C 
BRANCH  19  20
HETATM   20  C   UNL     1     -39.028 -48.942  12.058  1.00  0.00     0.236 C 
HETATM   21  C   UNL     1     -37.963 -49.880  11.449  1.00  0.00     0.044 C 
BRANCH  20  22
HETATM   22  N   UNL     1     -39.135 -49.135  13.533  1.00  0.00     0.098 N 
HETATM   23  C   UNL     1     -40.042 -48.154  14.192  1.00  0.00     0.299 C 
HETATM   24  C   UNL     1     -39.455 -46.739  14.328  1.00  0.00     0.198 C 
HETATM   25  O   UNL     1     -38.224 -46.763  15.062  1.00  0.00    -0.388 OA
HETATM   26  C   UNL     1     -37.279 -47.631  14.426  1.00  0.00     0.198 C 
HETATM   27  C   UNL     1     -37.843 -49.055  14.265  1.00  0.00     0.299 C 
ENDBRANCH  20  22
ENDBRANCH  19  20
ENDBRANCH   1  19
TORSDOF 5
ENDMDL
MODEL 5
REMARK VINA RESULT:      -6.1      3.194      7.463
REMARK  5 active torsions:
REMARK  status: ('A' for Active; 'I' for Inactive)
REMARK    1  A    between atoms: C_2  and  C_3 
REMARK    2  A    between atoms: C_2  and  N_20 
REMARK    3  A    between atoms: C_3  and  N_4 
REMARK       I    between atoms: N_4  and  C_5 
REMARK       I    between atoms: C_5  and  N_7 
REMARK    4  A    between atoms: N_7  and  C_8 
REMARK    5  A    between atoms: C_14  and  N_15 
ROOT
HETATM    1  N   UNL     1     -40.699 -50.308  11.158  1.00  0.00    -0.341 N 
HETATM    2  C   UNL     1     -41.591 -49.260  11.149  1.00  0.00     0.320 C 
HETATM    3  O   UNL     1     -42.386 -49.061  12.055  1.00  0.00    -0.247 OA
HETATM    4  N   UNL     1     -41.450 -48.475  10.022  1.00  0.00    -0.306 N 
HETATM    5  H   UNL     1     -40.483 -50.667  10.240  1.00  0.00     0.164 HD
HETATM    6  H   UNL     1     -40.494 -48.214   9.812  1.00  0.00     0.171 HD
ENDROOT
BRANCH   4   7
HETATM    7  C   UNL     1     -42.391 -47.443   9.771  1.00  0.00     0.075 A 
HETATM    8  C   UNL     1     -43.470 -47.696   8.919  1.00  0.00     0.034 A 
HETATM    9  C   UNL     1     -44.392 -46.693   8.665  1.00  0.00     0.019 A 
HETATM   10  C   UNL     1     -44.190 -45.470   9.271  1.00  0.00     0.089 A 
HETATM   11  N   UNL     1     -43.139 -45.184  10.073  1.00  0.00    -0.355 N 
HETATM   12  C   UNL     1     -42.238 -46.160  10.338  1.00  0.00     0.109 A 
ATOM     13  HN  UNL     1     -43.027 -44.251  10.471  1.00  0.00     0.166 HD
BRANCH  12  14
HETATM   14  N   UNL     1     -41.171 -45.893  11.226  1.00  0.00    -0.267 NA
HETATM   15  C   UNL     1     -40.126 -45.009  10.675  1.00  0.00     0.097 C 
HETATM   16  C   UNL     1     -39.630 -44.202  11.867  1.00  0.00     0.016 C 
HETATM   17  C   UNL     1     -40.888 -44.030  12.701  1.00  0.00     0.016 C 
HETATM   18  C   UNL     1     -41.614 -45.360  12.530  1.00  0.00     0.097 C 
ENDBRANCH  12  14
ENDBRANCH   4   7
BRANCH   1  19
HETATM   19  C   UNL     1     -40.768 -51.277  12.249  1.00  0.00     0.159 C 
BRANCH  19  20
HETATM   20  C   UNL     1     -39.525 -51.230  13.199  1.00  0.00     0.236 C 
HETATM   21  C   UNL     1     -39.374 -52.654  13.779  1.00  0.00     0.044 C 
BRANCH  20  22
HETATM   22  N   UNL     1     -39.678 -50.219  14.285  1.00  0.00     0.098 N 
HETATM   23  C   UNL     1     -39.287 -48.843  13.870  1.00  0.00     0.299 C 
HETATM   24  C   UNL     1     -37.770 -48.622  13.753  1.00  0.00     0.198 C 
HETATM   25  O   UNL     1     -37.112 -48.910  14.994  1.00  0.00    -0.388 OA
HETATM   26  C   UNL     1     -37.386 -50.255  15.404  1.00  0.00     0.198 C 
HETATM   27  C   UNL     1     -38.899 -50.512  15.519  1.00  0.00     0.299 C 
ENDBRANCH  20  22
ENDBRANCH  19  20
ENDBRANCH   1  19
TORSDOF 5
ENDMDL
MODEL 6
REMARK VINA RESULT:      -6.0      2.379      7.901
REMARK  5 active torsions:
REMARK  status: ('A' for Active; 'I' for Inactive)
REMARK    1  A    between atoms: C_2  and  C_3 
REMARK    2  A    between atoms: C_2  and  N_20 
REMARK    3  A    between atoms: C_3  and  N_4 
REMARK       I    between atoms: N_4  and  C_5 
REMARK       I    between atoms: C_5  and  N_7 
REMARK    4  A    between atoms: N_7  and  C_8 
REMARK    5  A    between atoms: C_14  and  N_15 
ROOT
HETATM    1  N   UNL     1     -41.797 -50.406  11.772  1.00  0.00    -0.341 N 
HETATM    2  C   UNL     1     -42.467 -49.214  11.621  1.00  0.00     0.320 C 
HETATM    3  O   UNL     1     -43.223 -48.769  12.472  1.00  0.00    -0.247 OA
HETATM    4  N   UNL     1     -42.157 -48.596  10.426  1.00  0.00    -0.306 N 
HETATM    5  H   UNL     1     -41.639 -50.897  10.904  1.00  0.00     0.164 HD
HETATM    6  H   UNL     1     -41.164 -48.548  10.226  1.00  0.00     0.171 HD
ENDROOT
BRANCH   4   7
HETATM    7  C   UNL     1     -42.874 -47.437  10.035  1.00  0.00     0.075 A 
HETATM    8  C   UNL     1     -44.024 -47.578   9.253  1.00  0.00     0.034 A 
HETATM    9  C   UNL     1     -44.729 -46.449   8.864  1.00  0.00     0.019 A 
HETATM   10  C   UNL     1     -44.248 -45.222   9.268  1.00  0.00     0.089 A 
HETATM   11  N   UNL     1     -43.120 -45.051   9.996  1.00  0.00    -0.355 N 
HETATM   12  C   UNL     1     -42.429 -46.146  10.393  1.00  0.00     0.109 A 
ATOM     13  HN  UNL     1     -42.796 -44.115  10.242  1.00  0.00     0.166 HD
BRANCH  12  14
HETATM   14  N   UNL     1     -41.286 -45.985  11.209  1.00  0.00    -0.267 NA
HETATM   15  C   UNL     1     -40.203 -45.195  10.590  1.00  0.00     0.097 C 
HETATM   16  C   UNL     1     -39.558 -44.446  11.747  1.00  0.00     0.016 C 
HETATM   17  C   UNL     1     -40.737 -44.166  12.663  1.00  0.00     0.016 C 
HETATM   18  C   UNL     1     -41.591 -45.422  12.539  1.00  0.00     0.097 C 
ENDBRANCH  12  14
ENDBRANCH   4   7
BRANCH   1  19
HETATM   19  C   UNL     1     -42.071 -51.221  12.953  1.00  0.00     0.159 C 
BRANCH  19  20
HETATM   20  C   UNL     1     -40.815 -51.993  13.478  1.00  0.00     0.236 C 
HETATM   21  C   UNL     1     -39.593 -51.335  12.799  1.00  0.00     0.044 C 
BRANCH  20  22
HETATM   22  N   UNL     1     -40.878 -53.453  13.176  1.00  0.00     0.098 N 
HETATM   23  C   UNL     1     -42.140 -54.096  13.636  1.00  0.00     0.299 C 
HETATM   24  C   UNL     1     -42.224 -54.314  15.156  1.00  0.00     0.198 C 
HETATM   25  O   UNL     1     -41.129 -55.112  15.622  1.00  0.00    -0.388 OA
HETATM   26  C   UNL     1     -39.881 -54.497  15.279  1.00  0.00     0.198 C 
HETATM   27  C   UNL     1     -39.771 -54.255  13.762  1.00  0.00     0.299 C 
ENDBRANCH  20  22
ENDBRANCH  19  20
ENDBRANCH   1  19
TORSDOF 5
ENDMDL
MODEL 7
REMARK VINA RESULT:      -6.0      2.842      4.520
REMARK  5 active torsions:
REMARK  status: ('A' for Active; 'I' for Inactive)
REMARK    1  A    between atoms: C_2  and  C_3 
REMARK    2  A    between atoms: C_2  and  N_20 
REMARK    3  A    between atoms: C_3  and  N_4 
REMARK       I    between atoms: N_4  and  C_5 
REMARK       I    between atoms: C_5  and  N_7 
REMARK    4  A    between atoms: N_7  and  C_8 
REMARK    5  A    between atoms: C_14  and  N_15 
ROOT
HETATM    1  N   UNL     1     -42.008 -49.011  10.980  1.00  0.00    -0.341 N 
HETATM    2  C   UNL     1     -41.869 -50.033  11.890  1.00  0.00     0.320 C 
HETATM    3  O   UNL     1     -42.552 -50.115  12.901  1.00  0.00    -0.247 OA
HETATM    4  N   UNL     1     -40.903 -50.940  11.503  1.00  0.00    -0.306 N 
HETATM    5  H   UNL     1     -41.148 -48.759  10.516  1.00  0.00     0.164 HD
HETATM    6  H   UNL     1     -40.978 -51.243  10.538  1.00  0.00     0.171 HD
ENDROOT
BRANCH   4   7
HETATM    7  C   UNL     1     -40.518 -51.971  12.397  1.00  0.00     0.075 A 
HETATM    8  C   UNL     1     -41.135 -53.222  12.302  1.00  0.00     0.034 A 
HETATM    9  C   UNL     1     -40.766 -54.235  13.174  1.00  0.00     0.019 A 
HETATM   10  C   UNL     1     -39.799 -53.949  14.115  1.00  0.00     0.089 A 
HETATM   11  N   UNL     1     -39.209 -52.739  14.254  1.00  0.00    -0.355 N 
HETATM   12  C   UNL     1     -39.552 -51.746  13.400  1.00  0.00     0.109 A 
ATOM     13  HN  UNL     1     -38.520 -52.579  14.989  1.00  0.00     0.166 HD
BRANCH  12  14
HETATM   14  N   UNL     1     -38.895 -50.497  13.493  1.00  0.00    -0.267 NA
HETATM   15  C   UNL     1     -39.393 -49.627  14.577  1.00  0.00     0.097 C 
HETATM   16  C   UNL     1     -38.167 -48.863  15.056  1.00  0.00     0.016 C 
HETATM   17  C   UNL     1     -37.052 -49.881  14.889  1.00  0.00     0.016 C 
HETATM   18  C   UNL     1     -37.428 -50.614  13.606  1.00  0.00     0.097 C 
ENDBRANCH  12  14
ENDBRANCH   4   7
BRANCH   1  19
HETATM   19  C   UNL     1     -42.941 -47.927  11.279  1.00  0.00     0.159 C 
BRANCH  19  20
HETATM   20  C   UNL     1     -42.358 -46.507  10.976  1.00  0.00     0.236 C 
HETATM   21  C   UNL     1     -42.838 -46.141   9.554  1.00  0.00     0.044 C 
BRANCH  20  22
HETATM   22  N   UNL     1     -40.869 -46.472  11.067  1.00  0.00     0.098 N 
HETATM   23  C   UNL     1     -40.364 -46.434  12.467  1.00  0.00     0.299 C 
HETATM   24  C   UNL     1     -40.529 -45.074  13.165  1.00  0.00     0.198 C 
HETATM   25  O   UNL     1     -39.866 -44.037  12.430  1.00  0.00    -0.388 OA
HETATM   26  C   UNL     1     -40.372 -43.971  11.092  1.00  0.00     0.198 C 
HETATM   27  C   UNL     1     -40.231 -45.324  10.370  1.00  0.00     0.299 C 
ENDBRANCH  20  22
ENDBRANCH  19  20
ENDBRANCH   1  19
TORSDOF 5
ENDMDL
MODEL 8
REMARK VINA RESULT:      -5.9      1.558      3.320
REMARK  5 active torsions:
REMARK  status: ('A' for Active; 'I' for Inactive)
REMARK    1  A    between atoms: C_2  and  C_3 
REMARK    2  A    between atoms: C_2  and  N_20 
REMARK    3  A    between atoms: C_3  and  N_4 
REMARK       I    between atoms: N_4  and  C_5 
REMARK       I    between atoms: C_5  and  N_7 
REMARK    4  A    between atoms: N_7  and  C_8 
REMARK    5  A    between atoms: C_14  and  N_15 
ROOT
HETATM    1  N   UNL     1     -40.918 -50.193  11.331  1.00  0.00    -0.341 N 
HETATM    2  C   UNL     1     -41.724 -50.871  12.215  1.00  0.00     0.320 C 
HETATM    3  O   UNL     1     -42.099 -50.386  13.273  1.00  0.00    -0.247 OA
HETATM    4  N   UNL     1     -42.064 -52.124  11.746  1.00  0.00    -0.306 N 
HETATM    5  H   UNL     1     -40.294 -50.790  10.808  1.00  0.00     0.164 HD
HETATM    6  H   UNL     1     -42.389 -52.137  10.786  1.00  0.00     0.171 HD
ENDROOT
BRANCH   4   7
HETATM    7  C   UNL     1     -42.760 -53.020  12.596  1.00  0.00     0.075 A 
HETATM    8  C   UNL     1     -44.115 -53.270  12.360  1.00  0.00     0.034 A 
HETATM    9  C   UNL     1     -44.804 -54.142  13.189  1.00  0.00     0.019 A 
HETATM   10  C   UNL     1     -44.108 -54.723  14.229  1.00  0.00     0.089 A 
HETATM   11  N   UNL     1     -42.807 -54.475  14.503  1.00  0.00    -0.355 N 
HETATM   12  C   UNL     1     -42.120 -53.634  13.694  1.00  0.00     0.109 A 
ATOM     13  HN  UNL     1     -42.352 -54.912  15.304  1.00  0.00     0.166 HD
BRANCH  12  14
HETATM   14  N   UNL     1     -40.743 -53.417  13.931  1.00  0.00    -0.267 NA
HETATM   15  C   UNL     1     -40.430 -52.917  15.284  1.00  0.00     0.097 C 
HETATM   16  C   UNL     1     -39.081 -53.536  15.625  1.00  0.00     0.016 C 
HETATM   17  C   UNL     1     -39.154 -54.892  14.943  1.00  0.00     0.016 C 
HETATM   18  C   UNL     1     -39.907 -54.601  13.650  1.00  0.00     0.097 C 
ENDBRANCH  12  14
ENDBRANCH   4   7
BRANCH   1  19
HETATM   19  C   UNL     1     -40.409 -48.877  11.711  1.00  0.00     0.159 C 
BRANCH  19  20
HETATM   20  C   UNL     1     -40.985 -47.714  10.839  1.00  0.00     0.236 C 
HETATM   21  C   UNL     1     -40.043 -46.509  11.053  1.00  0.00     0.044 C 
BRANCH  20  22
HETATM   22  N   UNL     1     -42.391 -47.370  11.206  1.00  0.00     0.098 N 
HETATM   23  C   UNL     1     -43.368 -47.643  10.116  1.00  0.00     0.299 C 
HETATM   24  C   UNL     1     -43.327 -46.632   8.958  1.00  0.00     0.198 C 
HETATM   25  O   UNL     1     -43.558 -45.299   9.433  1.00  0.00    -0.388 OA
HETATM   26  C   UNL     1     -42.591 -44.949  10.430  1.00  0.00     0.198 C 
HETATM   27  C   UNL     1     -42.600 -45.951  11.598  1.00  0.00     0.299 C 
ENDBRANCH  20  22
ENDBRANCH  19  20
ENDBRANCH   1  19
TORSDOF 5
ENDMDL
MODEL 9
REMARK VINA RESULT:      -5.9      1.403      3.331
REMARK  5 active torsions:
REMARK  status: ('A' for Active; 'I' for Inactive)
REMARK    1  A    between atoms: C_2  and  C_3 
REMARK    2  A    between atoms: C_2  and  N_20 
REMARK    3  A    between atoms: C_3  and  N_4 
REMARK       I    between atoms: N_4  and  C_5 
REMARK       I    between atoms: C_5  and  N_7 
REMARK    4  A    between atoms: N_7  and  C_8 
REMARK    5  A    between atoms: C_14  and  N_15 
ROOT
HETATM    1  N   UNL     1     -42.087 -50.320  11.840  1.00  0.00    -0.341 N 
HETATM    2  C   UNL     1     -42.982 -50.460  12.875  1.00  0.00     0.320 C 
HETATM    3  O   UNL     1     -42.985 -49.723  13.851  1.00  0.00    -0.247 OA
HETATM    4  N   UNL     1     -43.867 -51.496  12.654  1.00  0.00    -0.306 N 
HETATM    5  H   UNL     1     -41.839 -51.192  11.395  1.00  0.00     0.164 HD
HETATM    6  H   UNL     1     -44.288 -51.497  11.732  1.00  0.00     0.171 HD
ENDROOT
BRANCH   4   7
HETATM    7  C   UNL     1     -44.758 -51.882  13.688  1.00  0.00     0.075 A 
HETATM    8  C   UNL     1     -46.001 -51.250  13.790  1.00  0.00     0.034 A 
HETATM    9  C   UNL     1     -46.876 -51.620  14.799  1.00  0.00     0.019 A 
HETATM   10  C   UNL     1     -46.466 -52.605  15.673  1.00  0.00     0.089 A 
HETATM   11  N   UNL     1     -45.258 -53.211  15.622  1.00  0.00    -0.355 N 
HETATM   12  C   UNL     1     -44.398 -52.867  14.633  1.00  0.00     0.109 A 
ATOM     13  HN  UNL     1     -44.998 -53.913  16.314  1.00  0.00     0.166 HD
BRANCH  12  14
HETATM   14  N   UNL     1     -43.159 -53.539  14.529  1.00  0.00    -0.267 NA
HETATM   15  C   UNL     1     -42.116 -53.037  15.444  1.00  0.00     0.097 C 
HETATM   16  C   UNL     1     -41.296 -54.265  15.812  1.00  0.00     0.016 C 
HETATM   17  C   UNL     1     -42.341 -55.369  15.836  1.00  0.00     0.016 C 
HETATM   18  C   UNL     1     -43.272 -55.002  14.685  1.00  0.00     0.097 C 
ENDBRANCH  12  14
ENDBRANCH   4   7
BRANCH   1  19
HETATM   19  C   UNL     1     -41.035 -49.313  11.954  1.00  0.00     0.159 C 
BRANCH  19  20
HETATM   20  C   UNL     1     -41.304 -48.036  11.089  1.00  0.00     0.236 C 
HETATM   21  C   UNL     1     -40.103 -47.095  11.331  1.00  0.00     0.044 C 
BRANCH  20  22
HETATM   22  N   UNL     1     -42.591 -47.370  11.443  1.00  0.00     0.098 N 
HETATM   23  C   UNL     1     -43.585 -47.381  10.335  1.00  0.00     0.299 C 
HETATM   24  C   UNL     1     -43.280 -46.390   9.199  1.00  0.00     0.198 C 
HETATM   25  O   UNL     1     -43.191 -45.049   9.697  1.00  0.00    -0.388 OA
HETATM   26  C   UNL     1     -42.187 -44.960  10.714  1.00  0.00     0.198 C 
HETATM   27  C   UNL     1     -42.459 -45.949  11.862  1.00  0.00     0.299 C 
ENDBRANCH  20  22
ENDBRANCH  19  20
ENDBRANCH   1  19
TORSDOF 5
ENDMDL
