MODEL 1
REMARK VINA RESULT:      -6.7      0.000      0.000
REMARK  5 active torsions:
REMARK  status: ('A' for Active; 'I' for Inactive)
REMARK    1  A    between atoms: C_2  and  C_3 
REMARK    2  A    between atoms: C_3  and  N_6 
REMARK       I    between atoms: N_6  and  C_7 
REMARK    3  A    between atoms: C_7  and  C_9 
REMARK    4  A    between atoms: C_9  and  C_10 
REMARK    5  A    between atoms: C_13  and  N_16 
ROOT
HETATM    1  C   UNL     1     -42.270 -50.008  12.227  1.00  0.00     0.026 A 
HETATM    2  C   UNL     1     -41.032 -50.536  11.915  1.00  0.00     0.078 A 
HETATM    3  S   UNL     1     -41.077 -52.243  12.063  1.00  0.00    -0.064 SA
HETATM    4  C   UNL     1     -42.693 -52.145  12.625  1.00  0.00     0.155 A 
HETATM    5  N   UNL     1     -43.215 -50.945  12.600  1.00  0.00    -0.339 N 
ATOM      6  HN  UNL     1     -44.186 -50.731  12.825  1.00  0.00     0.168 HD
ENDROOT
BRANCH   1   7
HETATM    7  C   UNL     1     -42.680 -48.576  12.225  1.00  0.00     0.160 C 
BRANCH   7   8
HETATM    8  C   UNL     1     -42.819 -47.997  10.829  1.00  0.00     0.223 C 
HETATM    9  N   UNL     1     -44.109 -47.790  10.383  1.00  0.00    -0.352 N 
HETATM   10  H   UNL     1     -44.852 -47.927  11.073  1.00  0.00     0.163 HD
HETATM   11  O   UNL     1     -41.816 -47.695  10.185  1.00  0.00    -0.273 OA
BRANCH   9  12
HETATM   12  C   UNL     1     -44.474 -47.206   9.085  1.00  0.00     0.025 C 
HETATM   13  C   UNL     1     -43.752 -47.934   7.935  1.00  0.00     0.038 C 
HETATM   14  C   UNL     1     -44.098 -45.712   9.067  1.00  0.00     0.038 C 
BRANCH  12  15
HETATM   15  C   UNL     1     -46.014 -47.298   8.877  1.00  0.00     0.026 C 
HETATM   16  C   UNL     1     -46.541 -48.643   8.387  1.00  0.00     0.007 C 
ENDBRANCH  12  15
ENDBRANCH   9  12
ENDBRANCH   7   8
ENDBRANCH   1   7
BRANCH   4  17
HETATM   17  N   UNL     1     -43.295 -53.283  13.104  1.00  0.00    -0.278 N 
HETATM   18  C   UNL     1     -42.781 -54.263  14.029  1.00  0.00     0.155 C 
HETATM   19  C   UNL     1     -44.021 -54.990  14.523  1.00  0.00     0.145 C 
HETATM   20  N   UNL     1     -45.036 -54.633  13.580  1.00  0.00    -0.341 N 
HETATM   21  C   UNL     1     -44.643 -53.535  12.814  1.00  0.00     0.324 C 
HETATM   22  H   UNL     1     -46.033 -54.798  13.687  1.00  0.00     0.164 HD
HETATM   23  O   UNL     1     -45.423 -52.949  12.080  1.00  0.00    -0.247 OA
ENDBRANCH   4  17
TORSDOF 5
ENDMDL
MODEL 2
REMARK VINA RESULT:      -6.4      1.508      1.900
REMARK  5 active torsions:
REMARK  status: ('A' for Active; 'I' for Inactive)
REMARK    1  A    between atoms: C_2  and  C_3 
REMARK    2  A    between atoms: C_3  and  N_6 
REMARK       I    between atoms: N_6  and  C_7 
REMARK    3  A    between atoms: C_7  and  C_9 
REMARK    4  A    between atoms: C_9  and  C_10 
REMARK    5  A    between atoms: C_13  and  N_16 
ROOT
HETATM    1  C   UNL     1     -41.280 -50.698  12.110  1.00  0.00     0.026 A 
HETATM    2  C   UNL     1     -40.586 -51.592  12.902  1.00  0.00     0.078 A 
HETATM    3  S   UNL     1     -41.688 -52.652  13.679  1.00  0.00    -0.064 SA
HETATM    4  C   UNL     1     -42.996 -51.785  12.992  1.00  0.00     0.155 A 
HETATM    5  N   UNL     1     -42.654 -50.843  12.150  1.00  0.00    -0.339 N 
ATOM      6  HN  UNL     1     -43.312 -50.292  11.599  1.00  0.00     0.168 HD
ENDROOT
BRANCH   1   7
HETATM    7  C   UNL     1     -40.725 -49.610  11.257  1.00  0.00     0.160 C 
BRANCH   7   8
HETATM    8  C   UNL     1     -41.723 -48.500  10.981  1.00  0.00     0.223 C 
HETATM    9  N   UNL     1     -42.204 -48.423   9.690  1.00  0.00    -0.352 N 
HETATM   10  H   UNL     1     -41.944 -49.190   9.066  1.00  0.00     0.163 HD
HETATM   11  O   UNL     1     -42.094 -47.765  11.895  1.00  0.00    -0.273 OA
BRANCH   9  12
HETATM   12  C   UNL     1     -43.203 -47.456   9.213  1.00  0.00     0.025 C 
HETATM   13  C   UNL     1     -43.487 -47.661   7.713  1.00  0.00     0.038 C 
HETATM   14  C   UNL     1     -42.690 -46.024   9.451  1.00  0.00     0.038 C 
BRANCH  12  15
HETATM   15  C   UNL     1     -44.523 -47.615  10.022  1.00  0.00     0.026 C 
HETATM   16  C   UNL     1     -45.814 -47.543   9.212  1.00  0.00     0.007 C 
ENDBRANCH  12  15
ENDBRANCH   9  12
ENDBRANCH   7   8
ENDBRANCH   1   7
BRANCH   4  17
HETATM   17  N   UNL     1     -44.273 -52.084  13.401  1.00  0.00    -0.278 N 
HETATM   18  C   UNL     1     -45.183 -51.293  14.192  1.00  0.00     0.155 C 
HETATM   19  C   UNL     1     -46.545 -51.912  13.917  1.00  0.00     0.145 C 
HETATM   20  N   UNL     1     -46.241 -53.182  13.332  1.00  0.00    -0.341 N 
HETATM   21  C   UNL     1     -44.910 -53.235  12.917  1.00  0.00     0.324 C 
HETATM   22  H   UNL     1     -46.903 -53.796  12.867  1.00  0.00     0.164 HD
HETATM   23  O   UNL     1     -44.486 -54.149  12.228  1.00  0.00    -0.247 OA
ENDBRANCH   4  17
TORSDOF 5
ENDMDL
MODEL 3
REMARK VINA RESULT:      -6.1      2.684      6.429
REMARK  5 active torsions:
REMARK  status: ('A' for Active; 'I' for Inactive)
REMARK    1  A    between atoms: C_2  and  C_3 
REMARK    2  A    between atoms: C_3  and  N_6 
REMARK       I    between atoms: N_6  and  C_7 
REMARK    3  A    between atoms: C_7  and  C_9 
REMARK    4  A    between atoms: C_9  and  C_10 
REMARK    5  A    between atoms: C_13  and  N_16 
ROOT
HETATM    1  C   UNL     1     -40.971 -51.166  12.060  1.00  0.00     0.026 A 
HETATM    2  C   UNL     1     -39.692 -51.082  12.574  1.00  0.00     0.078 A 
HETATM    3  S   UNL     1     -39.175 -49.447  12.575  1.00  0.00    -0.064 SA
HETATM    4  C   UNL     1     -40.636 -48.992  11.803  1.00  0.00     0.155 A 
HETATM    5  N   UNL     1     -41.506 -49.958  11.654  1.00  0.00    -0.339 N 
ATOM      6  HN  UNL     1     -42.449 -49.836  11.287  1.00  0.00     0.168 HD
ENDROOT
BRANCH   1   7
HETATM    7  C   UNL     1     -41.806 -52.387  11.882  1.00  0.00     0.160 C 
BRANCH   7   8
HETATM    8  C   UNL     1     -42.984 -52.448  12.835  1.00  0.00     0.223 C 
HETATM    9  N   UNL     1     -44.235 -52.328  12.265  1.00  0.00    -0.352 N 
HETATM   10  H   UNL     1     -44.266 -52.333  11.243  1.00  0.00     0.163 HD
HETATM   11  O   UNL     1     -42.795 -52.647  14.035  1.00  0.00    -0.273 OA
BRANCH   9  12
HETATM   12  C   UNL     1     -45.510 -52.399  12.992  1.00  0.00     0.025 C 
HETATM   13  C   UNL     1     -45.710 -53.797  13.609  1.00  0.00     0.038 C 
HETATM   14  C   UNL     1     -46.672 -52.088  12.030  1.00  0.00     0.038 C 
BRANCH  12  15
HETATM   15  C   UNL     1     -45.539 -51.322  14.116  1.00  0.00     0.026 C 
HETATM   16  C   UNL     1     -46.732 -51.383  15.066  1.00  0.00     0.007 C 
ENDBRANCH  12  15
ENDBRANCH   9  12
ENDBRANCH   7   8
ENDBRANCH   1   7
BRANCH   4  17
HETATM   17  N   UNL     1     -40.771 -47.701  11.354  1.00  0.00    -0.278 N 
HETATM   18  C   UNL     1     -39.966 -46.543  11.661  1.00  0.00     0.155 C 
HETATM   19  C   UNL     1     -40.291 -45.562  10.546  1.00  0.00     0.145 C 
HETATM   20  N   UNL     1     -41.489 -46.082   9.960  1.00  0.00    -0.341 N 
HETATM   21  C   UNL     1     -41.705 -47.403  10.354  1.00  0.00     0.324 C 
HETATM   22  H   UNL     1     -41.900 -45.780   9.082  1.00  0.00     0.164 HD
HETATM   23  O   UNL     1     -42.561 -48.099   9.831  1.00  0.00    -0.247 OA
ENDBRANCH   4  17
TORSDOF 5
ENDMDL
MODEL 4
REMARK VINA RESULT:      -5.7      3.935      6.671
REMARK  5 active torsions:
REMARK  status: ('A' for Active; 'I' for Inactive)
REMARK    1  A    between atoms: C_2  and  C_3 
REMARK    2  A    between atoms: C_3  and  N_6 
REMARK       I    between atoms: N_6  and  C_7 
REMARK    3  A    between atoms: C_7  and  C_9 
REMARK    4  A    between atoms: C_9  and  C_10 
REMARK    5  A    between atoms: C_13  and  N_16 
ROOT
HETATM    1  C   UNL     1     -41.338 -53.481  13.904  1.00  0.00     0.026 A 
HETATM    2  C   UNL     1     -40.584 -53.512  15.061  1.00  0.00     0.078 A 
HETATM    3  S   UNL     1     -39.357 -52.317  14.984  1.00  0.00    -0.064 SA
HETATM    4  C   UNL     1     -39.849 -51.923  13.391  1.00  0.00     0.155 A 
HETATM    5  N   UNL     1     -40.922 -52.546  12.974  1.00  0.00    -0.339 N 
ATOM      6  HN  UNL     1     -41.388 -52.366  12.085  1.00  0.00     0.168 HD
ENDROOT
BRANCH   1   7
HETATM    7  C   UNL     1     -42.504 -54.337  13.549  1.00  0.00     0.160 C 
BRANCH   7   8
HETATM    8  C   UNL     1     -43.701 -54.121  14.457  1.00  0.00     0.223 C 
HETATM    9  N   UNL     1     -44.514 -53.050  14.147  1.00  0.00    -0.352 N 
HETATM   10  H   UNL     1     -44.312 -52.572  13.265  1.00  0.00     0.163 HD
HETATM   11  O   UNL     1     -43.926 -54.908  15.375  1.00  0.00    -0.273 OA
BRANCH   9  12
HETATM   12  C   UNL     1     -45.742 -52.681  14.864  1.00  0.00     0.025 C 
HETATM   13  C   UNL     1     -45.423 -52.260  16.312  1.00  0.00     0.038 C 
HETATM   14  C   UNL     1     -46.712 -53.877  14.876  1.00  0.00     0.038 C 
BRANCH  12  15
HETATM   15  C   UNL     1     -46.457 -51.513  14.125  1.00  0.00     0.026 C 
HETATM   16  C   UNL     1     -46.491 -51.609  12.602  1.00  0.00     0.007 C 
ENDBRANCH  12  15
ENDBRANCH   9  12
ENDBRANCH   7   8
ENDBRANCH   1   7
BRANCH   4  17
HETATM   17  N   UNL     1     -39.080 -51.053  12.658  1.00  0.00    -0.278 N 
HETATM   18  C   UNL     1     -37.646 -50.895  12.649  1.00  0.00     0.155 C 
HETATM   19  C   UNL     1     -37.364 -50.155  11.351  1.00  0.00     0.145 C 
HETATM   20  N   UNL     1     -38.641 -49.641  10.957  1.00  0.00    -0.341 N 
HETATM   21  C   UNL     1     -39.670 -50.269  11.659  1.00  0.00     0.324 C 
HETATM   22  H   UNL     1     -38.866 -49.239  10.052  1.00  0.00     0.164 HD
HETATM   23  O   UNL     1     -40.843 -50.119  11.353  1.00  0.00    -0.247 OA
ENDBRANCH   4  17
TORSDOF 5
ENDMDL
MODEL 5
REMARK VINA RESULT:      -5.6      4.586      6.116
REMARK  5 active torsions:
REMARK  status: ('A' for Active; 'I' for Inactive)
REMARK    1  A    between atoms: C_2  and  C_3 
REMARK    2  A    between atoms: C_3  and  N_6 
REMARK       I    between atoms: N_6  and  C_7 
REMARK    3  A    between atoms: C_7  and  C_9 
REMARK    4  A    between atoms: C_9  and  C_10 
REMARK    5  A    between atoms: C_13  and  N_16 
ROOT
HETATM    1  C   UNL     1     -41.347 -54.030  14.913  1.00  0.00     0.026 A 
HETATM    2  C   UNL     1     -41.662 -54.268  16.237  1.00  0.00     0.078 A 
HETATM    3  S   UNL     1     -43.347 -54.060  16.478  1.00  0.00    -0.064 SA
HETATM    4  C   UNL     1     -43.513 -53.573  14.843  1.00  0.00     0.155 A 
HETATM    5  N   UNL     1     -42.423 -53.664  14.125  1.00  0.00    -0.339 N 
ATOM      6  HN  UNL     1     -42.373 -53.490  13.122  1.00  0.00     0.168 HD
ENDROOT
BRANCH   1   7
HETATM    7  C   UNL     1     -40.008 -54.102  14.265  1.00  0.00     0.160 C 
BRANCH   7   8
HETATM    8  C   UNL     1     -39.597 -52.802  13.599  1.00  0.00     0.223 C 
HETATM    9  N   UNL     1     -38.711 -52.013  14.303  1.00  0.00    -0.352 N 
HETATM   10  H   UNL     1     -38.313 -52.426  15.150  1.00  0.00     0.163 HD
HETATM   11  O   UNL     1     -40.013 -52.529  12.474  1.00  0.00    -0.273 OA
BRANCH   9  12
HETATM   12  C   UNL     1     -38.152 -50.738  13.832  1.00  0.00     0.025 C 
HETATM   13  C   UNL     1     -37.259 -50.101  14.915  1.00  0.00     0.038 C 
HETATM   14  C   UNL     1     -39.297 -49.772  13.474  1.00  0.00     0.038 C 
BRANCH  12  15
HETATM   15  C   UNL     1     -37.319 -50.969  12.537  1.00  0.00     0.026 C 
HETATM   16  C   UNL     1     -37.548 -49.967  11.410  1.00  0.00     0.007 C 
ENDBRANCH  12  15
ENDBRANCH   9  12
ENDBRANCH   7   8
ENDBRANCH   1   7
BRANCH   4  17
HETATM   17  N   UNL     1     -44.723 -53.079  14.421  1.00  0.00    -0.278 N 
HETATM   18  C   UNL     1     -45.482 -51.967  14.941  1.00  0.00     0.155 C 
HETATM   19  C   UNL     1     -46.447 -51.621  13.817  1.00  0.00     0.145 C 
HETATM   20  N   UNL     1     -46.412 -52.768  12.960  1.00  0.00    -0.341 N 
HETATM   21  C   UNL     1     -45.310 -53.574  13.250  1.00  0.00     0.324 C 
HETATM   22  H   UNL     1     -46.801 -52.822  12.024  1.00  0.00     0.164 HD
HETATM   23  O   UNL     1     -44.983 -54.500  12.525  1.00  0.00    -0.247 OA
ENDBRANCH   4  17
TORSDOF 5
ENDMDL
MODEL 6
REMARK VINA RESULT:      -5.6      2.635      3.659
REMARK  5 active torsions:
REMARK  status: ('A' for Active; 'I' for Inactive)
REMARK    1  A    between atoms: C_2  and  C_3 
REMARK    2  A    between atoms: C_3  and  N_6 
REMARK       I    between atoms: N_6  and  C_7 
REMARK    3  A    between atoms: C_7  and  C_9 
REMARK    4  A    between atoms: C_9  and  C_10 
REMARK    5  A    between atoms: C_13  and  N_16 
ROOT
HETATM    1  C   UNL     1     -41.104 -50.897  12.129  1.00  0.00     0.026 A 
HETATM    2  C   UNL     1     -40.511 -51.816  12.971  1.00  0.00     0.078 A 
HETATM    3  S   UNL     1     -41.716 -52.792  13.704  1.00  0.00    -0.064 SA
HETATM    4  C   UNL     1     -42.930 -51.859  12.933  1.00  0.00     0.155 A 
HETATM    5  N   UNL     1     -42.485 -50.957  12.096  1.00  0.00    -0.339 N 
ATOM      6  HN  UNL     1     -43.076 -50.377  11.501  1.00  0.00     0.168 HD
ENDROOT
BRANCH   1   7
HETATM    7  C   UNL     1     -40.437 -49.861  11.290  1.00  0.00     0.160 C 
BRANCH   7   8
HETATM    8  C   UNL     1     -40.902 -48.451  11.602  1.00  0.00     0.223 C 
HETATM    9  N   UNL     1     -40.343 -47.444  10.842  1.00  0.00    -0.352 N 
HETATM   10  H   UNL     1     -39.761 -47.744  10.056  1.00  0.00     0.163 HD
HETATM   11  O   UNL     1     -41.768 -48.263  12.456  1.00  0.00    -0.273 OA
BRANCH   9  12
HETATM   12  C   UNL     1     -40.676 -46.017  10.946  1.00  0.00     0.025 C 
HETATM   13  C   UNL     1     -42.061 -45.733  10.331  1.00  0.00     0.038 C 
HETATM   14  C   UNL     1     -39.607 -45.182  10.218  1.00  0.00     0.038 C 
BRANCH  12  15
HETATM   15  C   UNL     1     -40.668 -45.578  12.440  1.00  0.00     0.026 C 
HETATM   16  C   UNL     1     -39.303 -45.222  13.022  1.00  0.00     0.007 C 
ENDBRANCH  12  15
ENDBRANCH   9  12
ENDBRANCH   7   8
ENDBRANCH   1   7
BRANCH   4  17
HETATM   17  N   UNL     1     -44.242 -52.072  13.275  1.00  0.00    -0.278 N 
HETATM   18  C   UNL     1     -45.162 -51.186  13.947  1.00  0.00     0.155 C 
HETATM   19  C   UNL     1     -46.532 -51.763  13.626  1.00  0.00     0.145 C 
HETATM   20  N   UNL     1     -46.253 -53.084  13.152  1.00  0.00    -0.341 N 
HETATM   21  C   UNL     1     -44.902 -53.225  12.831  1.00  0.00     0.324 C 
HETATM   22  H   UNL     1     -46.913 -53.701  12.688  1.00  0.00     0.164 HD
HETATM   23  O   UNL     1     -44.480 -54.206  12.237  1.00  0.00    -0.247 OA
ENDBRANCH   4  17
TORSDOF 5
ENDMDL
MODEL 7
REMARK VINA RESULT:      -5.3      4.096      5.489
REMARK  5 active torsions:
REMARK  status: ('A' for Active; 'I' for Inactive)
REMARK    1  A    between atoms: C_2  and  C_3 
REMARK    2  A    between atoms: C_3  and  N_6 
REMARK       I    between atoms: N_6  and  C_7 
REMARK    3  A    between atoms: C_7  and  C_9 
REMARK    4  A    between atoms: C_9  and  C_10 
REMARK    5  A    between atoms: C_13  and  N_16 
ROOT
HETATM    1  C   UNL     1     -41.950 -53.412  13.298  1.00  0.00     0.026 A 
HETATM    2  C   UNL     1     -41.802 -54.341  14.309  1.00  0.00     0.078 A 
HETATM    3  S   UNL     1     -43.287 -54.528  15.145  1.00  0.00    -0.064 SA
HETATM    4  C   UNL     1     -43.979 -53.295  14.177  1.00  0.00     0.155 A 
HETATM    5  N   UNL     1     -43.209 -52.847  13.218  1.00  0.00    -0.339 N 
ATOM      6  HN  UNL     1     -43.499 -52.174  12.509  1.00  0.00     0.168 HD
ENDROOT
BRANCH   1   7
HETATM    7  C   UNL     1     -40.921 -52.948  12.325  1.00  0.00     0.160 C 
BRANCH   7   8
HETATM    8  C   UNL     1     -40.250 -51.652  12.739  1.00  0.00     0.223 C 
HETATM    9  N   UNL     1     -39.205 -51.228  11.944  1.00  0.00    -0.352 N 
HETATM   10  H   UNL     1     -39.054 -51.753  11.080  1.00  0.00     0.163 HD
HETATM   11  O   UNL     1     -40.676 -51.019  13.704  1.00  0.00    -0.273 OA
BRANCH   9  12
HETATM   12  C   UNL     1     -38.442 -49.986  12.136  1.00  0.00     0.025 C 
HETATM   13  C   UNL     1     -39.366 -48.757  12.040  1.00  0.00     0.038 C 
HETATM   14  C   UNL     1     -37.338 -49.888  11.067  1.00  0.00     0.038 C 
BRANCH  12  15
HETATM   15  C   UNL     1     -37.740 -50.005  13.526  1.00  0.00     0.026 C 
HETATM   16  C   UNL     1     -37.922 -48.755  14.381  1.00  0.00     0.007 C 
ENDBRANCH  12  15
ENDBRANCH   9  12
ENDBRANCH   7   8
ENDBRANCH   1   7
BRANCH   4  17
HETATM   17  N   UNL     1     -45.232 -52.831  14.495  1.00  0.00    -0.278 N 
HETATM   18  C   UNL     1     -46.168 -53.337  15.470  1.00  0.00     0.155 C 
HETATM   19  C   UNL     1     -47.129 -52.180  15.695  1.00  0.00     0.145 C 
HETATM   20  N   UNL     1     -46.890 -51.306  14.587  1.00  0.00    -0.341 N 
HETATM   21  C   UNL     1     -45.692 -51.627  13.946  1.00  0.00     0.324 C 
HETATM   22  H   UNL     1     -47.230 -50.354  14.497  1.00  0.00     0.164 HD
HETATM   23  O   UNL     1     -45.202 -50.901  13.096  1.00  0.00    -0.247 OA
ENDBRANCH   4  17
TORSDOF 5
ENDMDL
MODEL 8
REMARK VINA RESULT:      -5.2      3.892      5.920
REMARK  5 active torsions:
REMARK  status: ('A' for Active; 'I' for Inactive)
REMARK    1  A    between atoms: C_2  and  C_3 
REMARK    2  A    between atoms: C_3  and  N_6 
REMARK       I    between atoms: N_6  and  C_7 
REMARK    3  A    between atoms: C_7  and  C_9 
REMARK    4  A    between atoms: C_9  and  C_10 
REMARK    5  A    between atoms: C_13  and  N_16 
ROOT
HETATM    1  C   UNL     1     -41.499 -53.757  15.232  1.00  0.00     0.026 A 
HETATM    2  C   UNL     1     -40.533 -54.745  15.230  1.00  0.00     0.078 A 
HETATM    3  S   UNL     1     -39.094 -54.147  14.516  1.00  0.00    -0.064 SA
HETATM    4  C   UNL     1     -39.888 -52.668  14.171  1.00  0.00     0.155 A 
HETATM    5  N   UNL     1     -41.102 -52.568  14.650  1.00  0.00    -0.339 N 
ATOM      6  HN  UNL     1     -41.676 -51.727  14.602  1.00  0.00     0.168 HD
ENDROOT
BRANCH   1   7
HETATM    7  C   UNL     1     -42.890 -53.840  15.757  1.00  0.00     0.160 C 
BRANCH   7   8
HETATM    8  C   UNL     1     -43.759 -52.670  15.332  1.00  0.00     0.223 C 
HETATM    9  N   UNL     1     -44.524 -52.862  14.200  1.00  0.00    -0.352 N 
HETATM   10  H   UNL     1     -44.536 -53.811  13.819  1.00  0.00     0.163 HD
HETATM   11  O   UNL     1     -43.788 -51.646  16.012  1.00  0.00    -0.273 OA
BRANCH   9  12
HETATM   12  C   UNL     1     -45.462 -51.883  13.634  1.00  0.00     0.025 C 
HETATM   13  C   UNL     1     -44.720 -50.605  13.197  1.00  0.00     0.038 C 
HETATM   14  C   UNL     1     -46.532 -51.526  14.683  1.00  0.00     0.038 C 
BRANCH  12  15
HETATM   15  C   UNL     1     -46.202 -52.502  12.412  1.00  0.00     0.026 C 
HETATM   16  C   UNL     1     -47.086 -51.548  11.614  1.00  0.00     0.007 C 
ENDBRANCH  12  15
ENDBRANCH   9  12
ENDBRANCH   7   8
ENDBRANCH   1   7
BRANCH   4  17
HETATM   17  N   UNL     1     -39.244 -51.739  13.392  1.00  0.00    -0.278 N 
HETATM   18  C   UNL     1     -37.868 -51.307  13.443  1.00  0.00     0.155 C 
HETATM   19  C   UNL     1     -37.636 -50.654  12.089  1.00  0.00     0.145 C 
HETATM   20  N   UNL     1     -38.954 -50.437  11.575  1.00  0.00    -0.341 N 
HETATM   21  C   UNL     1     -39.896 -51.182  12.284  1.00  0.00     0.324 C 
HETATM   22  H   UNL     1     -39.183 -50.173  10.622  1.00  0.00     0.164 HD
HETATM   23  O   UNL     1     -41.050 -51.292  11.901  1.00  0.00    -0.247 OA
ENDBRANCH   4  17
TORSDOF 5
ENDMDL
MODEL 9
REMARK VINA RESULT:      -5.2      2.838      4.208
REMARK  5 active torsions:
REMARK  status: ('A' for Active; 'I' for Inactive)
REMARK    1  A    between atoms: C_2  and  C_3 
REMARK    2  A    between atoms: C_3  and  N_6 
REMARK       I    between atoms: N_6  and  C_7 
REMARK    3  A    between atoms: C_7  and  C_9 
REMARK    4  A    between atoms: C_9  and  C_10 
REMARK    5  A    between atoms: C_13  and  N_16 
ROOT
HETATM    1  C   UNL     1     -41.688 -53.305  13.056  1.00  0.00     0.026 A 
HETATM    2  C   UNL     1     -41.214 -54.159  14.032  1.00  0.00     0.078 A 
HETATM    3  S   UNL     1     -42.523 -54.745  14.973  1.00  0.00    -0.064 SA
HETATM    4  C   UNL     1     -43.598 -53.748  14.086  1.00  0.00     0.155 A 
HETATM    5  N   UNL     1     -43.056 -53.106  13.082  1.00  0.00    -0.339 N 
ATOM      6  HN  UNL     1     -43.572 -52.538  12.412  1.00  0.00     0.168 HD
ENDROOT
BRANCH   1   7
HETATM    7  C   UNL     1     -40.904 -52.578  12.018  1.00  0.00     0.160 C 
BRANCH   7   8
HETATM    8  C   UNL     1     -40.733 -51.102  12.326  1.00  0.00     0.223 C 
HETATM    9  N   UNL     1     -41.308 -50.224  11.430  1.00  0.00    -0.352 N 
HETATM   10  H   UNL     1     -41.902 -50.640  10.709  1.00  0.00     0.163 HD
HETATM   11  O   UNL     1     -40.153 -50.750  13.352  1.00  0.00    -0.273 OA
BRANCH   9  12
HETATM   12  C   UNL     1     -41.300 -48.759  11.552  1.00  0.00     0.025 C 
HETATM   13  C   UNL     1     -42.143 -48.308  12.761  1.00  0.00     0.038 C 
HETATM   14  C   UNL     1     -41.865 -48.130  10.265  1.00  0.00     0.038 C 
BRANCH  12  15
HETATM   15  C   UNL     1     -39.838 -48.249  11.714  1.00  0.00     0.026 C 
HETATM   16  C   UNL     1     -39.622 -47.171  12.771  1.00  0.00     0.007 C 
ENDBRANCH  12  15
ENDBRANCH   9  12
ENDBRANCH   7   8
ENDBRANCH   1   7
BRANCH   4  17
HETATM   17  N   UNL     1     -44.901 -53.644  14.507  1.00  0.00    -0.278 N 
HETATM   18  C   UNL     1     -45.579 -52.515  15.096  1.00  0.00     0.155 C 
HETATM   19  C   UNL     1     -47.054 -52.832  14.910  1.00  0.00     0.145 C 
HETATM   20  N   UNL     1     -47.076 -54.229  14.600  1.00  0.00    -0.341 N 
HETATM   21  C   UNL     1     -45.805 -54.682  14.245  1.00  0.00     0.324 C 
HETATM   22  H   UNL     1     -47.875 -54.748  14.248  1.00  0.00     0.164 HD
HETATM   23  O   UNL     1     -45.627 -55.791  13.766  1.00  0.00    -0.247 OA
ENDBRANCH   4  17
TORSDOF 5
ENDMDL
