MODEL 1
REMARK VINA RESULT:      -7.2      0.000      0.000
REMARK  4 active torsions:
REMARK  status: ('A' for Active; 'I' for Inactive)
REMARK       I    between atoms: C_2  and  N_3 
REMARK    1  A    between atoms: C_2  and  C_13 
REMARK    2  A    between atoms: N_3  and  C_4 
REMARK    3  A    between atoms: C_4  and  C_5 
REMARK    4  A    between atoms: C_5  and  C_6 
ROOT
HETATM    1  C   UNL     1     -42.660 -50.475  12.538  1.00  0.00     0.047 A 
HETATM    2  C   UNL     1     -43.827 -50.621  13.199  1.00  0.00     0.109 A 
HETATM    3  N   UNL     1     -44.346 -51.862  13.587  1.00  0.00    -0.341 N 
HETATM    4  C   UNL     1     -45.576 -51.943  14.373  1.00  0.00     0.146 C 
HETATM    5  C   UNL     1     -46.317 -53.212  14.052  1.00  0.00     0.183 C 
HETATM    6  S   UNL     1     -45.268 -54.566  14.467  1.00  0.00     0.233 S 
HETATM    7  O   UNL     1     -45.006 -54.489  15.891  1.00  0.00    -0.206 OA
HETATM    8  O   UNL     1     -45.877 -55.754  13.903  1.00  0.00    -0.206 OA
HETATM    9  N   UNL     1     -43.913 -54.240  13.658  1.00  0.00    -0.270 N 
ATOM     10  HN  UNL     1     -43.290 -55.003  13.393  1.00  0.00     0.180 HD
HETATM   11  C   UNL     1     -43.602 -53.023  13.340  1.00  0.00     0.116 A 
HETATM   12  C   UNL     1     -42.293 -52.892  12.616  1.00  0.00     0.050 A 
HETATM   13  C   UNL     1     -41.872 -51.669  12.261  1.00  0.00     0.022 A 
ENDROOT
BRANCH   1  14
HETATM   14  C   UNL     1     -42.208 -49.086  12.193  1.00  0.00     0.253 C 
HETATM   15  O   UNL     1     -41.923 -48.266  13.060  1.00  0.00    -0.268 OA
HETATM   16  N   UNL     1     -42.183 -48.797  10.845  1.00  0.00    -0.357 N 
HETATM   17  H   UNL     1     -42.624 -49.433  10.196  1.00  0.00     0.162 HD
BRANCH  16  18
HETATM   18  C   UNL     1     -41.816 -47.472  10.376  1.00  0.00     0.127 C 
BRANCH  18  19
HETATM   19  C   UNL     1     -43.040 -46.584  10.137  1.00  0.00     0.060 C 
BRANCH  19  20
HETATM   20  C   UNL     1     -44.068 -47.263   9.277  1.00  0.00    -0.041 A 
HETATM   21  C   UNL     1     -45.372 -47.476   9.733  1.00  0.00     0.010 A 
HETATM   22  C   UNL     1     -46.285 -48.145   8.922  1.00  0.00     0.018 A 
HETATM   23  C   UNL     1     -45.863 -48.581   7.678  1.00  0.00     0.087 A 
HETATM   24  N   UNL     1     -44.614 -48.391   7.201  1.00  0.00    -0.375 N 
HETATM   25  C   UNL     1     -43.748 -47.741   8.009  1.00  0.00     0.094 A 
ATOM     26  HN  UNL     1     -44.338 -48.723   6.277  1.00  0.00     0.164 HD
ENDBRANCH  19  20
ENDBRANCH  18  19
ENDBRANCH  16  18
ENDBRANCH   1  14
TORSDOF 4
ENDMDL
MODEL 2
REMARK VINA RESULT:      -7.1      1.291      2.029
REMARK  4 active torsions:
REMARK  status: ('A' for Active; 'I' for Inactive)
REMARK       I    between atoms: C_2  and  N_3 
REMARK    1  A    between atoms: C_2  and  C_13 
REMARK    2  A    between atoms: N_3  and  C_4 
REMARK    3  A    between atoms: C_4  and  C_5 
REMARK    4  A    between atoms: C_5  and  C_6 
ROOT
HETATM    1  C   UNL     1     -42.422 -50.363  12.667  1.00  0.00     0.047 A 
HETATM    2  C   UNL     1     -42.016 -51.650  12.697  1.00  0.00     0.109 A 
HETATM    3  N   UNL     1     -42.564 -52.614  13.550  1.00  0.00    -0.341 N 
HETATM    4  C   UNL     1     -42.134 -54.010  13.473  1.00  0.00     0.146 C 
HETATM    5  C   UNL     1     -42.229 -54.660  14.826  1.00  0.00     0.183 C 
HETATM    6  S   UNL     1     -43.916 -54.594  15.335  1.00  0.00     0.233 S 
HETATM    7  O   UNL     1     -44.689 -55.346  14.367  1.00  0.00    -0.206 OA
HETATM    8  O   UNL     1     -43.943 -54.969  16.736  1.00  0.00    -0.206 OA
HETATM    9  N   UNL     1     -44.277 -53.029  15.207  1.00  0.00    -0.270 N 
ATOM     10  HN  UNL     1     -45.023 -52.637  15.781  1.00  0.00     0.180 HD
HETATM   11  C   UNL     1     -43.633 -52.262  14.385  1.00  0.00     0.116 A 
HETATM   12  C   UNL     1     -44.116 -50.840  14.366  1.00  0.00     0.050 A 
HETATM   13  C   UNL     1     -43.526 -49.970  13.532  1.00  0.00     0.022 A 
ENDROOT
BRANCH   1  14
HETATM   14  C   UNL     1     -41.761 -49.432  11.692  1.00  0.00     0.253 C 
HETATM   15  O   UNL     1     -40.541 -49.375  11.581  1.00  0.00    -0.268 OA
HETATM   16  N   UNL     1     -42.621 -48.629  10.975  1.00  0.00    -0.357 N 
HETATM   17  H   UNL     1     -43.590 -48.570  11.255  1.00  0.00     0.162 HD
BRANCH  16  18
HETATM   18  C   UNL     1     -42.110 -47.644  10.037  1.00  0.00     0.127 C 
BRANCH  18  19
HETATM   19  C   UNL     1     -43.201 -46.685   9.554  1.00  0.00     0.060 C 
BRANCH  19  20
HETATM   20  C   UNL     1     -44.346 -47.414   8.909  1.00  0.00    -0.041 A 
HETATM   21  C   UNL     1     -45.588 -47.523   9.542  1.00  0.00     0.010 A 
HETATM   22  C   UNL     1     -46.612 -48.240   8.930  1.00  0.00     0.018 A 
HETATM   23  C   UNL     1     -46.360 -48.829   7.703  1.00  0.00     0.087 A 
HETATM   24  N   UNL     1     -45.177 -48.744   7.060  1.00  0.00    -0.375 N 
HETATM   25  C   UNL     1     -44.200 -48.042   7.675  1.00  0.00     0.094 A 
ATOM     26  HN  UNL     1     -45.027 -49.187   6.153  1.00  0.00     0.164 HD
ENDBRANCH  19  20
ENDBRANCH  18  19
ENDBRANCH  16  18
ENDBRANCH   1  14
TORSDOF 4
ENDMDL
MODEL 3
REMARK VINA RESULT:      -6.7      3.040      3.673
REMARK  4 active torsions:
REMARK  status: ('A' for Active; 'I' for Inactive)
REMARK       I    between atoms: C_2  and  N_3 
REMARK    1  A    between atoms: C_2  and  C_13 
REMARK    2  A    between atoms: N_3  and  C_4 
REMARK    3  A    between atoms: C_4  and  C_5 
REMARK    4  A    between atoms: C_5  and  C_6 
ROOT
HETATM    1  C   UNL     1     -40.229 -48.643  11.718  1.00  0.00     0.047 A 
HETATM    2  C   UNL     1     -41.066 -49.685  11.899  1.00  0.00     0.109 A 
HETATM    3  N   UNL     1     -40.681 -50.891  12.497  1.00  0.00    -0.341 N 
HETATM    4  C   UNL     1     -41.660 -51.950  12.737  1.00  0.00     0.146 C 
HETATM    5  C   UNL     1     -40.998 -53.299  12.660  1.00  0.00     0.183 C 
HETATM    6  S   UNL     1     -39.754 -53.358  13.907  1.00  0.00     0.233 S 
HETATM    7  O   UNL     1     -40.417 -53.202  15.186  1.00  0.00    -0.206 OA
HETATM    8  O   UNL     1     -38.953 -54.537  13.642  1.00  0.00    -0.206 OA
HETATM    9  N   UNL     1     -38.867 -52.047  13.602  1.00  0.00    -0.270 N 
ATOM     10  HN  UNL     1     -37.890 -52.023  13.892  1.00  0.00     0.180 HD
HETATM   11  C   UNL     1     -39.378 -51.023  12.995  1.00  0.00     0.116 A 
HETATM   12  C   UNL     1     -38.426 -49.875  12.819  1.00  0.00     0.050 A 
HETATM   13  C   UNL     1     -38.866 -48.759  12.218  1.00  0.00     0.022 A 
ENDROOT
BRANCH   1  14
HETATM   14  C   UNL     1     -40.772 -47.399  11.076  1.00  0.00     0.253 C 
HETATM   15  O   UNL     1     -40.038 -46.485  10.716  1.00  0.00    -0.268 OA
HETATM   16  N   UNL     1     -42.146 -47.349  10.965  1.00  0.00    -0.357 N 
HETATM   17  H   UNL     1     -42.705 -48.027  11.462  1.00  0.00     0.162 HD
BRANCH  16  18
HETATM   18  C   UNL     1     -42.805 -46.179  10.412  1.00  0.00     0.127 C 
BRANCH  18  19
HETATM   19  C   UNL     1     -43.043 -46.307   8.906  1.00  0.00     0.060 C 
BRANCH  19  20
HETATM   20  C   UNL     1     -44.267 -47.123   8.597  1.00  0.00    -0.041 A 
HETATM   21  C   UNL     1     -45.436 -46.994   9.353  1.00  0.00     0.010 A 
HETATM   22  C   UNL     1     -46.537 -47.795   9.062  1.00  0.00     0.018 A 
HETATM   23  C   UNL     1     -46.432 -48.703   8.023  1.00  0.00     0.087 A 
HETATM   24  N   UNL     1     -45.323 -48.855   7.269  1.00  0.00    -0.375 N 
HETATM   25  C   UNL     1     -44.269 -48.065   7.573  1.00  0.00     0.094 A 
ATOM     26  HN  UNL     1     -45.282 -49.532   6.506  1.00  0.00     0.164 HD
ENDBRANCH  19  20
ENDBRANCH  18  19
ENDBRANCH  16  18
ENDBRANCH   1  14
TORSDOF 4
ENDMDL
MODEL 4
REMARK VINA RESULT:      -6.6      3.689      7.461
REMARK  4 active torsions:
REMARK  status: ('A' for Active; 'I' for Inactive)
REMARK       I    between atoms: C_2  and  N_3 
REMARK    1  A    between atoms: C_2  and  C_13 
REMARK    2  A    between atoms: N_3  and  C_4 
REMARK    3  A    between atoms: C_4  and  C_5 
REMARK    4  A    between atoms: C_5  and  C_6 
ROOT
HETATM    1  C   UNL     1     -42.070 -50.450  12.506  1.00  0.00     0.047 A 
HETATM    2  C   UNL     1     -42.706 -49.265  12.611  1.00  0.00     0.109 A 
HETATM    3  N   UNL     1     -42.234 -48.081  12.035  1.00  0.00    -0.341 N 
HETATM    4  C   UNL     1     -43.016 -46.848  12.118  1.00  0.00     0.146 C 
HETATM    5  C   UNL     1     -42.103 -45.652  12.139  1.00  0.00     0.183 C 
HETATM    6  S   UNL     1     -41.177 -45.657  10.640  1.00  0.00     0.233 S 
HETATM    7  O   UNL     1     -42.123 -45.541   9.548  1.00  0.00    -0.206 OA
HETATM    8  O   UNL     1     -40.123 -44.674  10.797  1.00  0.00    -0.206 OA
HETATM    9  N   UNL     1     -40.519 -47.128  10.621  1.00  0.00    -0.270 N 
ATOM     10  HN  UNL     1     -39.652 -47.284  10.106  1.00  0.00     0.180 HD
HETATM   11  C   UNL     1     -41.073 -48.115  11.251  1.00  0.00     0.116 A 
HETATM   12  C   UNL     1     -40.348 -49.422  11.105  1.00  0.00     0.050 A 
HETATM   13  C   UNL     1     -40.855 -50.510  11.705  1.00  0.00     0.022 A 
ENDROOT
BRANCH   1  14
HETATM   14  C   UNL     1     -42.691 -51.650  13.160  1.00  0.00     0.253 C 
HETATM   15  O   UNL     1     -42.614 -51.837  14.370  1.00  0.00    -0.268 OA
HETATM   16  N   UNL     1     -43.307 -52.533  12.299  1.00  0.00    -0.357 N 
HETATM   17  H   UNL     1     -43.158 -52.437  11.305  1.00  0.00     0.162 HD
BRANCH  16  18
HETATM   18  C   UNL     1     -43.901 -53.763  12.795  1.00  0.00     0.127 C 
BRANCH  18  19
HETATM   19  C   UNL     1     -45.429 -53.692  12.835  1.00  0.00     0.060 C 
BRANCH  19  20
HETATM   20  C   UNL     1     -45.931 -53.115  14.129  1.00  0.00    -0.041 A 
HETATM   21  C   UNL     1     -46.544 -51.860  14.176  1.00  0.00     0.010 A 
HETATM   22  C   UNL     1     -46.960 -51.341  15.400  1.00  0.00     0.018 A 
HETATM   23  C   UNL     1     -46.748 -52.096  16.540  1.00  0.00     0.087 A 
HETATM   24  N   UNL     1     -46.163 -53.313  16.535  1.00  0.00    -0.375 N 
HETATM   25  C   UNL     1     -45.768 -53.792  15.335  1.00  0.00     0.094 A 
ATOM     26  HN  UNL     1     -46.026 -53.845  17.395  1.00  0.00     0.164 HD
ENDBRANCH  19  20
ENDBRANCH  18  19
ENDBRANCH  16  18
ENDBRANCH   1  14
TORSDOF 4
ENDMDL
MODEL 5
REMARK VINA RESULT:      -6.3      2.541      3.165
REMARK  4 active torsions:
REMARK  status: ('A' for Active; 'I' for Inactive)
REMARK       I    between atoms: C_2  and  N_3 
REMARK    1  A    between atoms: C_2  and  C_13 
REMARK    2  A    between atoms: N_3  and  C_4 
REMARK    3  A    between atoms: C_4  and  C_5 
REMARK    4  A    between atoms: C_5  and  C_6 
ROOT
HETATM    1  C   UNL     1     -41.264 -51.614  12.514  1.00  0.00     0.047 A 
HETATM    2  C   UNL     1     -42.557 -51.404  12.836  1.00  0.00     0.109 A 
HETATM    3  N   UNL     1     -43.420 -52.416  13.271  1.00  0.00    -0.341 N 
HETATM    4  C   UNL     1     -44.789 -52.104  13.682  1.00  0.00     0.146 C 
HETATM    5  C   UNL     1     -45.698 -53.267  13.391  1.00  0.00     0.183 C 
HETATM    6  S   UNL     1     -45.111 -54.651  14.311  1.00  0.00     0.233 S 
HETATM    7  O   UNL     1     -45.188 -54.299  15.715  1.00  0.00    -0.206 OA
HETATM    8  O   UNL     1     -45.820 -55.814  13.813  1.00  0.00    -0.206 OA
HETATM    9  N   UNL     1     -43.565 -54.755  13.871  1.00  0.00    -0.270 N 
ATOM     10  HN  UNL     1     -43.086 -55.653  13.927  1.00  0.00     0.180 HD
HETATM   11  C   UNL     1     -42.921 -53.714  13.447  1.00  0.00     0.116 A 
HETATM   12  C   UNL     1     -41.481 -53.977  13.109  1.00  0.00     0.050 A 
HETATM   13  C   UNL     1     -40.723 -52.956  12.680  1.00  0.00     0.022 A 
ENDROOT
BRANCH   1  14
HETATM   14  C   UNL     1     -40.441 -50.438  12.075  1.00  0.00     0.253 C 
HETATM   15  O   UNL     1     -40.418 -50.068  10.905  1.00  0.00    -0.268 OA
HETATM   16  N   UNL     1     -39.693 -49.843  13.068  1.00  0.00    -0.357 N 
HETATM   17  H   UNL     1     -39.590 -50.313  13.956  1.00  0.00     0.162 HD
BRANCH  16  18
HETATM   18  C   UNL     1     -38.811 -48.728  12.768  1.00  0.00     0.127 C 
BRANCH  18  19
HETATM   19  C   UNL     1     -39.394 -47.390  13.225  1.00  0.00     0.060 C 
BRANCH  19  20
HETATM   20  C   UNL     1     -40.410 -46.857  12.254  1.00  0.00    -0.041 A 
HETATM   21  C   UNL     1     -41.777 -46.888  12.542  1.00  0.00     0.010 A 
HETATM   22  C   UNL     1     -42.691 -46.422  11.600  1.00  0.00     0.018 A 
HETATM   23  C   UNL     1     -42.205 -45.941  10.396  1.00  0.00     0.087 A 
HETATM   24  N   UNL     1     -40.893 -45.892  10.083  1.00  0.00    -0.375 N 
HETATM   25  C   UNL     1     -40.029 -46.351  11.014  1.00  0.00     0.094 A 
ATOM     26  HN  UNL     1     -40.570 -45.527   9.186  1.00  0.00     0.164 HD
ENDBRANCH  19  20
ENDBRANCH  18  19
ENDBRANCH  16  18
ENDBRANCH   1  14
TORSDOF 4
ENDMDL
MODEL 6
REMARK VINA RESULT:      -6.3      4.087      7.768
REMARK  4 active torsions:
REMARK  status: ('A' for Active; 'I' for Inactive)
REMARK       I    between atoms: C_2  and  N_3 
REMARK    1  A    between atoms: C_2  and  C_13 
REMARK    2  A    between atoms: N_3  and  C_4 
REMARK    3  A    between atoms: C_4  and  C_5 
REMARK    4  A    between atoms: C_5  and  C_6 
ROOT
HETATM    1  C   UNL     1     -40.620 -49.702  12.145  1.00  0.00     0.047 A 
HETATM    2  C   UNL     1     -41.351 -48.903  11.341  1.00  0.00     0.109 A 
HETATM    3  N   UNL     1     -41.122 -47.530  11.199  1.00  0.00    -0.341 N 
HETATM    4  C   UNL     1     -41.900 -46.738  10.247  1.00  0.00     0.146 C 
HETATM    5  C   UNL     1     -42.049 -45.326  10.744  1.00  0.00     0.183 C 
HETATM    6  S   UNL     1     -40.434 -44.636  10.896  1.00  0.00     0.233 S 
HETATM    7  O   UNL     1     -39.838 -44.639   9.575  1.00  0.00    -0.206 OA
HETATM    8  O   UNL     1     -40.579 -43.392  11.627  1.00  0.00    -0.206 OA
HETATM    9  N   UNL     1     -39.667 -45.703  11.829  1.00  0.00    -0.270 N 
ATOM     10  HN  UNL     1     -38.875 -45.398  12.394  1.00  0.00     0.180 HD
HETATM   11  C   UNL     1     -40.043 -46.942  11.873  1.00  0.00     0.116 A 
HETATM   12  C   UNL     1     -39.202 -47.808  12.766  1.00  0.00     0.050 A 
HETATM   13  C   UNL     1     -39.498 -49.113  12.864  1.00  0.00     0.022 A 
ENDROOT
BRANCH   1  14
HETATM   14  C   UNL     1     -40.961 -51.163  12.195  1.00  0.00     0.253 C 
HETATM   15  O   UNL     1     -40.092 -52.026  12.256  1.00  0.00    -0.268 OA
HETATM   16  N   UNL     1     -42.307 -51.453  12.125  1.00  0.00    -0.357 N 
HETATM   17  H   UNL     1     -42.956 -50.723  11.867  1.00  0.00     0.162 HD
BRANCH  16  18
HETATM   18  C   UNL     1     -42.771 -52.829  12.110  1.00  0.00     0.127 C 
BRANCH  18  19
HETATM   19  C   UNL     1     -43.050 -53.361  13.517  1.00  0.00     0.060 C 
BRANCH  19  20
HETATM   20  C   UNL     1     -44.500 -53.230  13.891  1.00  0.00    -0.041 A 
HETATM   21  C   UNL     1     -45.040 -52.004  14.290  1.00  0.00     0.010 A 
HETATM   22  C   UNL     1     -46.378 -51.930  14.668  1.00  0.00     0.018 A 
HETATM   23  C   UNL     1     -47.135 -53.089  14.635  1.00  0.00     0.087 A 
HETATM   24  N   UNL     1     -46.651 -54.290  14.252  1.00  0.00    -0.375 N 
HETATM   25  C   UNL     1     -45.349 -54.333  13.892  1.00  0.00     0.094 A 
ATOM     26  HN  UNL     1     -47.239 -55.123  14.235  1.00  0.00     0.164 HD
ENDBRANCH  19  20
ENDBRANCH  18  19
ENDBRANCH  16  18
ENDBRANCH   1  14
TORSDOF 4
ENDMDL
MODEL 7
REMARK VINA RESULT:      -6.3      4.244      7.733
REMARK  4 active torsions:
REMARK  status: ('A' for Active; 'I' for Inactive)
REMARK       I    between atoms: C_2  and  N_3 
REMARK    1  A    between atoms: C_2  and  C_13 
REMARK    2  A    between atoms: N_3  and  C_4 
REMARK    3  A    between atoms: C_4  and  C_5 
REMARK    4  A    between atoms: C_5  and  C_6 
ROOT
HETATM    1  C   UNL     1     -41.514 -48.556  11.534  1.00  0.00     0.047 A 
HETATM    2  C   UNL     1     -40.627 -47.558  11.732  1.00  0.00     0.109 A 
HETATM    3  N   UNL     1     -40.947 -46.202  11.602  1.00  0.00    -0.341 N 
HETATM    4  C   UNL     1     -39.959 -45.169  11.912  1.00  0.00     0.146 C 
HETATM    5  C   UNL     1     -40.191 -43.953  11.058  1.00  0.00     0.183 C 
HETATM    6  S   UNL     1     -41.806 -43.345  11.419  1.00  0.00     0.233 S 
HETATM    7  O   UNL     1     -41.825 -42.979  12.821  1.00  0.00    -0.206 OA
HETATM    8  O   UNL     1     -42.115 -42.355  10.405  1.00  0.00    -0.206 OA
HETATM    9  N   UNL     1     -42.743 -44.635  11.191  1.00  0.00    -0.270 N 
ATOM     10  HN  UNL     1     -43.726 -44.507  10.948  1.00  0.00     0.180 HD
HETATM   11  C   UNL     1     -42.268 -45.834  11.312  1.00  0.00     0.116 A 
HETATM   12  C   UNL     1     -43.281 -46.922  11.098  1.00  0.00     0.050 A 
HETATM   13  C   UNL     1     -42.891 -48.200  11.222  1.00  0.00     0.022 A 
ENDROOT
BRANCH   1  14
HETATM   14  C   UNL     1     -41.045 -49.970  11.719  1.00  0.00     0.253 C 
HETATM   15  O   UNL     1     -39.856 -50.266  11.678  1.00  0.00    -0.268 OA
HETATM   16  N   UNL     1     -42.048 -50.900  11.893  1.00  0.00    -0.357 N 
HETATM   17  H   UNL     1     -43.004 -50.634  11.711  1.00  0.00     0.162 HD
BRANCH  16  18
HETATM   18  C   UNL     1     -41.735 -52.313  12.030  1.00  0.00     0.127 C 
BRANCH  18  19
HETATM   19  C   UNL     1     -42.403 -52.937  13.257  1.00  0.00     0.060 C 
BRANCH  19  20
HETATM   20  C   UNL     1     -43.848 -52.542  13.372  1.00  0.00    -0.041 A 
HETATM   21  C   UNL     1     -44.268 -51.580  14.296  1.00  0.00     0.010 A 
HETATM   22  C   UNL     1     -45.622 -51.269  14.401  1.00  0.00     0.018 A 
HETATM   23  C   UNL     1     -46.514 -51.934  13.577  1.00  0.00     0.087 A 
HETATM   24  N   UNL     1     -46.147 -52.865  12.671  1.00  0.00    -0.375 N 
HETATM   25  C   UNL     1     -44.828 -53.148  12.591  1.00  0.00     0.094 A 
ATOM     26  HN  UNL     1     -46.832 -53.332  12.077  1.00  0.00     0.164 HD
ENDBRANCH  19  20
ENDBRANCH  18  19
ENDBRANCH  16  18
ENDBRANCH   1  14
TORSDOF 4
ENDMDL
MODEL 8
REMARK VINA RESULT:      -6.1      3.764      8.329
REMARK  4 active torsions:
REMARK  status: ('A' for Active; 'I' for Inactive)
REMARK       I    between atoms: C_2  and  N_3 
REMARK    1  A    between atoms: C_2  and  C_13 
REMARK    2  A    between atoms: N_3  and  C_4 
REMARK    3  A    between atoms: C_4  and  C_5 
REMARK    4  A    between atoms: C_5  and  C_6 
ROOT
HETATM    1  C   UNL     1     -42.749 -49.283  13.146  1.00  0.00     0.047 A 
HETATM    2  C   UNL     1     -42.539 -48.998  11.845  1.00  0.00     0.109 A 
HETATM    3  N   UNL     1     -42.567 -47.699  11.323  1.00  0.00    -0.341 N 
HETATM    4  C   UNL     1     -42.248 -47.453   9.917  1.00  0.00     0.146 C 
HETATM    5  C   UNL     1     -43.012 -46.260   9.410  1.00  0.00     0.183 C 
HETATM    6  S   UNL     1     -42.528 -44.865  10.373  1.00  0.00     0.233 S 
HETATM    7  O   UNL     1     -41.107 -44.670  10.166  1.00  0.00    -0.206 OA
HETATM    8  O   UNL     1     -43.461 -43.800  10.062  1.00  0.00    -0.206 OA
HETATM    9  N   UNL     1     -42.784 -45.357  11.886  1.00  0.00    -0.270 N 
ATOM     10  HN  UNL     1     -42.966 -44.667  12.615  1.00  0.00     0.180 HD
HETATM   11  C   UNL     1     -42.763 -46.616  12.190  1.00  0.00     0.116 A 
HETATM   12  C   UNL     1     -42.988 -46.900  13.647  1.00  0.00     0.050 A 
HETATM   13  C   UNL     1     -42.965 -48.175  14.067  1.00  0.00     0.022 A 
ENDROOT
BRANCH   1  14
HETATM   14  C   UNL     1     -42.677 -50.718  13.580  1.00  0.00     0.253 C 
HETATM   15  O   UNL     1     -42.536 -51.029  14.758  1.00  0.00    -0.268 OA
HETATM   16  N   UNL     1     -42.737 -51.642  12.558  1.00  0.00    -0.357 N 
HETATM   17  H   UNL     1     -42.642 -51.328  11.604  1.00  0.00     0.162 HD
BRANCH  16  18
HETATM   18  C   UNL     1     -42.623 -53.064  12.835  1.00  0.00     0.127 C 
BRANCH  18  19
HETATM   19  C   UNL     1     -41.207 -53.589  12.592  1.00  0.00     0.060 C 
BRANCH  19  20
HETATM   20  C   UNL     1     -40.626 -54.228  13.821  1.00  0.00    -0.041 A 
HETATM   21  C   UNL     1     -41.415 -54.498  14.943  1.00  0.00     0.010 A 
HETATM   22  C   UNL     1     -40.832 -55.054  16.079  1.00  0.00     0.018 A 
HETATM   23  C   UNL     1     -39.474 -55.321  16.056  1.00  0.00     0.087 A 
HETATM   24  N   UNL     1     -38.680 -55.078  14.992  1.00  0.00    -0.375 N 
HETATM   25  C   UNL     1     -39.271 -54.537  13.904  1.00  0.00     0.094 A 
ATOM     26  HN  UNL     1     -37.682 -55.292  15.009  1.00  0.00     0.164 HD
ENDBRANCH  19  20
ENDBRANCH  18  19
ENDBRANCH  16  18
ENDBRANCH   1  14
TORSDOF 4
ENDMDL
MODEL 9
REMARK VINA RESULT:      -6.1      2.969      3.946
REMARK  4 active torsions:
REMARK  status: ('A' for Active; 'I' for Inactive)
REMARK       I    between atoms: C_2  and  N_3 
REMARK    1  A    between atoms: C_2  and  C_13 
REMARK    2  A    between atoms: N_3  and  C_4 
REMARK    3  A    between atoms: C_4  and  C_5 
REMARK    4  A    between atoms: C_5  and  C_6 
ROOT
HETATM    1  C   UNL     1     -41.970 -50.186  12.563  1.00  0.00     0.047 A 
HETATM    2  C   UNL     1     -41.751 -51.515  12.639  1.00  0.00     0.109 A 
HETATM    3  N   UNL     1     -42.672 -52.421  13.177  1.00  0.00    -0.341 N 
HETATM    4  C   UNL     1     -42.405 -53.859  13.153  1.00  0.00     0.146 C 
HETATM    5  C   UNL     1     -43.045 -54.529  14.338  1.00  0.00     0.183 C 
HETATM    6  S   UNL     1     -44.784 -54.254  14.234  1.00  0.00     0.233 S 
HETATM    7  O   UNL     1     -45.245 -54.870  13.005  1.00  0.00    -0.206 OA
HETATM    8  O   UNL     1     -45.347 -54.660  15.507  1.00  0.00    -0.206 OA
HETATM    9  N   UNL     1     -44.894 -52.652  14.102  1.00  0.00    -0.270 N 
ATOM     10  HN  UNL     1     -45.745 -52.180  14.408  1.00  0.00     0.180 HD
HETATM   11  C   UNL     1     -43.919 -51.954  13.612  1.00  0.00     0.116 A 
HETATM   12  C   UNL     1     -44.198 -50.481  13.530  1.00  0.00     0.050 A 
HETATM   13  C   UNL     1     -43.256 -49.674  13.018  1.00  0.00     0.022 A 
ENDROOT
BRANCH   1  14
HETATM   14  C   UNL     1     -40.906 -49.324  11.949  1.00  0.00     0.253 C 
HETATM   15  O   UNL     1     -40.096 -49.774  11.146  1.00  0.00    -0.268 OA
HETATM   16  N   UNL     1     -40.886 -48.017  12.387  1.00  0.00    -0.357 N 
HETATM   17  H   UNL     1     -41.435 -47.759  13.194  1.00  0.00     0.162 HD
BRANCH  16  18
HETATM   18  C   UNL     1     -39.873 -47.090  11.913  1.00  0.00     0.127 C 
BRANCH  18  19
HETATM   19  C   UNL     1     -40.327 -46.325  10.667  1.00  0.00     0.060 C 
BRANCH  19  20
HETATM   20  C   UNL     1     -40.954 -45.004  11.016  1.00  0.00    -0.041 A 
HETATM   21  C   UNL     1     -40.182 -43.848  11.162  1.00  0.00     0.010 A 
HETATM   22  C   UNL     1     -40.794 -42.651  11.524  1.00  0.00     0.018 A 
HETATM   23  C   UNL     1     -42.162 -42.650  11.731  1.00  0.00     0.087 A 
HETATM   24  N   UNL     1     -42.942 -43.744  11.597  1.00  0.00    -0.375 N 
HETATM   25  C   UNL     1     -42.322 -44.892  11.246  1.00  0.00     0.094 A 
ATOM     26  HN  UNL     1     -43.949 -43.705  11.753  1.00  0.00     0.164 HD
ENDBRANCH  19  20
ENDBRANCH  18  19
ENDBRANCH  16  18
ENDBRANCH   1  14
TORSDOF 4
ENDMDL
