MODEL 1
REMARK VINA RESULT:      -5.6      0.000      0.000
REMARK  4 active torsions:
REMARK  status: ('A' for Active; 'I' for Inactive)
REMARK       I    between atoms: C_2  and  N_3 
REMARK       I    between atoms: C_2  and  N_13 
REMARK    1  A    between atoms: N_3  and  C_4 
REMARK    2  A    between atoms: C_4  and  C_5 
REMARK    3  A    between atoms: C_5  and  C_6 
REMARK    4  A    between atoms: N_13  and  C_14 
ROOT
HETATM    1  O   UNL     1     -42.249 -52.187  13.876  1.00  0.00    -0.247 OA
HETATM    2  C   UNL     1     -42.227 -52.220  12.655  1.00  0.00     0.316 C 
HETATM    3  N   UNL     1     -43.169 -52.857  11.882  1.00  0.00    -0.343 N 
HETATM    4  N   UNL     1     -41.291 -51.596  11.870  1.00  0.00    -0.339 N 
HETATM    5  H   UNL     1     -42.803 -53.249  11.027  1.00  0.00     0.164 HD
HETATM    6  H   UNL     1     -41.550 -51.481  10.901  1.00  0.00     0.164 HD
ENDROOT
BRANCH   3   7
HETATM    7  C   UNL     1     -44.277 -53.576  12.496  1.00  0.00     0.129 C 
BRANCH   7   8
HETATM    8  C   UNL     1     -45.537 -52.715  12.638  1.00  0.00     0.060 C 
BRANCH   8   9
HETATM    9  C   UNL     1     -45.957 -52.537  14.070  1.00  0.00    -0.041 A 
HETATM   10  C   UNL     1     -46.770 -51.469  14.459  1.00  0.00     0.010 A 
HETATM   11  C   UNL     1     -47.156 -51.343  15.789  1.00  0.00     0.018 A 
HETATM   12  C   UNL     1     -46.705 -52.289  16.694  1.00  0.00     0.087 A 
HETATM   13  N   UNL     1     -45.907 -53.327  16.362  1.00  0.00    -0.375 N 
HETATM   14  C   UNL     1     -45.553 -53.428  15.060  1.00  0.00     0.094 A 
ATOM     15  HN  UNL     1     -45.586 -54.001  17.057  1.00  0.00     0.164 HD
ENDBRANCH   8   9
ENDBRANCH   7   8
ENDBRANCH   3   7
BRANCH   4  16
HETATM   16  C   UNL     1     -40.279 -50.693  12.386  1.00  0.00     0.086 C 
HETATM   17  C   UNL     1     -39.695 -49.717  11.355  1.00  0.00     0.025 C 
HETATM   18  C   UNL     1     -38.178 -49.787  11.524  1.00  0.00     0.002 C 
HETATM   19  C   UNL     1     -37.963 -50.362  12.914  1.00  0.00     0.002 C 
HETATM   20  C   UNL     1     -39.079 -51.387  13.041  1.00  0.00     0.025 C 
ENDBRANCH   4  16
TORSDOF 4
ENDMDL
MODEL 2
REMARK VINA RESULT:      -5.6      3.590      4.879
REMARK  4 active torsions:
REMARK  status: ('A' for Active; 'I' for Inactive)
REMARK       I    between atoms: C_2  and  N_3 
REMARK       I    between atoms: C_2  and  N_13 
REMARK    1  A    between atoms: N_3  and  C_4 
REMARK    2  A    between atoms: C_4  and  C_5 
REMARK    3  A    between atoms: C_5  and  C_6 
REMARK    4  A    between atoms: N_13  and  C_14 
ROOT
HETATM    1  O   UNL     1     -43.033 -48.816  13.016  1.00  0.00    -0.247 OA
HETATM    2  C   UNL     1     -42.583 -49.230  11.958  1.00  0.00     0.316 C 
HETATM    3  N   UNL     1     -41.961 -50.446  11.806  1.00  0.00    -0.343 N 
HETATM    4  N   UNL     1     -42.665 -48.569  10.759  1.00  0.00    -0.339 N 
HETATM    5  H   UNL     1     -41.227 -50.450  11.112  1.00  0.00     0.164 HD
HETATM    6  H   UNL     1     -42.501 -49.138   9.942  1.00  0.00     0.164 HD
ENDROOT
BRANCH   3   7
HETATM    7  C   UNL     1     -41.774 -51.337  12.942  1.00  0.00     0.129 C 
BRANCH   7   8
HETATM    8  C   UNL     1     -41.831 -52.818  12.552  1.00  0.00     0.060 C 
BRANCH   8   9
HETATM    9  C   UNL     1     -43.072 -53.502  13.055  1.00  0.00    -0.041 A 
HETATM   10  C   UNL     1     -43.014 -54.432  14.097  1.00  0.00     0.010 A 
HETATM   11  C   UNL     1     -44.183 -55.033  14.551  1.00  0.00     0.018 A 
HETATM   12  C   UNL     1     -45.377 -54.690  13.939  1.00  0.00     0.087 A 
HETATM   13  N   UNL     1     -45.473 -53.808  12.920  1.00  0.00    -0.375 N 
HETATM   14  C   UNL     1     -44.321 -53.235  12.503  1.00  0.00     0.094 A 
ATOM     15  HN  UNL     1     -46.369 -53.586  12.486  1.00  0.00     0.164 HD
ENDBRANCH   8   9
ENDBRANCH   7   8
ENDBRANCH   3   7
BRANCH   4  16
HETATM   16  C   UNL     1     -43.425 -47.350  10.561  1.00  0.00     0.086 C 
HETATM   17  C   UNL     1     -44.828 -47.548   9.968  1.00  0.00     0.025 C 
HETATM   18  C   UNL     1     -44.951 -46.532   8.834  1.00  0.00     0.002 C 
HETATM   19  C   UNL     1     -43.892 -45.482   9.130  1.00  0.00     0.002 C 
HETATM   20  C   UNL     1     -42.735 -46.303   9.678  1.00  0.00     0.025 C 
ENDBRANCH   4  16
TORSDOF 4
ENDMDL
MODEL 3
REMARK VINA RESULT:      -5.5      5.142      7.560
REMARK  4 active torsions:
REMARK  status: ('A' for Active; 'I' for Inactive)
REMARK       I    between atoms: C_2  and  N_3 
REMARK       I    between atoms: C_2  and  N_13 
REMARK    1  A    between atoms: N_3  and  C_4 
REMARK    2  A    between atoms: C_4  and  C_5 
REMARK    3  A    between atoms: C_5  and  C_6 
REMARK    4  A    between atoms: N_13  and  C_14 
ROOT
HETATM    1  O   UNL     1     -41.279 -48.286  12.048  1.00  0.00    -0.247 OA
HETATM    2  C   UNL     1     -41.182 -48.702  10.903  1.00  0.00     0.316 C 
HETATM    3  N   UNL     1     -40.381 -49.754  10.527  1.00  0.00    -0.343 N 
HETATM    4  N   UNL     1     -41.885 -48.215   9.830  1.00  0.00    -0.339 N 
HETATM    5  H   UNL     1     -39.997 -49.668   9.597  1.00  0.00     0.164 HD
HETATM    6  H   UNL     1     -41.911 -48.819   9.022  1.00  0.00     0.164 HD
ENDROOT
BRANCH   3   7
HETATM    7  C   UNL     1     -39.552 -50.447  11.503  1.00  0.00     0.129 C 
BRANCH   7   8
HETATM    8  C   UNL     1     -38.183 -49.785  11.696  1.00  0.00     0.060 C 
BRANCH   8   9
HETATM    9  C   UNL     1     -37.893 -49.468  13.137  1.00  0.00    -0.041 A 
HETATM   10  C   UNL     1     -37.414 -50.447  14.012  1.00  0.00     0.010 A 
HETATM   11  C   UNL     1     -37.138 -50.116  15.334  1.00  0.00     0.018 A 
HETATM   12  C   UNL     1     -37.360 -48.812  15.744  1.00  0.00     0.087 A 
HETATM   13  N   UNL     1     -37.836 -47.840  14.933  1.00  0.00    -0.375 N 
HETATM   14  C   UNL     1     -38.089 -48.190  13.651  1.00  0.00     0.094 A 
ATOM     15  HN  UNL     1     -37.996 -46.891  15.271  1.00  0.00     0.164 HD
ENDBRANCH   8   9
ENDBRANCH   7   8
ENDBRANCH   3   7
BRANCH   4  16
HETATM   16  C   UNL     1     -42.944 -47.230   9.941  1.00  0.00     0.086 C 
HETATM   17  C   UNL     1     -44.299 -47.784  10.404  1.00  0.00     0.025 C 
HETATM   18  C   UNL     1     -45.338 -47.212   9.442  1.00  0.00     0.002 C 
HETATM   19  C   UNL     1     -44.669 -45.999   8.816  1.00  0.00     0.002 C 
HETATM   20  C   UNL     1     -43.225 -46.447   8.653  1.00  0.00     0.025 C 
ENDBRANCH   4  16
TORSDOF 4
ENDMDL
MODEL 4
REMARK VINA RESULT:      -5.5      1.687      2.355
REMARK  4 active torsions:
REMARK  status: ('A' for Active; 'I' for Inactive)
REMARK       I    between atoms: C_2  and  N_3 
REMARK       I    between atoms: C_2  and  N_13 
REMARK    1  A    between atoms: N_3  and  C_4 
REMARK    2  A    between atoms: C_4  and  C_5 
REMARK    3  A    between atoms: C_5  and  C_6 
REMARK    4  A    between atoms: N_13  and  C_14 
ROOT
HETATM    1  O   UNL     1     -43.299 -53.285  13.835  1.00  0.00    -0.247 OA
HETATM    2  C   UNL     1     -43.481 -52.941  12.677  1.00  0.00     0.316 C 
HETATM    3  N   UNL     1     -44.718 -52.697  12.129  1.00  0.00    -0.343 N 
HETATM    4  N   UNL     1     -42.485 -52.703  11.763  1.00  0.00    -0.339 N 
HETATM    5  H   UNL     1     -44.788 -52.932  11.149  1.00  0.00     0.164 HD
HETATM    6  H   UNL     1     -42.764 -52.172  10.952  1.00  0.00     0.164 HD
ENDROOT
BRANCH   3   7
HETATM    7  C   UNL     1     -45.930 -52.863  12.917  1.00  0.00     0.129 C 
BRANCH   7   8
HETATM    8  C   UNL     1     -46.537 -51.528  13.363  1.00  0.00     0.060 C 
BRANCH   8   9
HETATM    9  C   UNL     1     -46.403 -51.298  14.843  1.00  0.00    -0.041 A 
HETATM   10  C   UNL     1     -47.480 -51.512  15.708  1.00  0.00     0.010 A 
HETATM   11  C   UNL     1     -47.317 -51.308  17.075  1.00  0.00     0.018 A 
HETATM   12  C   UNL     1     -46.081 -50.884  17.532  1.00  0.00     0.087 A 
HETATM   13  N   UNL     1     -45.021 -50.652  16.726  1.00  0.00    -0.375 N 
HETATM   14  C   UNL     1     -45.206 -50.866  15.404  1.00  0.00     0.094 A 
ATOM     15  HN  UNL     1     -44.126 -50.332  17.097  1.00  0.00     0.164 HD
ENDBRANCH   8   9
ENDBRANCH   7   8
ENDBRANCH   3   7
BRANCH   4  16
HETATM   16  C   UNL     1     -41.073 -52.695  12.095  1.00  0.00     0.086 C 
HETATM   17  C   UNL     1     -40.587 -53.911  12.897  1.00  0.00     0.025 C 
HETATM   18  C   UNL     1     -39.759 -53.349  14.050  1.00  0.00     0.002 C 
HETATM   19  C   UNL     1     -39.369 -51.948  13.608  1.00  0.00     0.002 C 
HETATM   20  C   UNL     1     -40.608 -51.459  12.874  1.00  0.00     0.025 C 
ENDBRANCH   4  16
TORSDOF 4
ENDMDL
MODEL 5
REMARK VINA RESULT:      -5.5      2.405      3.126
REMARK  4 active torsions:
REMARK  status: ('A' for Active; 'I' for Inactive)
REMARK       I    between atoms: C_2  and  N_3 
REMARK       I    between atoms: C_2  and  N_13 
REMARK    1  A    between atoms: N_3  and  C_4 
REMARK    2  A    between atoms: C_4  and  C_5 
REMARK    3  A    between atoms: C_5  and  C_6 
REMARK    4  A    between atoms: N_13  and  C_14 
ROOT
HETATM    1  O   UNL     1     -42.449 -50.090  13.511  1.00  0.00    -0.247 OA
HETATM    2  C   UNL     1     -42.189 -50.412  12.361  1.00  0.00     0.316 C 
HETATM    3  N   UNL     1     -42.194 -51.707  11.901  1.00  0.00    -0.343 N 
HETATM    4  N   UNL     1     -41.895 -49.534  11.349  1.00  0.00    -0.339 N 
HETATM    5  H   UNL     1     -41.512 -51.891  11.180  1.00  0.00     0.164 HD
HETATM    6  H   UNL     1     -41.972 -49.912  10.416  1.00  0.00     0.164 HD
ENDROOT
BRANCH   3   7
HETATM    7  C   UNL     1     -42.499 -52.816  12.794  1.00  0.00     0.129 C 
BRANCH   7   8
HETATM    8  C   UNL     1     -43.725 -53.620  12.346  1.00  0.00     0.060 C 
BRANCH   8   9
HETATM    9  C   UNL     1     -44.933 -53.357  13.202  1.00  0.00    -0.041 A 
HETATM   10  C   UNL     1     -45.408 -52.058  13.403  1.00  0.00     0.010 A 
HETATM   11  C   UNL     1     -46.540 -51.851  14.185  1.00  0.00     0.018 A 
HETATM   12  C   UNL     1     -47.156 -52.954  14.752  1.00  0.00     0.087 A 
HETATM   13  N   UNL     1     -46.719 -54.223  14.594  1.00  0.00    -0.375 N 
HETATM   14  C   UNL     1     -45.621 -54.395  13.823  1.00  0.00     0.094 A 
ATOM     15  HN  UNL     1     -47.193 -55.012  15.034  1.00  0.00     0.164 HD
ENDBRANCH   8   9
ENDBRANCH   7   8
ENDBRANCH   3   7
BRANCH   4  16
HETATM   16  C   UNL     1     -41.993 -48.093  11.478  1.00  0.00     0.086 C 
HETATM   17  C   UNL     1     -43.203 -47.459  10.776  1.00  0.00     0.025 C 
HETATM   18  C   UNL     1     -42.656 -46.271   9.988  1.00  0.00     0.002 C 
HETATM   19  C   UNL     1     -41.320 -45.949  10.637  1.00  0.00     0.002 C 
HETATM   20  C   UNL     1     -40.764 -47.322  10.982  1.00  0.00     0.025 C 
ENDBRANCH   4  16
TORSDOF 4
ENDMDL
MODEL 6
REMARK VINA RESULT:      -5.3      1.928      6.440
REMARK  4 active torsions:
REMARK  status: ('A' for Active; 'I' for Inactive)
REMARK       I    between atoms: C_2  and  N_3 
REMARK       I    between atoms: C_2  and  N_13 
REMARK    1  A    between atoms: N_3  and  C_4 
REMARK    2  A    between atoms: C_4  and  C_5 
REMARK    3  A    between atoms: C_5  and  C_6 
REMARK    4  A    between atoms: N_13  and  C_14 
ROOT
HETATM    1  O   UNL     1     -43.284 -52.311  13.936  1.00  0.00    -0.247 OA
HETATM    2  C   UNL     1     -43.446 -52.445  12.732  1.00  0.00     0.316 C 
HETATM    3  N   UNL     1     -42.424 -52.470  11.813  1.00  0.00    -0.343 N 
HETATM    4  N   UNL     1     -44.660 -52.631  12.120  1.00  0.00    -0.339 N 
HETATM    5  H   UNL     1     -42.666 -52.074  10.916  1.00  0.00     0.164 HD
HETATM    6  H   UNL     1     -44.616 -52.994  11.180  1.00  0.00     0.164 HD
ENDROOT
BRANCH   3   7
HETATM    7  C   UNL     1     -41.039 -52.311  12.232  1.00  0.00     0.129 C 
BRANCH   7   8
HETATM    8  C   UNL     1     -40.751 -50.924  12.819  1.00  0.00     0.060 C 
BRANCH   8   9
HETATM    9  C   UNL     1     -41.374 -49.816  12.016  1.00  0.00    -0.041 A 
HETATM   10  C   UNL     1     -42.462 -49.089  12.508  1.00  0.00     0.010 A 
HETATM   11  C   UNL     1     -43.003 -48.058  11.748  1.00  0.00     0.018 A 
HETATM   12  C   UNL     1     -42.443 -47.793  10.509  1.00  0.00     0.087 A 
HETATM   13  N   UNL     1     -41.401 -48.482   9.992  1.00  0.00    -0.375 N 
HETATM   14  C   UNL     1     -40.892 -49.474  10.757  1.00  0.00     0.094 A 
ATOM     15  HN  UNL     1     -41.019 -48.265   9.072  1.00  0.00     0.164 HD
ENDBRANCH   8   9
ENDBRANCH   7   8
ENDBRANCH   3   7
BRANCH   4  16
HETATM   16  C   UNL     1     -45.902 -52.836  12.840  1.00  0.00     0.086 C 
HETATM   17  C   UNL     1     -46.505 -51.571  13.468  1.00  0.00     0.025 C 
HETATM   18  C   UNL     1     -46.864 -51.946  14.904  1.00  0.00     0.002 C 
HETATM   19  C   UNL     1     -46.948 -53.463  14.905  1.00  0.00     0.002 C 
HETATM   20  C   UNL     1     -45.824 -53.873  13.966  1.00  0.00     0.025 C 
ENDBRANCH   4  16
TORSDOF 4
ENDMDL
MODEL 7
REMARK VINA RESULT:      -5.3      2.421      6.446
REMARK  4 active torsions:
REMARK  status: ('A' for Active; 'I' for Inactive)
REMARK       I    between atoms: C_2  and  N_3 
REMARK       I    between atoms: C_2  and  N_13 
REMARK    1  A    between atoms: N_3  and  C_4 
REMARK    2  A    between atoms: C_4  and  C_5 
REMARK    3  A    between atoms: C_5  and  C_6 
REMARK    4  A    between atoms: N_13  and  C_14 
ROOT
HETATM    1  O   UNL     1     -43.318 -52.296  13.843  1.00  0.00    -0.247 OA
HETATM    2  C   UNL     1     -43.519 -52.572  12.669  1.00  0.00     0.316 C 
HETATM    3  N   UNL     1     -42.525 -52.809  11.750  1.00  0.00    -0.343 N 
HETATM    4  N   UNL     1     -44.758 -52.730  12.102  1.00  0.00    -0.339 N 
HETATM    5  H   UNL     1     -42.754 -52.515  10.811  1.00  0.00     0.164 HD
HETATM    6  H   UNL     1     -44.768 -53.216  11.218  1.00  0.00     0.164 HD
ENDROOT
BRANCH   3   7
HETATM    7  C   UNL     1     -41.121 -52.719  12.127  1.00  0.00     0.129 C 
BRANCH   7   8
HETATM    8  C   UNL     1     -40.603 -53.997  12.795  1.00  0.00     0.060 C 
BRANCH   8   9
HETATM    9  C   UNL     1     -39.945 -53.730  14.120  1.00  0.00    -0.041 A 
HETATM   10  C   UNL     1     -39.439 -54.773  14.900  1.00  0.00     0.010 A 
HETATM   11  C   UNL     1     -38.820 -54.491  16.113  1.00  0.00     0.018 A 
HETATM   12  C   UNL     1     -38.735 -53.168  16.513  1.00  0.00     0.087 A 
HETATM   13  N   UNL     1     -39.225 -52.133  15.795  1.00  0.00    -0.375 N 
HETATM   14  C   UNL     1     -39.815 -52.437  14.618  1.00  0.00     0.094 A 
ATOM     15  HN  UNL     1     -39.152 -51.170  16.125  1.00  0.00     0.164 HD
ENDBRANCH   8   9
ENDBRANCH   7   8
ENDBRANCH   3   7
BRANCH   4  16
HETATM   16  C   UNL     1     -45.996 -52.727  12.858  1.00  0.00     0.086 C 
HETATM   17  C   UNL     1     -46.440 -51.350  13.371  1.00  0.00     0.025 C 
HETATM   18  C   UNL     1     -46.800 -51.547  14.842  1.00  0.00     0.002 C 
HETATM   19  C   UNL     1     -47.050 -53.039  14.990  1.00  0.00     0.002 C 
HETATM   20  C   UNL     1     -46.002 -53.656  14.077  1.00  0.00     0.025 C 
ENDBRANCH   4  16
TORSDOF 4
ENDMDL
MODEL 8
REMARK VINA RESULT:      -5.2      3.550      6.758
REMARK  4 active torsions:
REMARK  status: ('A' for Active; 'I' for Inactive)
REMARK       I    between atoms: C_2  and  N_3 
REMARK       I    between atoms: C_2  and  N_13 
REMARK    1  A    between atoms: N_3  and  C_4 
REMARK    2  A    between atoms: C_4  and  C_5 
REMARK    3  A    between atoms: C_5  and  C_6 
REMARK    4  A    between atoms: N_13  and  C_14 
ROOT
HETATM    1  O   UNL     1     -42.923 -51.079  13.628  1.00  0.00    -0.247 OA
HETATM    2  C   UNL     1     -42.513 -51.309  12.500  1.00  0.00     0.316 C 
HETATM    3  N   UNL     1     -41.975 -50.359  11.665  1.00  0.00    -0.343 N 
HETATM    4  N   UNL     1     -42.489 -52.548  11.912  1.00  0.00    -0.339 N 
HETATM    5  H   UNL     1     -42.160 -50.518  10.685  1.00  0.00     0.164 HD
HETATM    6  H   UNL     1     -41.885 -52.630  11.107  1.00  0.00     0.164 HD
ENDROOT
BRANCH   3   7
HETATM    7  C   UNL     1     -41.877 -48.967  12.082  1.00  0.00     0.129 C 
BRANCH   7   8
HETATM    8  C   UNL     1     -41.237 -48.071  11.015  1.00  0.00     0.060 C 
BRANCH   8   9
HETATM    9  C   UNL     1     -42.249 -47.241  10.275  1.00  0.00    -0.041 A 
HETATM   10  C   UNL     1     -42.930 -47.749   9.166  1.00  0.00     0.010 A 
HETATM   11  C   UNL     1     -43.874 -46.961   8.515  1.00  0.00     0.018 A 
HETATM   12  C   UNL     1     -44.099 -45.681   8.991  1.00  0.00     0.087 A 
HETATM   13  N   UNL     1     -43.451 -45.148  10.051  1.00  0.00    -0.375 N 
HETATM   14  C   UNL     1     -42.544 -45.939  10.668  1.00  0.00     0.094 A 
ATOM     15  HN  UNL     1     -43.636 -44.197  10.369  1.00  0.00     0.164 HD
ENDBRANCH   8   9
ENDBRANCH   7   8
ENDBRANCH   3   7
BRANCH   4  16
HETATM   16  C   UNL     1     -42.817 -53.777  12.608  1.00  0.00     0.086 C 
HETATM   17  C   UNL     1     -44.308 -53.965  12.927  1.00  0.00     0.025 C 
HETATM   18  C   UNL     1     -44.374 -54.382  14.394  1.00  0.00     0.002 C 
HETATM   19  C   UNL     1     -42.986 -54.909  14.716  1.00  0.00     0.002 C 
HETATM   20  C   UNL     1     -42.072 -53.979  13.933  1.00  0.00     0.025 C 
ENDBRANCH   4  16
TORSDOF 4
ENDMDL
MODEL 9
REMARK VINA RESULT:      -5.2      2.374      6.993
REMARK  4 active torsions:
REMARK  status: ('A' for Active; 'I' for Inactive)
REMARK       I    between atoms: C_2  and  N_3 
REMARK       I    between atoms: C_2  and  N_13 
REMARK    1  A    between atoms: N_3  and  C_4 
REMARK    2  A    between atoms: C_4  and  C_5 
REMARK    3  A    between atoms: C_5  and  C_6 
REMARK    4  A    between atoms: N_13  and  C_14 
ROOT
HETATM    1  O   UNL     1     -46.261 -51.903  14.328  1.00  0.00    -0.247 OA
HETATM    2  C   UNL     1     -46.430 -52.662  15.271  1.00  0.00     0.316 C 
HETATM    3  N   UNL     1     -46.092 -53.994  15.260  1.00  0.00    -0.343 N 
HETATM    4  N   UNL     1     -46.940 -52.296  16.491  1.00  0.00    -0.339 N 
HETATM    5  H   UNL     1     -46.705 -54.579  15.810  1.00  0.00     0.164 HD
HETATM    6  H   UNL     1     -46.768 -52.948  17.242  1.00  0.00     0.164 HD
ENDROOT
BRANCH   3   7
HETATM    7  C   UNL     1     -45.512 -54.608  14.074  1.00  0.00     0.129 C 
BRANCH   7   8
HETATM    8  C   UNL     1     -44.052 -55.027  14.276  1.00  0.00     0.060 C 
BRANCH   8   9
HETATM    9  C   UNL     1     -43.091 -54.163  13.507  1.00  0.00    -0.041 A 
HETATM   10  C   UNL     1     -41.714 -54.231  13.737  1.00  0.00     0.010 A 
HETATM   11  C   UNL     1     -40.851 -53.432  12.995  1.00  0.00     0.018 A 
HETATM   12  C   UNL     1     -41.396 -52.578  12.051  1.00  0.00     0.087 A 
HETATM   13  N   UNL     1     -42.722 -52.473  11.810  1.00  0.00    -0.375 N 
HETATM   14  C   UNL     1     -43.536 -53.267  12.541  1.00  0.00     0.094 A 
ATOM     15  HN  UNL     1     -43.090 -51.826  11.112  1.00  0.00     0.164 HD
ENDBRANCH   8   9
ENDBRANCH   7   8
ENDBRANCH   3   7
BRANCH   4  16
HETATM   16  C   UNL     1     -47.216 -50.923  16.870  1.00  0.00     0.086 C 
HETATM   17  C   UNL     1     -46.018 -50.157  17.449  1.00  0.00     0.025 C 
HETATM   18  C   UNL     1     -46.529 -49.475  18.717  1.00  0.00     0.002 C 
HETATM   19  C   UNL     1     -48.039 -49.432  18.558  1.00  0.00     0.002 C 
HETATM   20  C   UNL     1     -48.355 -50.757  17.882  1.00  0.00     0.025 C 
ENDBRANCH   4  16
TORSDOF 4
ENDMDL
