MODEL 1
REMARK VINA RESULT:      -6.0      0.000      0.000
REMARK  7 active torsions:
REMARK  status: ('A' for Active; 'I' for Inactive)
REMARK    1  A    between atoms: O_2  and  C_3 
REMARK    2  A    between atoms: C_3  and  C_4 
REMARK    3  A    between atoms: C_4  and  N_5 
REMARK    4  A    between atoms: C_6  and  S_7 
REMARK    5  A    between atoms: S_7  and  C_8 
REMARK    6  A    between atoms: C_8  and  C_9 
REMARK       I    between atoms: C_9  and  N_11 
REMARK    7  A    between atoms: N_11  and  C_12 
ROOT
HETATM    1  N   UNL     1     -41.724 -47.487  11.161  1.00  0.00    -0.324 N 
HETATM    2  C   UNL     1     -42.217 -48.583  11.829  1.00  0.00     0.148 A 
HETATM    3  N   UNL     1     -43.471 -48.824  11.519  1.00  0.00    -0.335 N 
ATOM      4  HN  UNL     1     -44.066 -49.569  11.882  1.00  0.00     0.168 HD
HETATM    5  C   UNL     1     -43.810 -47.858  10.601  1.00  0.00     0.061 A 
HETATM    6  C   UNL     1     -45.024 -47.647   9.928  1.00  0.00     0.032 A 
HETATM    7  C   UNL     1     -45.124 -46.578   9.025  1.00  0.00     0.002 A 
HETATM    8  C   UNL     1     -44.038 -45.734   8.796  1.00  0.00     0.002 A 
HETATM    9  C   UNL     1     -42.816 -45.937   9.445  1.00  0.00     0.032 A 
HETATM   10  C   UNL     1     -42.739 -47.007  10.352  1.00  0.00     0.063 A 
ENDROOT
BRANCH   2  11
HETATM   11  S   UNL     1     -41.268 -49.536  12.933  1.00  0.00    -0.084 SA
BRANCH  11  12
HETATM   12  C   UNL     1     -40.559 -50.788  11.817  1.00  0.00     0.185 C 
BRANCH  12  13
HETATM   13  C   UNL     1     -41.000 -52.186  12.235  1.00  0.00     0.227 C 
HETATM   14  O   UNL     1     -40.206 -53.120  12.332  1.00  0.00    -0.273 OA
HETATM   15  N   UNL     1     -42.340 -52.306  12.562  1.00  0.00    -0.356 N 
HETATM   16  H   UNL     1     -42.959 -51.573  12.238  1.00  0.00     0.162 HD
BRANCH  15  17
HETATM   17  C   UNL     1     -42.920 -53.584  12.929  1.00  0.00     0.084 C 
HETATM   18  C   UNL     1     -44.399 -53.705  12.548  1.00  0.00     0.025 C 
HETATM   19  C   UNL     1     -45.030 -54.625  13.599  1.00  0.00     0.002 C 
HETATM   20  C   UNL     1     -43.921 -54.965  14.589  1.00  0.00     0.002 C 
HETATM   21  C   UNL     1     -42.919 -53.830  14.435  1.00  0.00     0.025 C 
ENDBRANCH  15  17
ENDBRANCH  12  13
ENDBRANCH  11  12
ENDBRANCH   2  11
BRANCH   1  22
HETATM   22  C   UNL     1     -40.387 -46.932  11.189  1.00  0.00     0.157 C 
BRANCH  22  23
HETATM   23  C   UNL     1     -40.167 -45.916  12.309  1.00  0.00     0.187 C 
BRANCH  23  24
HETATM   24  O   UNL     1     -40.365 -44.603  11.779  1.00  0.00    -0.394 OA
HETATM   25  C   UNL     1     -39.714 -44.439  10.525  1.00  0.00     0.201 C 
ENDBRANCH  23  24
ENDBRANCH  22  23
ENDBRANCH   1  22
TORSDOF 7
ENDMDL
MODEL 2
REMARK VINA RESULT:      -5.9      1.894      6.977
REMARK  7 active torsions:
REMARK  status: ('A' for Active; 'I' for Inactive)
REMARK    1  A    between atoms: O_2  and  C_3 
REMARK    2  A    between atoms: C_3  and  C_4 
REMARK    3  A    between atoms: C_4  and  N_5 
REMARK    4  A    between atoms: C_6  and  S_7 
REMARK    5  A    between atoms: S_7  and  C_8 
REMARK    6  A    between atoms: C_8  and  C_9 
REMARK       I    between atoms: C_9  and  N_11 
REMARK    7  A    between atoms: N_11  and  C_12 
ROOT
HETATM    1  N   UNL     1     -42.051 -52.021  12.684  1.00  0.00    -0.324 N 
HETATM    2  C   UNL     1     -42.166 -50.651  12.687  1.00  0.00     0.148 A 
HETATM    3  N   UNL     1     -43.402 -50.262  12.905  1.00  0.00    -0.335 N 
ATOM      4  HN  UNL     1     -43.751 -49.304  12.945  1.00  0.00     0.168 HD
HETATM    5  C   UNL     1     -44.124 -51.421  13.065  1.00  0.00     0.061 A 
HETATM    6  C   UNL     1     -45.492 -51.597  13.330  1.00  0.00     0.032 A 
HETATM    7  C   UNL     1     -46.000 -52.898  13.452  1.00  0.00     0.002 A 
HETATM    8  C   UNL     1     -45.164 -54.006  13.314  1.00  0.00     0.002 A 
HETATM    9  C   UNL     1     -43.796 -53.851  13.064  1.00  0.00     0.032 A 
HETATM   10  C   UNL     1     -43.309 -52.541  12.936  1.00  0.00     0.063 A 
ENDROOT
BRANCH   2  11
HETATM   11  S   UNL     1     -40.816 -49.578  12.451  1.00  0.00    -0.084 SA
BRANCH  11  12
HETATM   12  C   UNL     1     -41.235 -48.812  10.854  1.00  0.00     0.185 C 
BRANCH  12  13
HETATM   13  C   UNL     1     -42.508 -47.982  10.978  1.00  0.00     0.227 C 
HETATM   14  O   UNL     1     -42.703 -47.223  11.926  1.00  0.00    -0.273 OA
HETATM   15  N   UNL     1     -43.389 -48.094   9.916  1.00  0.00    -0.356 N 
HETATM   16  H   UNL     1     -43.273 -48.895   9.308  1.00  0.00     0.162 HD
BRANCH  15  17
HETATM   17  C   UNL     1     -44.666 -47.407   9.914  1.00  0.00     0.084 C 
HETATM   18  C   UNL     1     -45.843 -48.324   9.565  1.00  0.00     0.025 C 
HETATM   19  C   UNL     1     -46.872 -47.437   8.856  1.00  0.00     0.002 C 
HETATM   20  C   UNL     1     -46.246 -46.050   8.761  1.00  0.00     0.002 C 
HETATM   21  C   UNL     1     -44.749 -46.306   8.860  1.00  0.00     0.025 C 
ENDBRANCH  15  17
ENDBRANCH  12  13
ENDBRANCH  11  12
ENDBRANCH   2  11
BRANCH   1  22
HETATM   22  C   UNL     1     -40.861 -52.833  12.531  1.00  0.00     0.157 C 
BRANCH  22  23
HETATM   23  C   UNL     1     -39.985 -52.878  13.781  1.00  0.00     0.187 C 
BRANCH  23  24
HETATM   24  O   UNL     1     -38.981 -53.881  13.599  1.00  0.00    -0.394 OA
HETATM   25  C   UNL     1     -39.007 -54.846  14.643  1.00  0.00     0.201 C 
ENDBRANCH  23  24
ENDBRANCH  22  23
ENDBRANCH   1  22
TORSDOF 7
ENDMDL
MODEL 3
REMARK VINA RESULT:      -5.8      2.591      3.262
REMARK  7 active torsions:
REMARK  status: ('A' for Active; 'I' for Inactive)
REMARK    1  A    between atoms: O_2  and  C_3 
REMARK    2  A    between atoms: C_3  and  C_4 
REMARK    3  A    between atoms: C_4  and  N_5 
REMARK    4  A    between atoms: C_6  and  S_7 
REMARK    5  A    between atoms: S_7  and  C_8 
REMARK    6  A    between atoms: C_8  and  C_9 
REMARK       I    between atoms: C_9  and  N_11 
REMARK    7  A    between atoms: N_11  and  C_12 
ROOT
HETATM    1  N   UNL     1     -39.816 -48.709  12.005  1.00  0.00    -0.324 N 
HETATM    2  C   UNL     1     -40.567 -49.848  11.845  1.00  0.00     0.148 A 
HETATM    3  N   UNL     1     -41.665 -49.621  11.160  1.00  0.00    -0.335 N 
ATOM      4  HN  UNL     1     -42.392 -50.294  10.914  1.00  0.00     0.168 HD
HETATM    5  C   UNL     1     -41.627 -48.283  10.847  1.00  0.00     0.061 A 
HETATM    6  C   UNL     1     -42.541 -47.505  10.118  1.00  0.00     0.032 A 
HETATM    7  C   UNL     1     -42.275 -46.140   9.930  1.00  0.00     0.002 A 
HETATM    8  C   UNL     1     -41.123 -45.559  10.456  1.00  0.00     0.002 A 
HETATM    9  C   UNL     1     -40.192 -46.320  11.172  1.00  0.00     0.032 A 
HETATM   10  C   UNL     1     -40.481 -47.682  11.358  1.00  0.00     0.063 A 
ENDROOT
BRANCH   2  11
HETATM   11  S   UNL     1     -40.089 -51.403  12.464  1.00  0.00    -0.084 SA
BRANCH  11  12
HETATM   12  C   UNL     1     -41.406 -52.476  11.809  1.00  0.00     0.185 C 
BRANCH  12  13
HETATM   13  C   UNL     1     -42.453 -52.752  12.884  1.00  0.00     0.227 C 
HETATM   14  O   UNL     1     -42.255 -53.549  13.799  1.00  0.00    -0.273 OA
HETATM   15  N   UNL     1     -43.605 -51.990  12.790  1.00  0.00    -0.356 N 
HETATM   16  H   UNL     1     -43.788 -51.542  11.901  1.00  0.00     0.162 HD
BRANCH  15  17
HETATM   17  C   UNL     1     -44.713 -52.175  13.709  1.00  0.00     0.084 C 
HETATM   18  C   UNL     1     -46.077 -51.896  13.070  1.00  0.00     0.025 C 
HETATM   19  C   UNL     1     -46.970 -51.367  14.197  1.00  0.00     0.002 C 
HETATM   20  C   UNL     1     -46.090 -51.299  15.441  1.00  0.00     0.002 C 
HETATM   21  C   UNL     1     -44.672 -51.215  14.894  1.00  0.00     0.025 C 
ENDBRANCH  15  17
ENDBRANCH  12  13
ENDBRANCH  11  12
ENDBRANCH   2  11
BRANCH   1  22
HETATM   22  C   UNL     1     -38.527 -48.552  12.648  1.00  0.00     0.157 C 
BRANCH  22  23
HETATM   23  C   UNL     1     -38.619 -48.129  14.112  1.00  0.00     0.187 C 
BRANCH  23  24
HETATM   24  O   UNL     1     -37.437 -48.565  14.789  1.00  0.00    -0.394 OA
HETATM   25  C   UNL     1     -37.321 -49.983  14.782  1.00  0.00     0.201 C 
ENDBRANCH  23  24
ENDBRANCH  22  23
ENDBRANCH   1  22
TORSDOF 7
ENDMDL
MODEL 4
REMARK VINA RESULT:      -5.8      2.456      3.561
REMARK  7 active torsions:
REMARK  status: ('A' for Active; 'I' for Inactive)
REMARK    1  A    between atoms: O_2  and  C_3 
REMARK    2  A    between atoms: C_3  and  C_4 
REMARK    3  A    between atoms: C_4  and  N_5 
REMARK    4  A    between atoms: C_6  and  S_7 
REMARK    5  A    between atoms: S_7  and  C_8 
REMARK    6  A    between atoms: C_8  and  C_9 
REMARK       I    between atoms: C_9  and  N_11 
REMARK    7  A    between atoms: N_11  and  C_12 
ROOT
HETATM    1  N   UNL     1     -40.546 -49.173  12.206  1.00  0.00    -0.324 N 
HETATM    2  C   UNL     1     -41.567 -50.082  12.345  1.00  0.00     0.148 A 
HETATM    3  N   UNL     1     -42.686 -49.650  11.808  1.00  0.00    -0.335 N 
ATOM      4  HN  UNL     1     -43.587 -50.128  11.785  1.00  0.00     0.168 HD
HETATM    5  C   UNL     1     -42.383 -48.416  11.282  1.00  0.00     0.061 A 
HETATM    6  C   UNL     1     -43.201 -47.511  10.586  1.00  0.00     0.032 A 
HETATM    7  C   UNL     1     -42.652 -46.298  10.144  1.00  0.00     0.002 A 
HETATM    8  C   UNL     1     -41.315 -45.990  10.390  1.00  0.00     0.002 A 
HETATM    9  C   UNL     1     -40.480 -46.884  11.070  1.00  0.00     0.032 A 
HETATM   10  C   UNL     1     -41.050 -48.088  11.511  1.00  0.00     0.063 A 
ENDROOT
BRANCH   2  11
HETATM   11  S   UNL     1     -41.374 -51.626  13.125  1.00  0.00    -0.084 SA
BRANCH  11  12
HETATM   12  C   UNL     1     -42.362 -52.706  12.042  1.00  0.00     0.185 C 
BRANCH  12  13
HETATM   13  C   UNL     1     -43.682 -53.070  12.712  1.00  0.00     0.227 C 
HETATM   14  O   UNL     1     -44.402 -53.972  12.290  1.00  0.00    -0.273 OA
HETATM   15  N   UNL     1     -43.972 -52.358  13.863  1.00  0.00    -0.356 N 
HETATM   16  H   UNL     1     -43.463 -51.495  14.009  1.00  0.00     0.162 HD
BRANCH  15  17
HETATM   17  C   UNL     1     -45.216 -52.554  14.583  1.00  0.00     0.084 C 
HETATM   18  C   UNL     1     -46.309 -51.560  14.178  1.00  0.00     0.025 C 
HETATM   19  C   UNL     1     -47.167 -51.345  15.429  1.00  0.00     0.002 C 
HETATM   20  C   UNL     1     -46.520 -52.170  16.537  1.00  0.00     0.002 C 
HETATM   21  C   UNL     1     -45.076 -52.336  16.087  1.00  0.00     0.025 C 
ENDBRANCH  15  17
ENDBRANCH  12  13
ENDBRANCH  11  12
ENDBRANCH   2  11
BRANCH   1  22
HETATM   22  C   UNL     1     -39.161 -49.294  12.613  1.00  0.00     0.157 C 
BRANCH  22  23
HETATM   23  C   UNL     1     -38.240 -49.816  11.512  1.00  0.00     0.187 C 
BRANCH  23  24
HETATM   24  O   UNL     1     -37.641 -51.036  11.958  1.00  0.00    -0.394 OA
HETATM   25  C   UNL     1     -37.612 -51.119  13.377  1.00  0.00     0.201 C 
ENDBRANCH  23  24
ENDBRANCH  22  23
ENDBRANCH   1  22
TORSDOF 7
ENDMDL
MODEL 5
REMARK VINA RESULT:      -5.8      2.525      7.998
REMARK  7 active torsions:
REMARK  status: ('A' for Active; 'I' for Inactive)
REMARK    1  A    between atoms: O_2  and  C_3 
REMARK    2  A    between atoms: C_3  and  C_4 
REMARK    3  A    between atoms: C_4  and  N_5 
REMARK    4  A    between atoms: C_6  and  S_7 
REMARK    5  A    between atoms: S_7  and  C_8 
REMARK    6  A    between atoms: C_8  and  C_9 
REMARK       I    between atoms: C_9  and  N_11 
REMARK    7  A    between atoms: N_11  and  C_12 
ROOT
HETATM    1  N   UNL     1     -41.180 -53.023  13.755  1.00  0.00    -0.324 N 
HETATM    2  C   UNL     1     -41.188 -51.989  12.850  1.00  0.00     0.148 A 
HETATM    3  N   UNL     1     -42.353 -51.866  12.255  1.00  0.00    -0.335 N 
ATOM      4  HN  UNL     1     -42.615 -51.187  11.540  1.00  0.00     0.168 HD
HETATM    5  C   UNL     1     -43.144 -52.850  12.800  1.00  0.00     0.061 A 
HETATM    6  C   UNL     1     -44.486 -53.170  12.538  1.00  0.00     0.032 A 
HETATM    7  C   UNL     1     -45.080 -54.233  13.234  1.00  0.00     0.002 A 
HETATM    8  C   UNL     1     -44.354 -54.965  14.173  1.00  0.00     0.002 A 
HETATM    9  C   UNL     1     -43.021 -54.652  14.459  1.00  0.00     0.032 A 
HETATM   10  C   UNL     1     -42.442 -53.591  13.745  1.00  0.00     0.063 A 
ENDROOT
BRANCH   2  11
HETATM   11  S   UNL     1     -39.815 -50.961  12.560  1.00  0.00    -0.084 SA
BRANCH  11  12
HETATM   12  C   UNL     1     -40.323 -50.094  11.042  1.00  0.00     0.185 C 
BRANCH  12  13
HETATM   13  C   UNL     1     -40.944 -48.743  11.381  1.00  0.00     0.227 C 
HETATM   14  O   UNL     1     -42.047 -48.647  11.913  1.00  0.00    -0.273 OA
HETATM   15  N   UNL     1     -40.145 -47.645  11.109  1.00  0.00    -0.356 N 
HETATM   16  H   UNL     1     -39.372 -47.788  10.470  1.00  0.00     0.162 HD
BRANCH  15  17
HETATM   17  C   UNL     1     -40.617 -46.292  11.328  1.00  0.00     0.084 C 
HETATM   18  C   UNL     1     -40.077 -45.292  10.301  1.00  0.00     0.025 C 
HETATM   19  C   UNL     1     -39.970 -43.951  11.034  1.00  0.00     0.002 C 
HETATM   20  C   UNL     1     -40.394 -44.218  12.474  1.00  0.00     0.002 C 
HETATM   21  C   UNL     1     -40.163 -45.710  12.664  1.00  0.00     0.025 C 
ENDBRANCH  15  17
ENDBRANCH  12  13
ENDBRANCH  11  12
ENDBRANCH   2  11
BRANCH   1  22
HETATM   22  C   UNL     1     -40.115 -53.447  14.641  1.00  0.00     0.157 C 
BRANCH  22  23
HETATM   23  C   UNL     1     -39.189 -54.497  14.030  1.00  0.00     0.187 C 
BRANCH  23  24
HETATM   24  O   UNL     1     -38.922 -55.499  15.016  1.00  0.00    -0.394 OA
HETATM   25  C   UNL     1     -39.705 -55.303  16.188  1.00  0.00     0.201 C 
ENDBRANCH  23  24
ENDBRANCH  22  23
ENDBRANCH   1  22
TORSDOF 7
ENDMDL
MODEL 6
REMARK VINA RESULT:      -5.7      2.414      3.742
REMARK  7 active torsions:
REMARK  status: ('A' for Active; 'I' for Inactive)
REMARK    1  A    between atoms: O_2  and  C_3 
REMARK    2  A    between atoms: C_3  and  C_4 
REMARK    3  A    between atoms: C_4  and  N_5 
REMARK    4  A    between atoms: C_6  and  S_7 
REMARK    5  A    between atoms: S_7  and  C_8 
REMARK    6  A    between atoms: C_8  and  C_9 
REMARK       I    between atoms: C_9  and  N_11 
REMARK    7  A    between atoms: N_11  and  C_12 
ROOT
HETATM    1  N   UNL     1     -41.976 -47.111  11.182  1.00  0.00    -0.324 N 
HETATM    2  C   UNL     1     -40.807 -47.833  11.217  1.00  0.00     0.148 A 
HETATM    3  N   UNL     1     -39.750 -47.054  11.249  1.00  0.00    -0.335 N 
ATOM      4  HN  UNL     1     -38.770 -47.339  11.269  1.00  0.00     0.168 HD
HETATM    5  C   UNL     1     -40.244 -45.771  11.250  1.00  0.00     0.061 A 
HETATM    6  C   UNL     1     -39.560 -44.545  11.288  1.00  0.00     0.032 A 
HETATM    7  C   UNL     1     -40.299 -43.352  11.281  1.00  0.00     0.002 A 
HETATM    8  C   UNL     1     -41.692 -43.377  11.237  1.00  0.00     0.002 A 
HETATM    9  C   UNL     1     -42.393 -44.588  11.214  1.00  0.00     0.032 A 
HETATM   10  C   UNL     1     -41.635 -45.770  11.212  1.00  0.00     0.063 A 
ENDROOT
BRANCH   2  11
HETATM   11  S   UNL     1     -40.757 -49.572  11.237  1.00  0.00    -0.084 SA
BRANCH  11  12
HETATM   12  C   UNL     1     -40.993 -49.922  13.008  1.00  0.00     0.185 C 
BRANCH  12  13
HETATM   13  C   UNL     1     -42.125 -50.923  13.208  1.00  0.00     0.227 C 
HETATM   14  O   UNL     1     -42.105 -52.043  12.702  1.00  0.00    -0.273 OA
HETATM   15  N   UNL     1     -43.138 -50.503  14.054  1.00  0.00    -0.356 N 
HETATM   16  H   UNL     1     -43.200 -49.509  14.237  1.00  0.00     0.162 HD
BRANCH  15  17
HETATM   17  C   UNL     1     -44.308 -51.323  14.302  1.00  0.00     0.084 C 
HETATM   18  C   UNL     1     -45.345 -51.248  13.177  1.00  0.00     0.025 C 
HETATM   19  C   UNL     1     -46.709 -51.448  13.846  1.00  0.00     0.002 C 
HETATM   20  C   UNL     1     -46.435 -51.575  15.341  1.00  0.00     0.002 C 
HETATM   21  C   UNL     1     -45.091 -50.887  15.537  1.00  0.00     0.025 C 
ENDBRANCH  15  17
ENDBRANCH  12  13
ENDBRANCH  11  12
ENDBRANCH   2  11
BRANCH   1  22
HETATM   22  C   UNL     1     -43.342 -47.593  11.191  1.00  0.00     0.157 C 
BRANCH  22  23
HETATM   23  C   UNL     1     -44.016 -47.555   9.821  1.00  0.00     0.187 C 
BRANCH  23  24
HETATM   24  O   UNL     1     -43.042 -47.873   8.824  1.00  0.00    -0.394 OA
HETATM   25  C   UNL     1     -43.624 -47.956   7.529  1.00  0.00     0.201 C 
ENDBRANCH  23  24
ENDBRANCH  22  23
ENDBRANCH   1  22
TORSDOF 7
ENDMDL
MODEL 7
REMARK VINA RESULT:      -5.6      2.752      3.765
REMARK  7 active torsions:
REMARK  status: ('A' for Active; 'I' for Inactive)
REMARK    1  A    between atoms: O_2  and  C_3 
REMARK    2  A    between atoms: C_3  and  C_4 
REMARK    3  A    between atoms: C_4  and  N_5 
REMARK    4  A    between atoms: C_6  and  S_7 
REMARK    5  A    between atoms: S_7  and  C_8 
REMARK    6  A    between atoms: C_8  and  C_9 
REMARK       I    between atoms: C_9  and  N_11 
REMARK    7  A    between atoms: N_11  and  C_12 
ROOT
HETATM    1  N   UNL     1     -39.441 -47.334  13.007  1.00  0.00    -0.324 N 
HETATM    2  C   UNL     1     -39.651 -48.142  11.915  1.00  0.00     0.148 A 
HETATM    3  N   UNL     1     -39.986 -47.450  10.849  1.00  0.00    -0.335 N 
ATOM      4  HN  UNL     1     -40.203 -47.811   9.920  1.00  0.00     0.168 HD
HETATM    5  C   UNL     1     -39.981 -46.136  11.253  1.00  0.00     0.061 A 
HETATM    6  C   UNL     1     -40.255 -44.970  10.520  1.00  0.00     0.032 A 
HETATM    7  C   UNL     1     -40.183 -43.727  11.165  1.00  0.00     0.002 A 
HETATM    8  C   UNL     1     -39.845 -43.643  12.515  1.00  0.00     0.002 A 
HETATM    9  C   UNL     1     -39.555 -44.792  13.260  1.00  0.00     0.032 A 
HETATM   10  C   UNL     1     -39.641 -46.027  12.598  1.00  0.00     0.063 A 
ENDROOT
BRANCH   2  11
HETATM   11  S   UNL     1     -39.468 -49.872  11.956  1.00  0.00    -0.084 SA
BRANCH  11  12
HETATM   12  C   UNL     1     -41.193 -50.425  11.772  1.00  0.00     0.185 C 
BRANCH  12  13
HETATM   13  C   UNL     1     -41.337 -51.877  12.212  1.00  0.00     0.227 C 
HETATM   14  O   UNL     1     -40.386 -52.657  12.216  1.00  0.00    -0.273 OA
HETATM   15  N   UNL     1     -42.595 -52.230  12.670  1.00  0.00    -0.356 N 
HETATM   16  H   UNL     1     -43.362 -51.618  12.420  1.00  0.00     0.162 HD
BRANCH  15  17
HETATM   17  C   UNL     1     -42.902 -53.589  13.075  1.00  0.00     0.084 C 
HETATM   18  C   UNL     1     -44.366 -53.971  12.836  1.00  0.00     0.025 C 
HETATM   19  C   UNL     1     -44.721 -54.983  13.931  1.00  0.00     0.002 C 
HETATM   20  C   UNL     1     -43.478 -55.117  14.806  1.00  0.00     0.002 C 
HETATM   21  C   UNL     1     -42.712 -53.823  14.570  1.00  0.00     0.025 C 
ENDBRANCH  15  17
ENDBRANCH  12  13
ENDBRANCH  11  12
ENDBRANCH   2  11
BRANCH   1  22
HETATM   22  C   UNL     1     -39.014 -47.702  14.341  1.00  0.00     0.157 C 
BRANCH  22  23
HETATM   23  C   UNL     1     -37.497 -47.783  14.499  1.00  0.00     0.187 C 
BRANCH  23  24
HETATM   24  O   UNL     1     -37.140 -49.136  14.798  1.00  0.00    -0.394 OA
HETATM   25  C   UNL     1     -37.954 -49.677  15.831  1.00  0.00     0.201 C 
ENDBRANCH  23  24
ENDBRANCH  22  23
ENDBRANCH   1  22
TORSDOF 7
ENDMDL
MODEL 8
REMARK VINA RESULT:      -5.5      1.770      3.409
REMARK  7 active torsions:
REMARK  status: ('A' for Active; 'I' for Inactive)
REMARK    1  A    between atoms: O_2  and  C_3 
REMARK    2  A    between atoms: C_3  and  C_4 
REMARK    3  A    between atoms: C_4  and  N_5 
REMARK    4  A    between atoms: C_6  and  S_7 
REMARK    5  A    between atoms: S_7  and  C_8 
REMARK    6  A    between atoms: C_8  and  C_9 
REMARK       I    between atoms: C_9  and  N_11 
REMARK    7  A    between atoms: N_11  and  C_12 
ROOT
HETATM    1  N   UNL     1     -41.793 -47.186  10.837  1.00  0.00    -0.324 N 
HETATM    2  C   UNL     1     -40.686 -47.927  11.177  1.00  0.00     0.148 A 
HETATM    3  N   UNL     1     -39.720 -47.176  11.654  1.00  0.00    -0.335 N 
ATOM      4  HN  UNL     1     -38.797 -47.479  11.968  1.00  0.00     0.168 HD
HETATM    5  C   UNL     1     -40.216 -45.893  11.640  1.00  0.00     0.061 A 
HETATM    6  C   UNL     1     -39.613 -44.693  12.049  1.00  0.00     0.032 A 
HETATM    7  C   UNL     1     -40.335 -43.495  11.934  1.00  0.00     0.002 A 
HETATM    8  C   UNL     1     -41.631 -43.490  11.422  1.00  0.00     0.002 A 
HETATM    9  C   UNL     1     -42.255 -44.678  11.023  1.00  0.00     0.032 A 
HETATM   10  C   UNL     1     -41.513 -45.864  11.137  1.00  0.00     0.063 A 
ENDROOT
BRANCH   2  11
HETATM   11  S   UNL     1     -40.605 -49.657  11.009  1.00  0.00    -0.084 SA
BRANCH  11  12
HETATM   12  C   UNL     1     -40.608 -50.192  12.749  1.00  0.00     0.185 C 
BRANCH  12  13
HETATM   13  C   UNL     1     -40.958 -51.673  12.851  1.00  0.00     0.227 C 
HETATM   14  O   UNL     1     -40.118 -52.556  12.689  1.00  0.00    -0.273 OA
HETATM   15  N   UNL     1     -42.268 -51.943  13.206  1.00  0.00    -0.356 N 
HETATM   16  H   UNL     1     -42.938 -51.192  13.092  1.00  0.00     0.162 HD
BRANCH  15  17
HETATM   17  C   UNL     1     -42.765 -53.303  13.293  1.00  0.00     0.084 C 
HETATM   18  C   UNL     1     -44.117 -53.495  12.597  1.00  0.00     0.025 C 
HETATM   19  C   UNL     1     -44.840 -54.597  13.378  1.00  0.00     0.002 C 
HETATM   20  C   UNL     1     -43.919 -54.974  14.535  1.00  0.00     0.002 C 
HETATM   21  C   UNL     1     -43.037 -53.749  14.727  1.00  0.00     0.025 C 
ENDBRANCH  15  17
ENDBRANCH  12  13
ENDBRANCH  11  12
ENDBRANCH   2  11
BRANCH   1  22
HETATM   22  C   UNL     1     -43.071 -47.642  10.330  1.00  0.00     0.157 C 
BRANCH  22  23
HETATM   23  C   UNL     1     -43.157 -47.655   8.805  1.00  0.00     0.187 C 
BRANCH  23  24
HETATM   24  O   UNL     1     -44.532 -47.550   8.425  1.00  0.00    -0.394 OA
HETATM   25  C   UNL     1     -45.391 -47.536   9.559  1.00  0.00     0.201 C 
ENDBRANCH  23  24
ENDBRANCH  22  23
ENDBRANCH   1  22
TORSDOF 7
ENDMDL
MODEL 9
REMARK VINA RESULT:      -5.4      2.393      7.575
REMARK  7 active torsions:
REMARK  status: ('A' for Active; 'I' for Inactive)
REMARK    1  A    between atoms: O_2  and  C_3 
REMARK    2  A    between atoms: C_3  and  C_4 
REMARK    3  A    between atoms: C_4  and  N_5 
REMARK    4  A    between atoms: C_6  and  S_7 
REMARK    5  A    between atoms: S_7  and  C_8 
REMARK    6  A    between atoms: C_8  and  C_9 
REMARK       I    between atoms: C_9  and  N_11 
REMARK    7  A    between atoms: N_11  and  C_12 
ROOT
HETATM    1  N   UNL     1     -42.474 -52.989  13.254  1.00  0.00    -0.324 N 
HETATM    2  C   UNL     1     -42.077 -51.744  12.828  1.00  0.00     0.148 A 
HETATM    3  N   UNL     1     -43.091 -50.915  12.723  1.00  0.00    -0.335 N 
ATOM      4  HN  UNL     1     -43.065 -49.941  12.420  1.00  0.00     0.168 HD
HETATM    5  C   UNL     1     -44.194 -51.639  13.110  1.00  0.00     0.061 A 
HETATM    6  C   UNL     1     -45.539 -51.247  13.200  1.00  0.00     0.032 A 
HETATM    7  C   UNL     1     -46.494 -52.182  13.627  1.00  0.00     0.002 A 
HETATM    8  C   UNL     1     -46.118 -53.483  13.960  1.00  0.00     0.002 A 
HETATM    9  C   UNL     1     -44.781 -53.889  13.891  1.00  0.00     0.032 A 
HETATM   10  C   UNL     1     -43.842 -52.941  13.452  1.00  0.00     0.063 A 
ENDROOT
BRANCH   2  11
HETATM   11  S   UNL     1     -40.420 -51.331  12.493  1.00  0.00    -0.084 SA
BRANCH  11  12
HETATM   12  C   UNL     1     -40.617 -50.031  11.234  1.00  0.00     0.185 C 
BRANCH  12  13
HETATM   13  C   UNL     1     -40.431 -48.652  11.858  1.00  0.00     0.227 C 
HETATM   14  O   UNL     1     -40.223 -48.501  13.060  1.00  0.00    -0.273 OA
HETATM   15  N   UNL     1     -40.445 -47.596  10.963  1.00  0.00    -0.356 N 
HETATM   16  H   UNL     1     -40.848 -47.773  10.051  1.00  0.00     0.162 HD
BRANCH  15  17
HETATM   17  C   UNL     1     -40.333 -46.220  11.410  1.00  0.00     0.084 C 
HETATM   18  C   UNL     1     -41.687 -45.581  11.736  1.00  0.00     0.025 C 
HETATM   19  C   UNL     1     -41.536 -44.090  11.419  1.00  0.00     0.002 C 
HETATM   20  C   UNL     1     -40.126 -43.913  10.866  1.00  0.00     0.002 C 
HETATM   21  C   UNL     1     -39.749 -45.293  10.349  1.00  0.00     0.025 C 
ENDBRANCH  15  17
ENDBRANCH  12  13
ENDBRANCH  11  12
ENDBRANCH   2  11
BRANCH   1  22
HETATM   22  C   UNL     1     -41.660 -54.153  13.540  1.00  0.00     0.157 C 
BRANCH  22  23
HETATM   23  C   UNL     1     -41.353 -54.338  15.024  1.00  0.00     0.187 C 
BRANCH  23  24
HETATM   24  O   UNL     1     -39.934 -54.313  15.203  1.00  0.00    -0.394 OA
HETATM   25  C   UNL     1     -39.247 -54.615  13.995  1.00  0.00     0.201 C 
ENDBRANCH  23  24
ENDBRANCH  22  23
ENDBRANCH   1  22
TORSDOF 7
ENDMDL
