MODEL 1
REMARK VINA RESULT:      -6.6      0.000      0.000
REMARK  6 active torsions:
REMARK  status: ('A' for Active; 'I' for Inactive)
REMARK    1  A    between atoms: O_2  and  C_3 
REMARK    2  A    between atoms: C_3  and  C_4 
REMARK    3  A    between atoms: C_4  and  N_5 
REMARK    4  A    between atoms: C_7  and  C_14 
REMARK    5  A    between atoms: C_14  and  C_16 
REMARK    6  A    between atoms: C_22  and  O_23 
ROOT
HETATM    1  N   UNL     1     -40.455 -51.652  12.683  1.00  0.00    -0.320 N 
HETATM    2  C   UNL     1     -41.822 -51.889  12.626  1.00  0.00     0.109 C 
HETATM    3  C   UNL     1     -42.363 -53.045  13.042  1.00  0.00     0.032 C 
HETATM    4  C   UNL     1     -41.483 -54.002  13.704  1.00  0.00     0.045 C 
HETATM    5  C   UNL     1     -40.173 -53.769  13.888  1.00  0.00     0.113 C 
HETATM    6  C   UNL     1     -39.337 -54.707  14.549  1.00  0.00     0.105 C 
HETATM    7  N   UNL     1     -38.688 -55.508  15.091  1.00  0.00    -0.191 NA
HETATM    8  C   UNL     1     -39.576 -52.513  13.346  1.00  0.00     0.268 C 
HETATM    9  O   UNL     1     -38.372 -52.292  13.454  1.00  0.00    -0.266 OA
ENDROOT
BRANCH   3  10
HETATM   10  C   UNL     1     -43.823 -53.402  12.897  1.00  0.00     0.196 C 
HETATM   11  O   UNL     1     -44.121 -54.381  12.207  1.00  0.00    -0.286 OA
BRANCH  10  12
HETATM   12  C   UNL     1     -44.938 -52.656  13.561  1.00  0.00     0.049 A 
HETATM   13  C   UNL     1     -44.805 -52.447  14.950  1.00  0.00     0.025 A 
HETATM   14  C   UNL     1     -45.798 -51.787  15.691  1.00  0.00    -0.061 A 
HETATM   15  C   UNL     1     -45.723 -51.698  17.188  1.00  0.00     0.048 C 
HETATM   16  C   UNL     1     -46.913 -51.276  15.025  1.00  0.00     0.009 A 
HETATM   17  C   UNL     1     -47.080 -51.504  13.661  1.00  0.00     0.038 A 
HETATM   18  C   UNL     1     -46.125 -52.235  12.947  1.00  0.00     0.080 A 
BRANCH  18  19
HETATM   19  O   UNL     1     -46.415 -52.574  11.654  1.00  0.00    -0.360 OA
HETATM   20  H   UNL     1     -45.759 -52.172  11.059  1.00  0.00     0.217 HD
ENDBRANCH  18  19
ENDBRANCH  10  12
ENDBRANCH   3  10
BRANCH   1  21
HETATM   21  C   UNL     1     -39.893 -50.537  11.905  1.00  0.00     0.158 C 
BRANCH  21  22
HETATM   22  C   UNL     1     -40.809 -49.301  11.909  1.00  0.00     0.187 C 
BRANCH  22  23
HETATM   23  O   UNL     1     -41.206 -48.977  10.575  1.00  0.00    -0.394 OA
HETATM   24  C   UNL     1     -42.290 -48.053  10.573  1.00  0.00     0.201 C 
ENDBRANCH  22  23
ENDBRANCH  21  22
ENDBRANCH   1  21
TORSDOF 6
ENDMDL
MODEL 2
REMARK VINA RESULT:      -6.5      1.078      1.294
REMARK  6 active torsions:
REMARK  status: ('A' for Active; 'I' for Inactive)
REMARK    1  A    between atoms: O_2  and  C_3 
REMARK    2  A    between atoms: C_3  and  C_4 
REMARK    3  A    between atoms: C_4  and  N_5 
REMARK    4  A    between atoms: C_7  and  C_14 
REMARK    5  A    between atoms: C_14  and  C_16 
REMARK    6  A    between atoms: C_22  and  O_23 
ROOT
HETATM    1  N   UNL     1     -40.460 -51.830  12.714  1.00  0.00    -0.320 N 
HETATM    2  C   UNL     1     -41.832 -52.036  12.654  1.00  0.00     0.109 C 
HETATM    3  C   UNL     1     -42.404 -53.162  13.109  1.00  0.00     0.032 C 
HETATM    4  C   UNL     1     -41.553 -54.113  13.816  1.00  0.00     0.045 C 
HETATM    5  C   UNL     1     -40.239 -53.904  14.002  1.00  0.00     0.113 C 
HETATM    6  C   UNL     1     -39.433 -54.837  14.707  1.00  0.00     0.105 C 
HETATM    7  N   UNL     1     -38.807 -55.631  15.286  1.00  0.00    -0.191 NA
HETATM    8  C   UNL     1     -39.607 -52.686  13.418  1.00  0.00     0.268 C 
HETATM    9  O   UNL     1     -38.400 -52.490  13.527  1.00  0.00    -0.266 OA
ENDROOT
BRANCH   3  10
HETATM   10  C   UNL     1     -43.871 -53.488  12.966  1.00  0.00     0.196 C 
HETATM   11  O   UNL     1     -44.190 -54.464  12.280  1.00  0.00    -0.286 OA
BRANCH  10  12
HETATM   12  C   UNL     1     -44.970 -52.716  13.626  1.00  0.00     0.049 A 
HETATM   13  C   UNL     1     -44.843 -52.518  15.017  1.00  0.00     0.025 A 
HETATM   14  C   UNL     1     -45.822 -51.836  15.755  1.00  0.00    -0.061 A 
HETATM   15  C   UNL     1     -45.756 -51.757  17.252  1.00  0.00     0.048 C 
HETATM   16  C   UNL     1     -46.918 -51.292  15.083  1.00  0.00     0.009 A 
HETATM   17  C   UNL     1     -47.081 -51.508  13.717  1.00  0.00     0.038 A 
HETATM   18  C   UNL     1     -46.141 -52.260  13.006  1.00  0.00     0.080 A 
BRANCH  18  19
HETATM   19  O   UNL     1     -46.431 -52.584  11.709  1.00  0.00    -0.360 OA
HETATM   20  H   UNL     1     -45.722 -52.259  11.128  1.00  0.00     0.217 HD
ENDBRANCH  18  19
ENDBRANCH  10  12
ENDBRANCH   3  10
BRANCH   1  21
HETATM   21  C   UNL     1     -39.865 -50.761  11.898  1.00  0.00     0.158 C 
BRANCH  21  22
HETATM   22  C   UNL     1     -39.733 -49.438  12.674  1.00  0.00     0.187 C 
BRANCH  22  23
HETATM   23  O   UNL     1     -38.413 -48.910  12.527  1.00  0.00    -0.394 OA
HETATM   24  C   UNL     1     -37.682 -49.627  11.536  1.00  0.00     0.201 C 
ENDBRANCH  22  23
ENDBRANCH  21  22
ENDBRANCH   1  21
TORSDOF 6
ENDMDL
MODEL 3
REMARK VINA RESULT:      -6.4      2.466      4.892
REMARK  6 active torsions:
REMARK  status: ('A' for Active; 'I' for Inactive)
REMARK    1  A    between atoms: O_2  and  C_3 
REMARK    2  A    between atoms: C_3  and  C_4 
REMARK    3  A    between atoms: C_4  and  N_5 
REMARK    4  A    between atoms: C_7  and  C_14 
REMARK    5  A    between atoms: C_14  and  C_16 
REMARK    6  A    between atoms: C_22  and  O_23 
ROOT
HETATM    1  N   UNL     1     -40.672 -54.973  15.851  1.00  0.00    -0.320 N 
HETATM    2  C   UNL     1     -42.018 -55.197  15.597  1.00  0.00     0.109 C 
HETATM    3  C   UNL     1     -42.712 -54.455  14.719  1.00  0.00     0.032 C 
HETATM    4  C   UNL     1     -41.968 -53.490  13.917  1.00  0.00     0.045 C 
HETATM    5  C   UNL     1     -40.642 -53.317  14.043  1.00  0.00     0.113 C 
HETATM    6  C   UNL     1     -39.936 -52.382  13.240  1.00  0.00     0.105 C 
HETATM    7  N   UNL     1     -39.397 -51.600  12.565  1.00  0.00    -0.191 NA
HETATM    8  C   UNL     1     -39.904 -54.094  15.081  1.00  0.00     0.268 C 
HETATM    9  O   UNL     1     -38.700 -53.924  15.256  1.00  0.00    -0.266 OA
ENDROOT
BRANCH   3  10
HETATM   10  C   UNL     1     -44.199 -54.578  14.489  1.00  0.00     0.196 C 
HETATM   11  O   UNL     1     -44.695 -55.708  14.463  1.00  0.00    -0.286 OA
BRANCH  10  12
HETATM   12  C   UNL     1     -45.120 -53.412  14.315  1.00  0.00     0.049 A 
HETATM   13  C   UNL     1     -45.813 -52.989  15.469  1.00  0.00     0.025 A 
HETATM   14  C   UNL     1     -46.727 -51.925  15.428  1.00  0.00    -0.061 A 
HETATM   15  C   UNL     1     -47.571 -51.576  16.620  1.00  0.00     0.048 C 
HETATM   16  C   UNL     1     -46.909 -51.234  14.229  1.00  0.00     0.009 A 
HETATM   17  C   UNL     1     -46.262 -51.659  13.070  1.00  0.00     0.038 A 
HETATM   18  C   UNL     1     -45.416 -52.772  13.104  1.00  0.00     0.080 A 
BRANCH  18  19
HETATM   19  O   UNL     1     -44.939 -53.248  11.914  1.00  0.00    -0.360 OA
HETATM   20  H   UNL     1     -45.101 -54.206  11.860  1.00  0.00     0.217 HD
ENDBRANCH  18  19
ENDBRANCH  10  12
ENDBRANCH   3  10
BRANCH   1  21
HETATM   21  C   UNL     1     -40.066 -55.568  17.051  1.00  0.00     0.158 C 
BRANCH  21  22
HETATM   22  C   UNL     1     -40.749 -56.884  17.460  1.00  0.00     0.187 C 
BRANCH  22  23
HETATM   23  O   UNL     1     -40.002 -58.000  16.970  1.00  0.00    -0.394 OA
HETATM   24  C   UNL     1     -39.156 -58.536  17.984  1.00  0.00     0.201 C 
ENDBRANCH  22  23
ENDBRANCH  21  22
ENDBRANCH   1  21
TORSDOF 6
ENDMDL
MODEL 4
REMARK VINA RESULT:      -6.4      2.158      2.661
REMARK  6 active torsions:
REMARK  status: ('A' for Active; 'I' for Inactive)
REMARK    1  A    between atoms: O_2  and  C_3 
REMARK    2  A    between atoms: C_3  and  C_4 
REMARK    3  A    between atoms: C_4  and  N_5 
REMARK    4  A    between atoms: C_7  and  C_14 
REMARK    5  A    between atoms: C_14  and  C_16 
REMARK    6  A    between atoms: C_22  and  O_23 
ROOT
HETATM    1  N   UNL     1     -41.169 -48.938  11.776  1.00  0.00    -0.320 N 
HETATM    2  C   UNL     1     -42.162 -49.825  12.169  1.00  0.00     0.109 C 
HETATM    3  C   UNL     1     -41.891 -51.096  12.507  1.00  0.00     0.032 C 
HETATM    4  C   UNL     1     -40.487 -51.483  12.597  1.00  0.00     0.045 C 
HETATM    5  C   UNL     1     -39.484 -50.628  12.340  1.00  0.00     0.113 C 
HETATM    6  C   UNL     1     -38.125 -51.023  12.450  1.00  0.00     0.105 C 
HETATM    7  N   UNL     1     -37.024 -51.391  12.546  1.00  0.00    -0.191 NA
HETATM    8  C   UNL     1     -39.809 -49.244  11.888  1.00  0.00     0.268 C 
HETATM    9  O   UNL     1     -38.917 -48.452  11.596  1.00  0.00    -0.266 OA
ENDROOT
BRANCH   3  10
HETATM   10  C   UNL     1     -42.939 -52.133  12.829  1.00  0.00     0.196 C 
HETATM   11  O   UNL     1     -42.706 -53.310  12.538  1.00  0.00    -0.286 OA
BRANCH  10  12
HETATM   12  C   UNL     1     -44.239 -51.829  13.505  1.00  0.00     0.049 A 
HETATM   13  C   UNL     1     -44.153 -51.323  14.820  1.00  0.00     0.025 A 
HETATM   14  C   UNL     1     -45.302 -51.028  15.569  1.00  0.00    -0.061 A 
HETATM   15  C   UNL     1     -45.209 -50.632  17.015  1.00  0.00     0.048 C 
HETATM   16  C   UNL     1     -46.556 -51.184  14.976  1.00  0.00     0.009 A 
HETATM   17  C   UNL     1     -46.663 -51.717  13.693  1.00  0.00     0.038 A 
HETATM   18  C   UNL     1     -45.515 -52.086  12.986  1.00  0.00     0.080 A 
BRANCH  18  19
HETATM   19  O   UNL     1     -45.680 -52.756  11.805  1.00  0.00    -0.360 OA
HETATM   20  H   UNL     1     -46.274 -52.248  11.225  1.00  0.00     0.217 HD
ENDBRANCH  18  19
ENDBRANCH  10  12
ENDBRANCH   3  10
BRANCH   1  21
HETATM   21  C   UNL     1     -41.555 -47.694  11.092  1.00  0.00     0.158 C 
BRANCH  21  22
HETATM   22  C   UNL     1     -43.004 -47.737  10.576  1.00  0.00     0.187 C 
BRANCH  22  23
HETATM   23  O   UNL     1     -43.017 -47.794   9.148  1.00  0.00    -0.394 OA
HETATM   24  C   UNL     1     -43.472 -46.564   8.590  1.00  0.00     0.201 C 
ENDBRANCH  22  23
ENDBRANCH  21  22
ENDBRANCH   1  21
TORSDOF 6
ENDMDL
MODEL 5
REMARK VINA RESULT:      -6.3      2.062      5.616
REMARK  6 active torsions:
REMARK  status: ('A' for Active; 'I' for Inactive)
REMARK    1  A    between atoms: O_2  and  C_3 
REMARK    2  A    between atoms: C_3  and  C_4 
REMARK    3  A    between atoms: C_4  and  N_5 
REMARK    4  A    between atoms: C_7  and  C_14 
REMARK    5  A    between atoms: C_14  and  C_16 
REMARK    6  A    between atoms: C_22  and  O_23 
ROOT
HETATM    1  N   UNL     1     -42.004 -53.210  13.819  1.00  0.00    -0.320 N 
HETATM    2  C   UNL     1     -41.251 -52.250  13.157  1.00  0.00     0.109 C 
HETATM    3  C   UNL     1     -39.921 -52.154  13.314  1.00  0.00     0.032 C 
HETATM    4  C   UNL     1     -39.258 -53.193  14.094  1.00  0.00     0.045 C 
HETATM    5  C   UNL     1     -39.929 -54.210  14.659  1.00  0.00     0.113 C 
HETATM    6  C   UNL     1     -39.261 -55.220  15.400  1.00  0.00     0.105 C 
HETATM    7  N   UNL     1     -38.673 -56.023  16.006  1.00  0.00    -0.191 NA
HETATM    8  C   UNL     1     -41.415 -54.254  14.540  1.00  0.00     0.268 C 
HETATM    9  O   UNL     1     -42.064 -55.142  15.086  1.00  0.00    -0.266 OA
ENDROOT
BRANCH   3  10
HETATM   10  C   UNL     1     -39.070 -51.062  12.712  1.00  0.00     0.196 C 
HETATM   11  O   UNL     1     -37.925 -51.346  12.347  1.00  0.00    -0.286 OA
BRANCH  10  12
HETATM   12  C   UNL     1     -39.535 -49.655  12.503  1.00  0.00     0.049 A 
HETATM   13  C   UNL     1     -39.411 -48.788  13.610  1.00  0.00     0.025 A 
HETATM   14  C   UNL     1     -39.840 -47.453  13.548  1.00  0.00    -0.061 A 
HETATM   15  C   UNL     1     -39.843 -46.579  14.768  1.00  0.00     0.048 C 
HETATM   16  C   UNL     1     -40.347 -46.960  12.345  1.00  0.00     0.009 A 
HETATM   17  C   UNL     1     -40.512 -47.809  11.253  1.00  0.00     0.038 A 
HETATM   18  C   UNL     1     -40.158 -49.158  11.351  1.00  0.00     0.080 A 
BRANCH  18  19
HETATM   19  O   UNL     1     -40.494 -49.983  10.312  1.00  0.00    -0.360 OA
HETATM   20  H   UNL     1     -39.709 -50.483  10.029  1.00  0.00     0.217 HD
ENDBRANCH  18  19
ENDBRANCH  10  12
ENDBRANCH   3  10
BRANCH   1  21
HETATM   21  C   UNL     1     -43.465 -53.048  13.885  1.00  0.00     0.158 C 
BRANCH  21  22
HETATM   22  C   UNL     1     -44.139 -53.265  12.518  1.00  0.00     0.187 C 
BRANCH  22  23
HETATM   23  O   UNL     1     -44.854 -54.502  12.513  1.00  0.00    -0.394 OA
HETATM   24  C   UNL     1     -45.361 -54.806  13.809  1.00  0.00     0.201 C 
ENDBRANCH  22  23
ENDBRANCH  21  22
ENDBRANCH   1  21
TORSDOF 6
ENDMDL
MODEL 6
REMARK VINA RESULT:      -6.0      1.516      4.077
REMARK  6 active torsions:
REMARK  status: ('A' for Active; 'I' for Inactive)
REMARK    1  A    between atoms: O_2  and  C_3 
REMARK    2  A    between atoms: C_3  and  C_4 
REMARK    3  A    between atoms: C_4  and  N_5 
REMARK    4  A    between atoms: C_7  and  C_14 
REMARK    5  A    between atoms: C_14  and  C_16 
REMARK    6  A    between atoms: C_22  and  O_23 
ROOT
HETATM    1  N   UNL     1     -40.173 -53.550  13.843  1.00  0.00    -0.320 N 
HETATM    2  C   UNL     1     -41.491 -53.948  13.667  1.00  0.00     0.109 C 
HETATM    3  C   UNL     1     -42.393 -53.173  13.043  1.00  0.00     0.032 C 
HETATM    4  C   UNL     1     -41.908 -51.950  12.413  1.00  0.00     0.045 C 
HETATM    5  C   UNL     1     -40.618 -51.579  12.455  1.00  0.00     0.113 C 
HETATM    6  C   UNL     1     -40.166 -50.392  11.820  1.00  0.00     0.105 C 
HETATM    7  N   UNL     1     -39.840 -49.407  11.291  1.00  0.00    -0.191 NA
HETATM    8  C   UNL     1     -39.648 -52.412  13.222  1.00  0.00     0.268 C 
HETATM    9  O   UNL     1     -38.471 -52.075  13.323  1.00  0.00    -0.266 OA
ENDROOT
BRANCH   3  10
HETATM   10  C   UNL     1     -43.861 -53.503  12.926  1.00  0.00     0.196 C 
HETATM   11  O   UNL     1     -44.189 -54.484  12.252  1.00  0.00    -0.286 OA
BRANCH  10  12
HETATM   12  C   UNL     1     -44.951 -52.728  13.598  1.00  0.00     0.049 A 
HETATM   13  C   UNL     1     -44.821 -52.554  14.992  1.00  0.00     0.025 A 
HETATM   14  C   UNL     1     -45.792 -51.871  15.740  1.00  0.00    -0.061 A 
HETATM   15  C   UNL     1     -45.725 -51.816  17.239  1.00  0.00     0.048 C 
HETATM   16  C   UNL     1     -46.882 -51.303  15.078  1.00  0.00     0.009 A 
HETATM   17  C   UNL     1     -47.047 -51.496  13.708  1.00  0.00     0.038 A 
HETATM   18  C   UNL     1     -46.116 -52.249  12.985  1.00  0.00     0.080 A 
BRANCH  18  19
HETATM   19  O   UNL     1     -46.410 -52.548  11.684  1.00  0.00    -0.360 OA
HETATM   20  H   UNL     1     -46.804 -53.436  11.637  1.00  0.00     0.217 HD
ENDBRANCH  18  19
ENDBRANCH  10  12
ENDBRANCH   3  10
BRANCH   1  21
HETATM   21  C   UNL     1     -39.339 -54.264  14.822  1.00  0.00     0.158 C 
BRANCH  21  22
HETATM   22  C   UNL     1     -40.175 -55.114  15.794  1.00  0.00     0.187 C 
BRANCH  22  23
HETATM   23  O   UNL     1     -39.530 -55.185  17.068  1.00  0.00    -0.394 OA
HETATM   24  C   UNL     1     -38.556 -56.225  17.090  1.00  0.00     0.201 C 
ENDBRANCH  22  23
ENDBRANCH  21  22
ENDBRANCH   1  21
TORSDOF 6
ENDMDL
MODEL 7
REMARK VINA RESULT:      -6.0      2.903      6.495
REMARK  6 active torsions:
REMARK  status: ('A' for Active; 'I' for Inactive)
REMARK    1  A    between atoms: O_2  and  C_3 
REMARK    2  A    between atoms: C_3  and  C_4 
REMARK    3  A    between atoms: C_4  and  N_5 
REMARK    4  A    between atoms: C_7  and  C_14 
REMARK    5  A    between atoms: C_14  and  C_16 
REMARK    6  A    between atoms: C_22  and  O_23 
ROOT
HETATM    1  N   UNL     1     -41.263 -54.341  15.309  1.00  0.00    -0.320 N 
HETATM    2  C   UNL     1     -40.997 -53.132  14.680  1.00  0.00     0.109 C 
HETATM    3  C   UNL     1     -41.840 -52.593  13.785  1.00  0.00     0.032 C 
HETATM    4  C   UNL     1     -43.133 -53.242  13.601  1.00  0.00     0.045 C 
HETATM    5  C   UNL     1     -43.486 -54.350  14.274  1.00  0.00     0.113 C 
HETATM    6  C   UNL     1     -44.757 -54.957  14.091  1.00  0.00     0.105 C 
HETATM    7  N   UNL     1     -45.807 -55.425  13.904  1.00  0.00    -0.191 NA
HETATM    8  C   UNL     1     -42.503 -54.979  15.203  1.00  0.00     0.268 C 
HETATM    9  O   UNL     1     -42.775 -56.020  15.796  1.00  0.00    -0.266 OA
ENDROOT
BRANCH   3  10
HETATM   10  C   UNL     1     -41.548 -51.345  12.987  1.00  0.00     0.196 C 
HETATM   11  O   UNL     1     -42.498 -50.737  12.484  1.00  0.00    -0.286 OA
BRANCH  10  12
HETATM   12  C   UNL     1     -40.178 -50.778  12.787  1.00  0.00     0.049 A 
HETATM   13  C   UNL     1     -39.380 -50.658  13.944  1.00  0.00     0.025 A 
HETATM   14  C   UNL     1     -38.087 -50.114  13.891  1.00  0.00    -0.061 A 
HETATM   15  C   UNL     1     -37.300 -49.851  15.142  1.00  0.00     0.048 C 
HETATM   16  C   UNL     1     -37.561 -49.738  12.654  1.00  0.00     0.009 A 
HETATM   17  C   UNL     1     -38.346 -49.815  11.506  1.00  0.00     0.038 A 
HETATM   18  C   UNL     1     -39.663 -50.281  11.583  1.00  0.00     0.080 A 
BRANCH  18  19
HETATM   19  O   UNL     1     -40.443 -50.180  10.464  1.00  0.00    -0.360 OA
HETATM   20  H   UNL     1     -39.883 -50.254   9.671  1.00  0.00     0.217 HD
ENDBRANCH  18  19
ENDBRANCH  10  12
ENDBRANCH   3  10
BRANCH   1  21
HETATM   21  C   UNL     1     -40.168 -55.043  15.995  1.00  0.00     0.158 C 
BRANCH  21  22
HETATM   22  C   UNL     1     -38.870 -55.051  15.168  1.00  0.00     0.187 C 
BRANCH  22  23
HETATM   23  O   UNL     1     -37.971 -56.041  15.672  1.00  0.00    -0.394 OA
HETATM   24  C   UNL     1     -37.810 -55.918  17.082  1.00  0.00     0.201 C 
ENDBRANCH  22  23
ENDBRANCH  21  22
ENDBRANCH   1  21
TORSDOF 6
ENDMDL
MODEL 8
REMARK VINA RESULT:      -5.9      3.514      5.085
REMARK  6 active torsions:
REMARK  status: ('A' for Active; 'I' for Inactive)
REMARK    1  A    between atoms: O_2  and  C_3 
REMARK    2  A    between atoms: C_3  and  C_4 
REMARK    3  A    between atoms: C_4  and  N_5 
REMARK    4  A    between atoms: C_7  and  C_14 
REMARK    5  A    between atoms: C_14  and  C_16 
REMARK    6  A    between atoms: C_22  and  O_23 
ROOT
HETATM    1  N   UNL     1     -42.988 -47.083  11.870  1.00  0.00    -0.320 N 
HETATM    2  C   UNL     1     -43.130 -48.451  12.053  1.00  0.00     0.109 C 
HETATM    3  C   UNL     1     -42.892 -49.041  13.235  1.00  0.00     0.032 C 
HETATM    4  C   UNL     1     -42.623 -48.175  14.378  1.00  0.00     0.045 C 
HETATM    5  C   UNL     1     -42.590 -46.836  14.276  1.00  0.00     0.113 C 
HETATM    6  C   UNL     1     -42.342 -46.012  15.406  1.00  0.00     0.105 C 
HETATM    7  N   UNL     1     -42.128 -45.374  16.357  1.00  0.00    -0.191 NA
HETATM    8  C   UNL     1     -42.776 -46.205  12.938  1.00  0.00     0.268 C 
HETATM    9  O   UNL     1     -42.703 -44.987  12.801  1.00  0.00    -0.266 OA
ENDROOT
BRANCH   3  10
HETATM   10  C   UNL     1     -42.919 -50.533  13.462  1.00  0.00     0.196 C 
HETATM   11  O   UNL     1     -41.843 -51.122  13.610  1.00  0.00    -0.286 OA
BRANCH  10  12
HETATM   12  C   UNL     1     -44.172 -51.347  13.546  1.00  0.00     0.049 A 
HETATM   13  C   UNL     1     -45.090 -50.973  14.550  1.00  0.00     0.025 A 
HETATM   14  C   UNL     1     -46.288 -51.677  14.748  1.00  0.00    -0.061 A 
HETATM   15  C   UNL     1     -47.189 -51.369  15.910  1.00  0.00     0.048 C 
HETATM   16  C   UNL     1     -46.602 -52.734  13.893  1.00  0.00     0.009 A 
HETATM   17  C   UNL     1     -45.692 -53.141  12.919  1.00  0.00     0.038 A 
HETATM   18  C   UNL     1     -44.464 -52.486  12.785  1.00  0.00     0.080 A 
BRANCH  18  19
HETATM   19  O   UNL     1     -43.542 -53.027  11.932  1.00  0.00    -0.360 OA
HETATM   20  H   UNL     1     -43.814 -53.929  11.690  1.00  0.00     0.217 HD
ENDBRANCH  18  19
ENDBRANCH  10  12
ENDBRANCH   3  10
BRANCH   1  21
HETATM   21  C   UNL     1     -42.917 -46.552  10.500  1.00  0.00     0.158 C 
BRANCH  21  22
HETATM   22  C   UNL     1     -42.891 -47.668   9.441  1.00  0.00     0.187 C 
BRANCH  22  23
HETATM   23  O   UNL     1     -43.891 -47.428   8.447  1.00  0.00    -0.394 OA
HETATM   24  C   UNL     1     -45.188 -47.361   9.032  1.00  0.00     0.201 C 
ENDBRANCH  22  23
ENDBRANCH  21  22
ENDBRANCH   1  21
TORSDOF 6
ENDMDL
MODEL 9
REMARK VINA RESULT:      -5.8      3.520      6.342
REMARK  6 active torsions:
REMARK  status: ('A' for Active; 'I' for Inactive)
REMARK    1  A    between atoms: O_2  and  C_3 
REMARK    2  A    between atoms: C_3  and  C_4 
REMARK    3  A    between atoms: C_4  and  N_5 
REMARK    4  A    between atoms: C_7  and  C_14 
REMARK    5  A    between atoms: C_14  and  C_16 
REMARK    6  A    between atoms: C_22  and  O_23 
ROOT
HETATM    1  N   UNL     1     -41.621 -45.838  11.333  1.00  0.00    -0.320 N 
HETATM    2  C   UNL     1     -41.088 -47.021  11.827  1.00  0.00     0.109 C 
HETATM    3  C   UNL     1     -41.714 -48.200  11.682  1.00  0.00     0.032 C 
HETATM    4  C   UNL     1     -42.910 -48.230  10.848  1.00  0.00     0.045 C 
HETATM    5  C   UNL     1     -43.401 -47.131  10.251  1.00  0.00     0.113 C 
HETATM    6  C   UNL     1     -44.559 -47.187   9.431  1.00  0.00     0.105 C 
HETATM    7  N   UNL     1     -45.515 -47.277   8.772  1.00  0.00    -0.191 NA
HETATM    8  C   UNL     1     -42.738 -45.817  10.492  1.00  0.00     0.268 C 
HETATM    9  O   UNL     1     -43.190 -44.785  10.002  1.00  0.00    -0.266 OA
ENDROOT
BRANCH   3  10
HETATM   10  C   UNL     1     -41.240 -49.495  12.296  1.00  0.00     0.196 C 
HETATM   11  O   UNL     1     -40.063 -49.574  12.661  1.00  0.00    -0.286 OA
BRANCH  10  12
HETATM   12  C   UNL     1     -42.116 -50.687  12.518  1.00  0.00     0.049 A 
HETATM   13  C   UNL     1     -43.320 -50.454  13.216  1.00  0.00     0.025 A 
HETATM   14  C   UNL     1     -44.212 -51.497  13.512  1.00  0.00    -0.061 A 
HETATM   15  C   UNL     1     -45.415 -51.270  14.381  1.00  0.00     0.048 C 
HETATM   16  C   UNL     1     -43.925 -52.783  13.052  1.00  0.00     0.009 A 
HETATM   17  C   UNL     1     -42.725 -53.041  12.393  1.00  0.00     0.038 A 
HETATM   18  C   UNL     1     -41.805 -52.010  12.177  1.00  0.00     0.080 A 
BRANCH  18  19
HETATM   19  O   UNL     1     -40.576 -52.346  11.678  1.00  0.00    -0.360 OA
HETATM   20  H   UNL     1     -40.455 -53.309  11.737  1.00  0.00     0.217 HD
ENDBRANCH  18  19
ENDBRANCH  10  12
ENDBRANCH   3  10
BRANCH   1  21
HETATM   21  C   UNL     1     -41.083 -44.558  11.818  1.00  0.00     0.158 C 
BRANCH  21  22
HETATM   22  C   UNL     1     -39.705 -44.236  11.215  1.00  0.00     0.187 C 
BRANCH  22  23
HETATM   23  O   UNL     1     -39.811 -44.081   9.798  1.00  0.00    -0.394 OA
HETATM   24  C   UNL     1     -38.762 -44.773   9.127  1.00  0.00     0.201 C 
ENDBRANCH  22  23
ENDBRANCH  21  22
ENDBRANCH   1  21
TORSDOF 6
ENDMDL
