MODEL 1
REMARK VINA RESULT:      -7.4      0.000      0.000
REMARK  4 active torsions:
REMARK  status: ('A' for Active; 'I' for Inactive)
REMARK    1  A    between atoms: C_2  and  C_5 
REMARK    2  A    between atoms: C_10  and  N_11 
REMARK       I    between atoms: N_11  and  C_12 
REMARK       I    between atoms: C_12  and  N_14 
REMARK    3  A    between atoms: N_14  and  C_15 
REMARK    4  A    between atoms: C_15  and  C_16 
ROOT
HETATM    1  N   UNL     1     -41.768 -48.028   9.947  1.00  0.00    -0.304 N 
HETATM    2  C   UNL     1     -41.460 -48.654  11.131  1.00  0.00     0.320 C 
HETATM    3  O   UNL     1     -42.191 -48.712  12.116  1.00  0.00    -0.247 OA
HETATM    4  N   UNL     1     -40.227 -49.256  11.150  1.00  0.00    -0.342 N 
HETATM    5  H   UNL     1     -41.120 -48.094   9.171  1.00  0.00     0.171 HD
HETATM    6  H   UNL     1     -39.523 -48.888  10.524  1.00  0.00     0.164 HD
ENDROOT
BRANCH   1   7
HETATM    7  C   UNL     1     -42.970 -47.396   9.665  1.00  0.00     0.105 A 
HETATM    8  C   UNL     1     -42.957 -45.897   9.497  1.00  0.00     0.272 A 
HETATM    9  N   UNL     1     -44.167 -45.308   9.188  1.00  0.00    -0.331 N 
HETATM   10  O   UNL     1     -41.924 -45.248   9.637  1.00  0.00    -0.266 OA
HETATM   11  C   UNL     1     -45.334 -46.003   8.992  1.00  0.00     0.107 A 
HETATM   12  H   UNL     1     -44.153 -44.301   9.076  1.00  0.00     0.168 HD
HETATM   13  C   UNL     1     -45.370 -47.339   9.132  1.00  0.00     0.065 A 
HETATM   14  C   UNL     1     -44.152 -48.019   9.519  1.00  0.00     0.052 A 
BRANCH  13  15
HETATM   15  C   UNL     1     -46.586 -48.182   8.856  1.00  0.00     0.418 C 
HETATM   16  F   UNL     1     -47.756 -47.500   8.971  1.00  0.00    -0.166 F 
HETATM   17  F   UNL     1     -46.665 -49.228   9.719  1.00  0.00    -0.166 F 
HETATM   18  F   UNL     1     -46.563 -48.704   7.605  1.00  0.00    -0.166 F 
ENDBRANCH  13  15
ENDBRANCH   1   7
BRANCH   4  19
HETATM   19  C   UNL     1     -39.815 -49.811  12.433  1.00  0.00     0.129 C 
BRANCH  19  20
HETATM   20  C   UNL     1     -39.549 -51.319  12.436  1.00  0.00     0.007 C 
HETATM   21  C   UNL     1     -40.823 -52.094  12.058  1.00  0.00     0.010 C 
HETATM   22  C   UNL     1     -41.124 -53.392  12.801  1.00  0.00     0.027 C 
HETATM   23  C   UNL     1     -40.163 -53.800  13.863  1.00  0.00    -0.031 C 
HETATM   24  C   UNL     1     -39.122 -53.066  14.262  1.00  0.00    -0.030 C 
HETATM   25  C   UNL     1     -38.787 -51.728  13.704  1.00  0.00     0.033 C 
ENDBRANCH  19  20
ENDBRANCH   4  19
TORSDOF 4
ENDMDL
MODEL 2
REMARK VINA RESULT:      -7.4      1.405      2.493
REMARK  4 active torsions:
REMARK  status: ('A' for Active; 'I' for Inactive)
REMARK    1  A    between atoms: C_2  and  C_5 
REMARK    2  A    between atoms: C_10  and  N_11 
REMARK       I    between atoms: N_11  and  C_12 
REMARK       I    between atoms: C_12  and  N_14 
REMARK    3  A    between atoms: N_14  and  C_15 
REMARK    4  A    between atoms: C_15  and  C_16 
ROOT
HETATM    1  N   UNL     1     -41.750 -48.072   9.813  1.00  0.00    -0.304 N 
HETATM    2  C   UNL     1     -41.444 -48.839  10.911  1.00  0.00     0.320 C 
HETATM    3  O   UNL     1     -42.184 -49.034  11.871  1.00  0.00    -0.247 OA
HETATM    4  N   UNL     1     -40.200 -49.418  10.869  1.00  0.00    -0.342 N 
HETATM    5  H   UNL     1     -41.093 -48.028   9.043  1.00  0.00     0.171 HD
HETATM    6  H   UNL     1     -39.496 -48.960  10.305  1.00  0.00     0.164 HD
ENDROOT
BRANCH   1   7
HETATM    7  C   UNL     1     -42.960 -47.430   9.599  1.00  0.00     0.105 A 
HETATM    8  C   UNL     1     -42.954 -45.925   9.503  1.00  0.00     0.272 A 
HETATM    9  N   UNL     1     -44.173 -45.324   9.260  1.00  0.00    -0.331 N 
HETATM   10  O   UNL     1     -41.917 -45.281   9.644  1.00  0.00    -0.266 OA
HETATM   11  C   UNL     1     -45.344 -46.011   9.065  1.00  0.00     0.107 A 
HETATM   12  H   UNL     1     -44.163 -44.313   9.197  1.00  0.00     0.168 HD
HETATM   13  C   UNL     1     -45.375 -47.352   9.140  1.00  0.00     0.065 A 
HETATM   14  C   UNL     1     -44.146 -48.047   9.457  1.00  0.00     0.052 A 
BRANCH  13  15
HETATM   15  C   UNL     1     -46.599 -48.184   8.860  1.00  0.00     0.418 C 
HETATM   16  F   UNL     1     -46.739 -49.242   9.701  1.00  0.00    -0.166 F 
HETATM   17  F   UNL     1     -46.570 -48.693   7.602  1.00  0.00    -0.166 F 
HETATM   18  F   UNL     1     -47.737 -47.453   8.963  1.00  0.00    -0.166 F 
ENDBRANCH  13  15
ENDBRANCH   1   7
BRANCH   4  19
HETATM   19  C   UNL     1     -39.791 -50.125  12.077  1.00  0.00     0.129 C 
BRANCH  19  20
HETATM   20  C   UNL     1     -38.442 -49.695  12.659  1.00  0.00     0.007 C 
HETATM   21  C   UNL     1     -37.894 -50.776  13.607  1.00  0.00     0.010 C 
HETATM   22  C   UNL     1     -37.198 -50.325  14.888  1.00  0.00     0.027 C 
HETATM   23  C   UNL     1     -37.123 -48.858  15.134  1.00  0.00    -0.031 C 
HETATM   24  C   UNL     1     -37.699 -47.932  14.363  1.00  0.00    -0.030 C 
HETATM   25  C   UNL     1     -38.508 -48.244  13.155  1.00  0.00     0.033 C 
ENDBRANCH  19  20
ENDBRANCH   4  19
TORSDOF 4
ENDMDL
MODEL 3
REMARK VINA RESULT:      -7.1      3.923      4.716
REMARK  4 active torsions:
REMARK  status: ('A' for Active; 'I' for Inactive)
REMARK    1  A    between atoms: C_2  and  C_5 
REMARK    2  A    between atoms: C_10  and  N_11 
REMARK       I    between atoms: N_11  and  C_12 
REMARK       I    between atoms: C_12  and  N_14 
REMARK    3  A    between atoms: N_14  and  C_15 
REMARK    4  A    between atoms: C_15  and  C_16 
ROOT
HETATM    1  N   UNL     1     -41.889 -49.110  10.752  1.00  0.00    -0.304 N 
HETATM    2  C   UNL     1     -41.848 -49.821  11.927  1.00  0.00     0.320 C 
HETATM    3  O   UNL     1     -41.860 -49.334  13.054  1.00  0.00    -0.247 OA
HETATM    4  N   UNL     1     -41.804 -51.183  11.763  1.00  0.00    -0.342 N 
HETATM    5  H   UNL     1     -41.941 -49.610   9.873  1.00  0.00     0.171 HD
HETATM    6  H   UNL     1     -41.418 -51.532  10.896  1.00  0.00     0.164 HD
ENDROOT
BRANCH   1   7
HETATM    7  C   UNL     1     -41.990 -47.730  10.656  1.00  0.00     0.105 A 
HETATM    8  C   UNL     1     -43.369 -47.127  10.563  1.00  0.00     0.272 A 
HETATM    9  N   UNL     1     -43.429 -45.749  10.498  1.00  0.00    -0.331 N 
HETATM   10  O   UNL     1     -44.374 -47.833  10.540  1.00  0.00    -0.266 OA
HETATM   11  C   UNL     1     -42.332 -44.927  10.555  1.00  0.00     0.107 A 
HETATM   12  H   UNL     1     -44.358 -45.349  10.436  1.00  0.00     0.168 HD
HETATM   13  C   UNL     1     -41.093 -45.440  10.642  1.00  0.00     0.065 A 
HETATM   14  C   UNL     1     -40.949 -46.880  10.649  1.00  0.00     0.052 A 
BRANCH  13  15
HETATM   15  C   UNL     1     -39.846 -44.609  10.790  1.00  0.00     0.418 C 
HETATM   16  F   UNL     1     -40.079 -43.271  10.750  1.00  0.00    -0.166 F 
HETATM   17  F   UNL     1     -38.958 -44.875   9.798  1.00  0.00    -0.166 F 
HETATM   18  F   UNL     1     -39.213 -44.857  11.963  1.00  0.00    -0.166 F 
ENDBRANCH  13  15
ENDBRANCH   1   7
BRANCH   4  19
HETATM   19  C   UNL     1     -41.623 -51.960  12.983  1.00  0.00     0.129 C 
BRANCH  19  20
HETATM   20  C   UNL     1     -42.287 -53.339  12.982  1.00  0.00     0.007 C 
HETATM   21  C   UNL     1     -43.749 -53.235  12.513  1.00  0.00     0.010 C 
HETATM   22  C   UNL     1     -44.795 -54.093  13.218  1.00  0.00     0.027 C 
HETATM   23  C   UNL     1     -44.318 -54.958  14.333  1.00  0.00    -0.031 C 
HETATM   24  C   UNL     1     -43.070 -54.959  14.807  1.00  0.00    -0.030 C 
HETATM   25  C   UNL     1     -41.985 -54.082  14.291  1.00  0.00     0.033 C 
ENDBRANCH  19  20
ENDBRANCH   4  19
TORSDOF 4
ENDMDL
MODEL 4
REMARK VINA RESULT:      -7.0      2.445      3.529
REMARK  4 active torsions:
REMARK  status: ('A' for Active; 'I' for Inactive)
REMARK    1  A    between atoms: C_2  and  C_5 
REMARK    2  A    between atoms: C_10  and  N_11 
REMARK       I    between atoms: N_11  and  C_12 
REMARK       I    between atoms: C_12  and  N_14 
REMARK    3  A    between atoms: N_14  and  C_15 
REMARK    4  A    between atoms: C_15  and  C_16 
ROOT
HETATM    1  N   UNL     1     -40.885 -49.848  10.920  1.00  0.00    -0.304 N 
HETATM    2  C   UNL     1     -41.137 -50.624  12.025  1.00  0.00     0.320 C 
HETATM    3  O   UNL     1     -41.660 -50.232  13.065  1.00  0.00    -0.247 OA
HETATM    4  N   UNL     1     -40.763 -51.938  11.893  1.00  0.00    -0.342 N 
HETATM    5  H   UNL     1     -40.508 -50.284  10.086  1.00  0.00     0.171 HD
HETATM    6  H   UNL     1     -40.023 -52.144  11.235  1.00  0.00     0.164 HD
ENDROOT
BRANCH   1   7
HETATM    7  C   UNL     1     -41.219 -48.508  10.790  1.00  0.00     0.105 A 
HETATM    8  C   UNL     1     -40.288 -47.487  11.395  1.00  0.00     0.272 A 
HETATM    9  N   UNL     1     -40.639 -46.163  11.219  1.00  0.00    -0.331 N 
HETATM   10  O   UNL     1     -39.283 -47.827  12.014  1.00  0.00    -0.266 OA
HETATM   11  C   UNL     1     -41.735 -45.745  10.506  1.00  0.00     0.107 A 
HETATM   12  H   UNL     1     -40.011 -45.481  11.628  1.00  0.00     0.168 HD
HETATM   13  C   UNL     1     -42.576 -46.636   9.954  1.00  0.00     0.065 A 
HETATM   14  C   UNL     1     -42.307 -48.044  10.153  1.00  0.00     0.052 A 
BRANCH  13  15
HETATM   15  C   UNL     1     -43.752 -46.261   9.092  1.00  0.00     0.418 C 
HETATM   16  F   UNL     1     -44.894 -46.922   9.415  1.00  0.00    -0.166 F 
HETATM   17  F   UNL     1     -43.509 -46.530   7.784  1.00  0.00    -0.166 F 
HETATM   18  F   UNL     1     -44.035 -44.937   9.176  1.00  0.00    -0.166 F 
ENDBRANCH  13  15
ENDBRANCH   1   7
BRANCH   4  19
HETATM   19  C   UNL     1     -40.891 -52.755  13.094  1.00  0.00     0.129 C 
BRANCH  19  20
HETATM   20  C   UNL     1     -41.960 -53.849  13.027  1.00  0.00     0.007 C 
HETATM   21  C   UNL     1     -43.235 -53.318  12.348  1.00  0.00     0.010 C 
HETATM   22  C   UNL     1     -44.585 -53.751  12.913  1.00  0.00     0.027 C 
HETATM   23  C   UNL     1     -44.562 -54.645  14.103  1.00  0.00    -0.031 C 
HETATM   24  C   UNL     1     -43.455 -55.010  14.753  1.00  0.00    -0.030 C 
HETATM   25  C   UNL     1     -42.087 -54.560  14.381  1.00  0.00     0.033 C 
ENDBRANCH  19  20
ENDBRANCH   4  19
TORSDOF 4
ENDMDL
MODEL 5
REMARK VINA RESULT:      -7.0      4.250      6.208
REMARK  4 active torsions:
REMARK  status: ('A' for Active; 'I' for Inactive)
REMARK    1  A    between atoms: C_2  and  C_5 
REMARK    2  A    between atoms: C_10  and  N_11 
REMARK       I    between atoms: N_11  and  C_12 
REMARK       I    between atoms: C_12  and  N_14 
REMARK    3  A    between atoms: N_14  and  C_15 
REMARK    4  A    between atoms: C_15  and  C_16 
ROOT
HETATM    1  N   UNL     1     -41.674 -51.695  11.596  1.00  0.00    -0.304 N 
HETATM    2  C   UNL     1     -42.387 -52.322  12.589  1.00  0.00     0.320 C 
HETATM    3  O   UNL     1     -42.357 -52.026  13.780  1.00  0.00    -0.247 OA
HETATM    4  N   UNL     1     -43.189 -53.346  12.151  1.00  0.00    -0.342 N 
HETATM    5  H   UNL     1     -41.819 -51.974  10.632  1.00  0.00     0.171 HD
HETATM    6  H   UNL     1     -42.921 -53.808  11.292  1.00  0.00     0.164 HD
ENDROOT
BRANCH   1   7
HETATM    7  C   UNL     1     -40.838 -50.603  11.778  1.00  0.00     0.105 A 
HETATM    8  C   UNL     1     -39.462 -50.854  12.341  1.00  0.00     0.272 A 
HETATM    9  N   UNL     1     -38.649 -49.747  12.480  1.00  0.00    -0.331 N 
HETATM   10  O   UNL     1     -39.099 -51.983  12.661  1.00  0.00    -0.266 OA
HETATM   11  C   UNL     1     -39.007 -48.477  12.103  1.00  0.00     0.107 A 
HETATM   12  H   UNL     1     -37.725 -49.920  12.859  1.00  0.00     0.168 HD
HETATM   13  C   UNL     1     -40.226 -48.229  11.595  1.00  0.00     0.065 A 
HETATM   14  C   UNL     1     -41.156 -49.332  11.480  1.00  0.00     0.052 A 
BRANCH  13  15
HETATM   15  C   UNL     1     -40.667 -46.883  11.084  1.00  0.00     0.418 C 
HETATM   16  F   UNL     1     -41.651 -46.954  10.149  1.00  0.00    -0.166 F 
HETATM   17  F   UNL     1     -39.636 -46.214  10.506  1.00  0.00    -0.166 F 
HETATM   18  F   UNL     1     -41.138 -46.096  12.083  1.00  0.00    -0.166 F 
ENDBRANCH  13  15
ENDBRANCH   1   7
BRANCH   4  19
HETATM   19  C   UNL     1     -43.853 -54.118  13.194  1.00  0.00     0.129 C 
BRANCH  19  20
HETATM   20  C   UNL     1     -45.283 -53.677  13.520  1.00  0.00     0.007 C 
HETATM   21  C   UNL     1     -45.791 -52.672  12.473  1.00  0.00     0.010 C 
HETATM   22  C   UNL     1     -46.632 -51.493  12.954  1.00  0.00     0.027 C 
HETATM   23  C   UNL     1     -46.879 -51.395  14.419  1.00  0.00    -0.031 C 
HETATM   24  C   UNL     1     -46.342 -52.207  15.332  1.00  0.00    -0.030 C 
HETATM   25  C   UNL     1     -45.409 -53.319  15.007  1.00  0.00     0.033 C 
ENDBRANCH  19  20
ENDBRANCH   4  19
TORSDOF 4
ENDMDL
MODEL 6
REMARK VINA RESULT:      -6.9      3.751      7.019
REMARK  4 active torsions:
REMARK  status: ('A' for Active; 'I' for Inactive)
REMARK    1  A    between atoms: C_2  and  C_5 
REMARK    2  A    between atoms: C_10  and  N_11 
REMARK       I    between atoms: N_11  and  C_12 
REMARK       I    between atoms: C_12  and  N_14 
REMARK    3  A    between atoms: N_14  and  C_15 
REMARK    4  A    between atoms: C_15  and  C_16 
ROOT
HETATM    1  N   UNL     1     -41.367 -51.407  11.431  1.00  0.00    -0.304 N 
HETATM    2  C   UNL     1     -41.530 -50.066  11.684  1.00  0.00     0.320 C 
HETATM    3  O   UNL     1     -42.107 -49.592  12.657  1.00  0.00    -0.247 OA
HETATM    4  N   UNL     1     -40.968 -49.240  10.743  1.00  0.00    -0.342 N 
HETATM    5  H   UNL     1     -40.816 -51.695  10.631  1.00  0.00     0.171 HD
HETATM    6  H   UNL     1     -40.853 -49.612   9.810  1.00  0.00     0.164 HD
ENDROOT
BRANCH   1   7
HETATM    7  C   UNL     1     -41.797 -52.435  12.257  1.00  0.00     0.105 A 
HETATM    8  C   UNL     1     -40.758 -53.179  13.057  1.00  0.00     0.272 A 
HETATM    9  N   UNL     1     -41.228 -54.176  13.888  1.00  0.00    -0.331 N 
HETATM   10  O   UNL     1     -39.563 -52.910  12.958  1.00  0.00    -0.266 OA
HETATM   11  C   UNL     1     -42.556 -54.482  14.049  1.00  0.00     0.107 A 
HETATM   12  H   UNL     1     -40.526 -54.673  14.424  1.00  0.00     0.168 HD
HETATM   13  C   UNL     1     -43.500 -53.830  13.351  1.00  0.00     0.065 A 
HETATM   14  C   UNL     1     -43.077 -52.816  12.410  1.00  0.00     0.052 A 
BRANCH  13  15
HETATM   15  C   UNL     1     -44.980 -54.050  13.527  1.00  0.00     0.418 C 
HETATM   16  F   UNL     1     -45.427 -53.750  14.774  1.00  0.00    -0.166 F 
HETATM   17  F   UNL     1     -45.315 -55.346  13.299  1.00  0.00    -0.166 F 
HETATM   18  F   UNL     1     -45.706 -53.297  12.664  1.00  0.00    -0.166 F 
ENDBRANCH  13  15
ENDBRANCH   1   7
BRANCH   4  19
HETATM   19  C   UNL     1     -41.239 -47.817  10.910  1.00  0.00     0.129 C 
BRANCH  19  20
HETATM   20  C   UNL     1     -40.017 -46.955  11.236  1.00  0.00     0.007 C 
HETATM   21  C   UNL     1     -39.678 -47.041  12.734  1.00  0.00     0.010 C 
HETATM   22  C   UNL     1     -39.229 -45.768  13.446  1.00  0.00     0.027 C 
HETATM   23  C   UNL     1     -39.176 -44.523  12.631  1.00  0.00    -0.031 C 
HETATM   24  C   UNL     1     -39.578 -44.433  11.361  1.00  0.00    -0.030 C 
HETATM   25  C   UNL     1     -40.149 -45.569  10.589  1.00  0.00     0.033 C 
ENDBRANCH  19  20
ENDBRANCH   4  19
TORSDOF 4
ENDMDL
MODEL 7
REMARK VINA RESULT:      -6.9      4.223      6.116
REMARK  4 active torsions:
REMARK  status: ('A' for Active; 'I' for Inactive)
REMARK    1  A    between atoms: C_2  and  C_5 
REMARK    2  A    between atoms: C_10  and  N_11 
REMARK       I    between atoms: N_11  and  C_12 
REMARK       I    between atoms: C_12  and  N_14 
REMARK    3  A    between atoms: N_14  and  C_15 
REMARK    4  A    between atoms: C_15  and  C_16 
ROOT
HETATM    1  N   UNL     1     -42.102 -52.231  11.766  1.00  0.00    -0.304 N 
HETATM    2  C   UNL     1     -41.539 -51.000  11.999  1.00  0.00     0.320 C 
HETATM    3  O   UNL     1     -41.786 -50.276  12.960  1.00  0.00    -0.247 OA
HETATM    4  N   UNL     1     -40.625 -50.606  11.054  1.00  0.00    -0.342 N 
HETATM    5  H   UNL     1     -41.781 -52.779  10.976  1.00  0.00     0.171 HD
HETATM    6  H   UNL     1     -40.720 -51.000  10.127  1.00  0.00     0.164 HD
ENDROOT
BRANCH   1   7
HETATM    7  C   UNL     1     -43.009 -52.868  12.600  1.00  0.00     0.105 A 
HETATM    8  C   UNL     1     -42.516 -54.030  13.425  1.00  0.00     0.272 A 
HETATM    9  N   UNL     1     -43.441 -54.618  14.264  1.00  0.00    -0.331 N 
HETATM   10  O   UNL     1     -41.356 -54.426  13.339  1.00  0.00    -0.266 OA
HETATM   11  C   UNL     1     -44.734 -54.183  14.410  1.00  0.00     0.107 A 
HETATM   12  H   UNL     1     -43.104 -55.399  14.815  1.00  0.00     0.168 HD
HETATM   13  C   UNL     1     -45.196 -53.147  13.690  1.00  0.00     0.065 A 
HETATM   14  C   UNL     1     -44.300 -52.521  12.741  1.00  0.00     0.052 A 
BRANCH  13  15
HETATM   15  C   UNL     1     -46.573 -52.558  13.849  1.00  0.00     0.418 C 
HETATM   16  F   UNL     1     -47.444 -53.382  14.489  1.00  0.00    -0.166 F 
HETATM   17  F   UNL     1     -47.128 -52.273  12.643  1.00  0.00    -0.166 F 
HETATM   18  F   UNL     1     -46.545 -51.400  14.554  1.00  0.00    -0.166 F 
ENDBRANCH  13  15
ENDBRANCH   1   7
BRANCH   4  19
HETATM   19  C   UNL     1     -40.112 -49.250  11.199  1.00  0.00     0.129 C 
BRANCH  19  20
HETATM   20  C   UNL     1     -38.749 -49.139  11.889  1.00  0.00     0.007 C 
HETATM   21  C   UNL     1     -38.046 -50.507  11.920  1.00  0.00     0.010 C 
HETATM   22  C   UNL     1     -37.273 -50.892  13.178  1.00  0.00     0.027 C 
HETATM   23  C   UNL     1     -37.278 -49.911  14.299  1.00  0.00    -0.031 C 
HETATM   24  C   UNL     1     -37.982 -48.777  14.307  1.00  0.00    -0.030 C 
HETATM   25  C   UNL     1     -38.871 -48.344  13.196  1.00  0.00     0.033 C 
ENDBRANCH  19  20
ENDBRANCH   4  19
TORSDOF 4
ENDMDL
MODEL 8
REMARK VINA RESULT:      -6.5      2.479      3.426
REMARK  4 active torsions:
REMARK  status: ('A' for Active; 'I' for Inactive)
REMARK    1  A    between atoms: C_2  and  C_5 
REMARK    2  A    between atoms: C_10  and  N_11 
REMARK       I    between atoms: N_11  and  C_12 
REMARK       I    between atoms: C_12  and  N_14 
REMARK    3  A    between atoms: N_14  and  C_15 
REMARK    4  A    between atoms: C_15  and  C_16 
ROOT
HETATM    1  N   UNL     1     -41.212 -50.012  11.224  1.00  0.00    -0.304 N 
HETATM    2  C   UNL     1     -41.901 -50.707  12.188  1.00  0.00     0.320 C 
HETATM    3  O   UNL     1     -42.679 -50.216  12.999  1.00  0.00    -0.247 OA
HETATM    4  N   UNL     1     -41.668 -52.060  12.185  1.00  0.00    -0.342 N 
HETATM    5  H   UNL     1     -40.642 -50.522  10.559  1.00  0.00     0.171 HD
HETATM    6  H   UNL     1     -40.787 -52.377  11.804  1.00  0.00     0.164 HD
ENDROOT
BRANCH   1   7
HETATM    7  C   UNL     1     -41.317 -48.648  10.992  1.00  0.00     0.105 A 
HETATM    8  C   UNL     1     -40.200 -47.760  11.478  1.00  0.00     0.272 A 
HETATM    9  N   UNL     1     -40.328 -46.413  11.202  1.00  0.00    -0.331 N 
HETATM   10  O   UNL     1     -39.240 -48.220  12.091  1.00  0.00    -0.266 OA
HETATM   11  C   UNL     1     -41.368 -45.868  10.492  1.00  0.00     0.107 A 
HETATM   12  H   UNL     1     -39.575 -45.821  11.531  1.00  0.00     0.168 HD
HETATM   13  C   UNL     1     -42.373 -46.639  10.045  1.00  0.00     0.065 A 
HETATM   14  C   UNL     1     -42.340 -48.053  10.353  1.00  0.00     0.052 A 
BRANCH  13  15
HETATM   15  C   UNL     1     -43.507 -46.134   9.193  1.00  0.00     0.418 C 
HETATM   16  F   UNL     1     -43.827 -44.835   9.430  1.00  0.00    -0.166 F 
HETATM   17  F   UNL     1     -44.640 -46.853   9.404  1.00  0.00    -0.166 F 
HETATM   18  F   UNL     1     -43.222 -46.227   7.870  1.00  0.00    -0.166 F 
ENDBRANCH  13  15
ENDBRANCH   1   7
BRANCH   4  19
HETATM   19  C   UNL     1     -42.278 -52.807  13.279  1.00  0.00     0.129 C 
BRANCH  19  20
HETATM   20  C   UNL     1     -41.538 -54.084  13.688  1.00  0.00     0.007 C 
HETATM   21  C   UNL     1     -42.074 -54.612  15.030  1.00  0.00     0.010 C 
HETATM   22  C   UNL     1     -41.073 -55.183  16.030  1.00  0.00     0.027 C 
HETATM   23  C   UNL     1     -39.638 -55.164  15.634  1.00  0.00    -0.031 C 
HETATM   24  C   UNL     1     -39.170 -54.602  14.517  1.00  0.00    -0.030 C 
HETATM   25  C   UNL     1     -40.023 -53.905  13.518  1.00  0.00     0.033 C 
ENDBRANCH  19  20
ENDBRANCH   4  19
TORSDOF 4
ENDMDL
MODEL 9
REMARK VINA RESULT:      -6.5      3.830      6.709
REMARK  4 active torsions:
REMARK  status: ('A' for Active; 'I' for Inactive)
REMARK    1  A    between atoms: C_2  and  C_5 
REMARK    2  A    between atoms: C_10  and  N_11 
REMARK       I    between atoms: N_11  and  C_12 
REMARK       I    between atoms: C_12  and  N_14 
REMARK    3  A    between atoms: N_14  and  C_15 
REMARK    4  A    between atoms: C_15  and  C_16 
ROOT
HETATM    1  N   UNL     1     -42.353 -52.002  11.902  1.00  0.00    -0.304 N 
HETATM    2  C   UNL     1     -41.417 -51.057  12.246  1.00  0.00     0.320 C 
HETATM    3  O   UNL     1     -41.216 -50.636  13.381  1.00  0.00    -0.247 OA
HETATM    4  N   UNL     1     -40.668 -50.593  11.193  1.00  0.00    -0.342 N 
HETATM    5  H   UNL     1     -42.396 -52.330  10.944  1.00  0.00     0.171 HD
HETATM    6  H   UNL     1     -41.082 -50.645  10.273  1.00  0.00     0.164 HD
ENDROOT
BRANCH   1   7
HETATM    7  C   UNL     1     -43.193 -52.658  12.791  1.00  0.00     0.105 A 
HETATM    8  C   UNL     1     -42.693 -53.932  13.424  1.00  0.00     0.272 A 
HETATM    9  N   UNL     1     -43.545 -54.539  14.325  1.00  0.00    -0.331 N 
HETATM   10  O   UNL     1     -41.593 -54.397  13.140  1.00  0.00    -0.266 OA
HETATM   11  C   UNL     1     -44.767 -54.032  14.692  1.00  0.00     0.107 A 
HETATM   12  H   UNL     1     -43.205 -55.395  14.747  1.00  0.00     0.168 HD
HETATM   13  C   UNL     1     -45.231 -52.896  14.145  1.00  0.00     0.065 A 
HETATM   14  C   UNL     1     -44.420 -52.238  13.143  1.00  0.00     0.052 A 
BRANCH  13  15
HETATM   15  C   UNL     1     -46.521 -52.233  14.550  1.00  0.00     0.418 C 
HETATM   16  F   UNL     1     -47.551 -53.104  14.714  1.00  0.00    -0.166 F 
HETATM   17  F   UNL     1     -46.925 -51.332  13.618  1.00  0.00    -0.166 F 
HETATM   18  F   UNL     1     -46.393 -51.559  15.720  1.00  0.00    -0.166 F 
ENDBRANCH  13  15
ENDBRANCH   1   7
BRANCH   4  19
HETATM   19  C   UNL     1     -39.761 -49.494  11.502  1.00  0.00     0.129 C 
BRANCH  19  20
HETATM   20  C   UNL     1     -40.355 -48.093  11.339  1.00  0.00     0.007 C 
HETATM   21  C   UNL     1     -40.324 -47.333  12.676  1.00  0.00     0.010 C 
HETATM   22  C   UNL     1     -41.521 -46.459  13.037  1.00  0.00     0.027 C 
HETATM   23  C   UNL     1     -42.650 -46.427  12.066  1.00  0.00    -0.031 C 
HETATM   24  C   UNL     1     -42.718 -47.175  10.962  1.00  0.00    -0.030 C 
HETATM   25  C   UNL     1     -41.676 -48.156  10.558  1.00  0.00     0.033 C 
ENDBRANCH  19  20
ENDBRANCH   4  19
TORSDOF 4
ENDMDL
