MODEL 1
REMARK VINA RESULT:      -6.1      0.000      0.000
REMARK  4 active torsions:
REMARK  status: ('A' for Active; 'I' for Inactive)
REMARK    1  A    between atoms: C_5  and  C_6 
REMARK    2  A    between atoms: C_6  and  C_7 
REMARK    3  A    between atoms: C_7  and  N_8 
REMARK       I    between atoms: N_8  and  C_9 
REMARK       I    between atoms: C_9  and  N_11 
REMARK    4  A    between atoms: N_11  and  C_12 
ROOT
HETATM    1  N   UNL     1     -41.656 -50.562  11.730  1.00  0.00    -0.343 N 
HETATM    2  C   UNL     1     -41.644 -51.891  12.059  1.00  0.00     0.316 C 
HETATM    3  O   UNL     1     -40.645 -52.595  12.031  1.00  0.00    -0.247 OA
HETATM    4  N   UNL     1     -42.899 -52.324  12.415  1.00  0.00    -0.339 N 
HETATM    5  H   UNL     1     -42.536 -50.188  11.402  1.00  0.00     0.164 HD
HETATM    6  H   UNL     1     -43.444 -51.606  12.872  1.00  0.00     0.164 HD
ENDROOT
BRANCH   1   7
HETATM    7  C   UNL     1     -40.451 -49.902  11.249  1.00  0.00     0.130 C 
BRANCH   7   8
HETATM    8  C   UNL     1     -40.463 -48.385  11.452  1.00  0.00     0.077 C 
BRANCH   8   9
HETATM    9  C   UNL     1     -41.510 -47.695  10.633  1.00  0.00     0.018 A 
HETATM   10  N   UNL     1     -41.966 -48.308   9.476  1.00  0.00    -0.357 N 
HETATM   11  C   UNL     1     -42.887 -47.564   8.899  1.00  0.00     0.046 A 
ATOM     12  HN  UNL     1     -41.635 -49.206   9.123  1.00  0.00     0.166 HD
HETATM   13  C   UNL     1     -43.593 -47.919   7.639  1.00  0.00     0.076 C 
HETATM   14  S   UNL     1     -43.253 -46.090   9.703  1.00  0.00    -0.087 SA
HETATM   15  C   UNL     1     -42.104 -46.478  10.912  1.00  0.00     0.076 A 
ENDBRANCH   8   9
ENDBRANCH   7   8
ENDBRANCH   1   7
BRANCH   4  16
HETATM   16  C   UNL     1     -43.098 -53.678  12.900  1.00  0.00     0.086 C 
HETATM   17  C   UNL     1     -44.554 -54.154  12.806  1.00  0.00     0.025 C 
HETATM   18  C   UNL     1     -44.820 -54.997  14.052  1.00  0.00     0.002 C 
HETATM   19  C   UNL     1     -43.503 -55.062  14.810  1.00  0.00     0.002 C 
HETATM   20  C   UNL     1     -42.760 -53.808  14.382  1.00  0.00     0.025 C 
ENDBRANCH   4  16
TORSDOF 4
ENDMDL
MODEL 2
REMARK VINA RESULT:      -5.7      2.639      6.662
REMARK  4 active torsions:
REMARK  status: ('A' for Active; 'I' for Inactive)
REMARK    1  A    between atoms: C_5  and  C_6 
REMARK    2  A    between atoms: C_6  and  C_7 
REMARK    3  A    between atoms: C_7  and  N_8 
REMARK       I    between atoms: N_8  and  C_9 
REMARK       I    between atoms: C_9  and  N_11 
REMARK    4  A    between atoms: N_11  and  C_12 
ROOT
HETATM    1  N   UNL     1     -40.555 -50.782  11.422  1.00  0.00    -0.343 N 
HETATM    2  C   UNL     1     -41.534 -49.839  11.590  1.00  0.00     0.316 C 
HETATM    3  O   UNL     1     -42.228 -49.746  12.592  1.00  0.00    -0.247 OA
HETATM    4  N   UNL     1     -41.633 -49.026  10.488  1.00  0.00    -0.339 N 
HETATM    5  H   UNL     1     -40.333 -51.033  10.468  1.00  0.00     0.164 HD
HETATM    6  H   UNL     1     -40.744 -48.881  10.029  1.00  0.00     0.164 HD
ENDROOT
BRANCH   1   7
HETATM    7  C   UNL     1     -40.320 -51.803  12.433  1.00  0.00     0.130 C 
BRANCH   7   8
HETATM    8  C   UNL     1     -40.988 -53.143  12.113  1.00  0.00     0.077 C 
BRANCH   8   9
HETATM    9  C   UNL     1     -42.330 -53.295  12.759  1.00  0.00     0.018 A 
HETATM   10  N   UNL     1     -43.439 -52.747  12.133  1.00  0.00    -0.357 N 
HETATM   11  C   UNL     1     -44.525 -52.989  12.838  1.00  0.00     0.046 A 
ATOM     12  HN  UNL     1     -43.417 -52.230  11.254  1.00  0.00     0.166 HD
HETATM   13  C   UNL     1     -45.895 -52.547  12.460  1.00  0.00     0.076 C 
HETATM   14  S   UNL     1     -44.280 -53.878  14.288  1.00  0.00    -0.087 SA
HETATM   15  C   UNL     1     -42.604 -53.950  13.945  1.00  0.00     0.076 A 
ENDBRANCH   8   9
ENDBRANCH   7   8
ENDBRANCH   1   7
BRANCH   4  16
HETATM   16  C   UNL     1     -42.539 -47.892  10.493  1.00  0.00     0.086 C 
HETATM   17  C   UNL     1     -43.257 -47.675   9.152  1.00  0.00     0.025 C 
HETATM   18  C   UNL     1     -43.351 -46.165   8.945  1.00  0.00     0.002 C 
HETATM   19  C   UNL     1     -42.759 -45.527  10.193  1.00  0.00     0.002 C 
HETATM   20  C   UNL     1     -41.805 -46.577  10.735  1.00  0.00     0.025 C 
ENDBRANCH   4  16
TORSDOF 4
ENDMDL
MODEL 3
REMARK VINA RESULT:      -5.7      2.587      6.425
REMARK  4 active torsions:
REMARK  status: ('A' for Active; 'I' for Inactive)
REMARK    1  A    between atoms: C_5  and  C_6 
REMARK    2  A    between atoms: C_6  and  C_7 
REMARK    3  A    between atoms: C_7  and  N_8 
REMARK       I    between atoms: N_8  and  C_9 
REMARK       I    between atoms: C_9  and  N_11 
REMARK    4  A    between atoms: N_11  and  C_12 
ROOT
HETATM    1  N   UNL     1     -40.766 -49.468  10.631  1.00  0.00    -0.343 N 
HETATM    2  C   UNL     1     -41.656 -48.478  10.953  1.00  0.00     0.316 C 
HETATM    3  O   UNL     1     -41.611 -47.828  11.988  1.00  0.00    -0.247 OA
HETATM    4  N   UNL     1     -42.600 -48.321   9.968  1.00  0.00    -0.339 N 
HETATM    5  H   UNL     1     -41.101 -50.183   9.999  1.00  0.00     0.164 HD
HETATM    6  H   UNL     1     -42.236 -48.512   9.045  1.00  0.00     0.164 HD
ENDROOT
BRANCH   1   7
HETATM    7  C   UNL     1     -39.719 -49.862  11.562  1.00  0.00     0.130 C 
BRANCH   7   8
HETATM    8  C   UNL     1     -39.868 -51.296  12.077  1.00  0.00     0.077 C 
BRANCH   8   9
HETATM    9  C   UNL     1     -41.215 -51.564  12.676  1.00  0.00     0.018 A 
HETATM   10  N   UNL     1     -42.028 -52.521  12.089  1.00  0.00    -0.357 N 
HETATM   11  C   UNL     1     -43.160 -52.626  12.755  1.00  0.00     0.046 A 
ATOM     12  HN  UNL     1     -41.786 -53.065  11.261  1.00  0.00     0.166 HD
HETATM   13  C   UNL     1     -44.264 -53.559  12.404  1.00  0.00     0.076 C 
HETATM   14  S   UNL     1     -43.315 -51.584  14.113  1.00  0.00    -0.087 SA
HETATM   15  C   UNL     1     -41.756 -50.953  13.791  1.00  0.00     0.076 A 
ENDBRANCH   8   9
ENDBRANCH   7   8
ENDBRANCH   1   7
BRANCH   4  16
HETATM   16  C   UNL     1     -43.582 -47.255  10.056  1.00  0.00     0.086 C 
HETATM   17  C   UNL     1     -45.020 -47.723   9.786  1.00  0.00     0.025 C 
HETATM   18  C   UNL     1     -45.705 -46.603   9.005  1.00  0.00     0.002 C 
HETATM   19  C   UNL     1     -44.688 -45.476   8.899  1.00  0.00     0.002 C 
HETATM   20  C   UNL     1     -43.342 -46.171   9.010  1.00  0.00     0.025 C 
ENDBRANCH   4  16
TORSDOF 4
ENDMDL
MODEL 4
REMARK VINA RESULT:      -5.6      1.597      1.914
REMARK  4 active torsions:
REMARK  status: ('A' for Active; 'I' for Inactive)
REMARK    1  A    between atoms: C_5  and  C_6 
REMARK    2  A    between atoms: C_6  and  C_7 
REMARK    3  A    between atoms: C_7  and  N_8 
REMARK       I    between atoms: N_8  and  C_9 
REMARK       I    between atoms: C_9  and  N_11 
REMARK    4  A    between atoms: N_11  and  C_12 
ROOT
HETATM    1  N   UNL     1     -42.162 -50.239  11.774  1.00  0.00    -0.343 N 
HETATM    2  C   UNL     1     -42.586 -50.909  12.891  1.00  0.00     0.316 C 
HETATM    3  O   UNL     1     -42.430 -50.502  14.033  1.00  0.00    -0.247 OA
HETATM    4  N   UNL     1     -43.199 -52.092  12.556  1.00  0.00    -0.339 N 
HETATM    5  H   UNL     1     -41.973 -50.804  10.957  1.00  0.00     0.164 HD
HETATM    6  H   UNL     1     -43.690 -52.041  11.674  1.00  0.00     0.164 HD
ENDROOT
BRANCH   1   7
HETATM    7  C   UNL     1     -41.419 -48.993  11.888  1.00  0.00     0.130 C 
BRANCH   7   8
HETATM    8  C   UNL     1     -42.308 -47.773  12.141  1.00  0.00     0.077 C 
BRANCH   8   9
HETATM    9  C   UNL     1     -43.052 -47.329  10.920  1.00  0.00     0.018 A 
HETATM   10  N   UNL     1     -44.266 -47.929  10.622  1.00  0.00    -0.357 N 
HETATM   11  C   UNL     1     -44.775 -47.406   9.526  1.00  0.00     0.046 A 
ATOM     12  HN  UNL     1     -44.701 -48.669  11.173  1.00  0.00     0.166 HD
HETATM   13  C   UNL     1     -46.071 -47.813   8.918  1.00  0.00     0.076 C 
HETATM   14  S   UNL     1     -43.829 -46.176   8.788  1.00  0.00    -0.087 SA
HETATM   15  C   UNL     1     -42.660 -46.350  10.027  1.00  0.00     0.076 A 
ENDBRANCH   8   9
ENDBRANCH   7   8
ENDBRANCH   1   7
BRANCH   4  16
HETATM   16  C   UNL     1     -43.815 -52.914  13.581  1.00  0.00     0.086 C 
HETATM   17  C   UNL     1     -42.824 -53.839  14.303  1.00  0.00     0.025 C 
HETATM   18  C   UNL     1     -43.559 -55.153  14.559  1.00  0.00     0.002 C 
HETATM   19  C   UNL     1     -44.981 -54.951  14.056  1.00  0.00     0.002 C 
HETATM   20  C   UNL     1     -44.854 -53.868  12.998  1.00  0.00     0.025 C 
ENDBRANCH   4  16
TORSDOF 4
ENDMDL
MODEL 5
REMARK VINA RESULT:      -5.6      1.979      2.615
REMARK  4 active torsions:
REMARK  status: ('A' for Active; 'I' for Inactive)
REMARK    1  A    between atoms: C_5  and  C_6 
REMARK    2  A    between atoms: C_6  and  C_7 
REMARK    3  A    between atoms: C_7  and  N_8 
REMARK       I    between atoms: N_8  and  C_9 
REMARK       I    between atoms: C_9  and  N_11 
REMARK    4  A    between atoms: N_11  and  C_12 
ROOT
HETATM    1  N   UNL     1     -41.038 -51.271  11.290  1.00  0.00    -0.343 N 
HETATM    2  C   UNL     1     -41.773 -51.561  12.409  1.00  0.00     0.316 C 
HETATM    3  O   UNL     1     -41.905 -50.800  13.357  1.00  0.00    -0.247 OA
HETATM    4  N   UNL     1     -42.331 -52.813  12.324  1.00  0.00    -0.339 N 
HETATM    5  H   UNL     1     -40.666 -52.061  10.781  1.00  0.00     0.164 HD
HETATM    6  H   UNL     1     -42.569 -53.071  11.376  1.00  0.00     0.164 HD
ENDROOT
BRANCH   1   7
HETATM    7  C   UNL     1     -40.292 -50.025  11.190  1.00  0.00     0.130 C 
BRANCH   7   8
HETATM    8  C   UNL     1     -41.146 -48.837  10.740  1.00  0.00     0.077 C 
BRANCH   8   9
HETATM    9  C   UNL     1     -40.663 -47.530  11.289  1.00  0.00     0.018 A 
HETATM   10  N   UNL     1     -40.480 -46.466  10.418  1.00  0.00    -0.357 N 
HETATM   11  C   UNL     1     -40.065 -45.404  11.079  1.00  0.00     0.046 A 
ATOM     12  HN  UNL     1     -40.642 -46.501   9.412  1.00  0.00     0.166 HD
HETATM   13  C   UNL     1     -39.770 -44.085  10.458  1.00  0.00     0.076 C 
HETATM   14  S   UNL     1     -39.866 -45.621  12.772  1.00  0.00    -0.087 SA
HETATM   15  C   UNL     1     -40.377 -47.247  12.611  1.00  0.00     0.076 A 
ENDBRANCH   8   9
ENDBRANCH   7   8
ENDBRANCH   1   7
BRANCH   4  16
HETATM   16  C   UNL     1     -43.235 -53.285  13.357  1.00  0.00     0.086 C 
HETATM   17  C   UNL     1     -42.564 -54.208  14.384  1.00  0.00     0.025 C 
HETATM   18  C   UNL     1     -43.586 -55.288  14.736  1.00  0.00     0.002 C 
HETATM   19  C   UNL     1     -44.855 -54.937  13.973  1.00  0.00     0.002 C 
HETATM   20  C   UNL     1     -44.366 -54.132  12.782  1.00  0.00     0.025 C 
ENDBRANCH   4  16
TORSDOF 4
ENDMDL
MODEL 6
REMARK VINA RESULT:      -5.5      2.249      2.876
REMARK  4 active torsions:
REMARK  status: ('A' for Active; 'I' for Inactive)
REMARK    1  A    between atoms: C_5  and  C_6 
REMARK    2  A    between atoms: C_6  and  C_7 
REMARK    3  A    between atoms: C_7  and  N_8 
REMARK       I    between atoms: N_8  and  C_9 
REMARK       I    between atoms: C_9  and  N_11 
REMARK    4  A    between atoms: N_11  and  C_12 
ROOT
HETATM    1  N   UNL     1     -42.354 -52.428  11.789  1.00  0.00    -0.343 N 
HETATM    2  C   UNL     1     -43.393 -52.441  12.681  1.00  0.00     0.316 C 
HETATM    3  O   UNL     1     -43.283 -52.151  13.864  1.00  0.00    -0.247 OA
HETATM    4  N   UNL     1     -44.563 -52.826  12.073  1.00  0.00    -0.339 N 
HETATM    5  H   UNL     1     -42.443 -53.040  10.989  1.00  0.00     0.164 HD
HETATM    6  H   UNL     1     -44.616 -52.532  11.107  1.00  0.00     0.164 HD
ENDROOT
BRANCH   1   7
HETATM    7  C   UNL     1     -41.000 -52.123  12.226  1.00  0.00     0.130 C 
BRANCH   7   8
HETATM    8  C   UNL     1     -40.465 -50.797  11.675  1.00  0.00     0.077 C 
BRANCH   8   9
HETATM    9  C   UNL     1     -41.377 -49.641  11.949  1.00  0.00     0.018 A 
HETATM   10  N   UNL     1     -42.088 -49.086  10.896  1.00  0.00    -0.357 N 
HETATM   11  C   UNL     1     -42.840 -48.095  11.327  1.00  0.00     0.046 A 
ATOM     12  HN  UNL     1     -42.035 -49.400   9.927  1.00  0.00     0.166 HD
HETATM   13  C   UNL     1     -43.735 -47.276  10.466  1.00  0.00     0.076 C 
HETATM   14  S   UNL     1     -42.735 -47.768  13.011  1.00  0.00    -0.087 SA
HETATM   15  C   UNL     1     -41.609 -49.048  13.176  1.00  0.00     0.076 A 
ENDBRANCH   8   9
ENDBRANCH   7   8
ENDBRANCH   1   7
BRANCH   4  16
HETATM   16  C   UNL     1     -45.813 -52.810  12.812  1.00  0.00     0.086 C 
HETATM   17  C   UNL     1     -46.194 -51.420  13.343  1.00  0.00     0.025 C 
HETATM   18  C   UNL     1     -46.821 -51.634  14.719  1.00  0.00     0.002 C 
HETATM   19  C   UNL     1     -46.866 -53.139  14.936  1.00  0.00     0.002 C 
HETATM   20  C   UNL     1     -45.746 -53.679  14.064  1.00  0.00     0.025 C 
ENDBRANCH   4  16
TORSDOF 4
ENDMDL
MODEL 7
REMARK VINA RESULT:      -5.4      1.452      1.857
REMARK  4 active torsions:
REMARK  status: ('A' for Active; 'I' for Inactive)
REMARK    1  A    between atoms: C_5  and  C_6 
REMARK    2  A    between atoms: C_6  and  C_7 
REMARK    3  A    between atoms: C_7  and  N_8 
REMARK       I    between atoms: N_8  and  C_9 
REMARK       I    between atoms: C_9  and  N_11 
REMARK    4  A    between atoms: N_11  and  C_12 
ROOT
HETATM    1  N   UNL     1     -40.244 -51.047  13.317  1.00  0.00    -0.343 N 
HETATM    2  C   UNL     1     -40.737 -52.300  13.067  1.00  0.00     0.316 C 
HETATM    3  O   UNL     1     -40.076 -53.212  12.592  1.00  0.00    -0.247 OA
HETATM    4  N   UNL     1     -42.063 -52.389  13.413  1.00  0.00    -0.339 N 
HETATM    5  H   UNL     1     -40.917 -50.292  13.318  1.00  0.00     0.164 HD
HETATM    6  H   UNL     1     -42.300 -51.807  14.205  1.00  0.00     0.164 HD
ENDROOT
BRANCH   1   7
HETATM    7  C   UNL     1     -38.877 -50.698  12.960  1.00  0.00     0.130 C 
BRANCH   7   8
HETATM    8  C   UNL     1     -38.764 -49.972  11.616  1.00  0.00     0.077 C 
BRANCH   8   9
HETATM    9  C   UNL     1     -39.762 -48.866  11.464  1.00  0.00     0.018 A 
HETATM   10  N   UNL     1     -40.795 -49.018  10.553  1.00  0.00    -0.357 N 
HETATM   11  C   UNL     1     -41.574 -47.955  10.566  1.00  0.00     0.046 A 
ATOM     12  HN  UNL     1     -40.932 -49.835   9.958  1.00  0.00     0.166 HD
HETATM   13  C   UNL     1     -42.781 -47.781   9.714  1.00  0.00     0.076 C 
HETATM   14  S   UNL     1     -41.110 -46.716  11.662  1.00  0.00    -0.087 SA
HETATM   15  C   UNL     1     -39.778 -47.671  12.159  1.00  0.00     0.076 A 
ENDBRANCH   8   9
ENDBRANCH   7   8
ENDBRANCH   1   7
BRANCH   4  16
HETATM   16  C   UNL     1     -42.760 -53.659  13.326  1.00  0.00     0.086 C 
HETATM   17  C   UNL     1     -44.123 -53.564  12.624  1.00  0.00     0.025 C 
HETATM   18  C   UNL     1     -45.064 -54.513  13.364  1.00  0.00     0.002 C 
HETATM   19  C   UNL     1     -44.223 -55.199  14.430  1.00  0.00     0.002 C 
HETATM   20  C   UNL     1     -43.093 -54.222  14.704  1.00  0.00     0.025 C 
ENDBRANCH   4  16
TORSDOF 4
ENDMDL
MODEL 8
REMARK VINA RESULT:      -5.2      3.275      4.520
REMARK  4 active torsions:
REMARK  status: ('A' for Active; 'I' for Inactive)
REMARK    1  A    between atoms: C_5  and  C_6 
REMARK    2  A    between atoms: C_6  and  C_7 
REMARK    3  A    between atoms: C_7  and  N_8 
REMARK       I    between atoms: N_8  and  C_9 
REMARK       I    between atoms: C_9  and  N_11 
REMARK    4  A    between atoms: N_11  and  C_12 
ROOT
HETATM    1  N   UNL     1     -41.232 -53.259  14.204  1.00  0.00    -0.343 N 
HETATM    2  C   UNL     1     -42.135 -52.509  13.498  1.00  0.00     0.316 C 
HETATM    3  O   UNL     1     -41.892 -51.975  12.426  1.00  0.00    -0.247 OA
HETATM    4  N   UNL     1     -43.339 -52.435  14.157  1.00  0.00    -0.339 N 
HETATM    5  H   UNL     1     -41.374 -53.308  15.204  1.00  0.00     0.164 HD
HETATM    6  H   UNL     1     -43.547 -53.272  14.684  1.00  0.00     0.164 HD
ENDROOT
BRANCH   1   7
HETATM    7  C   UNL     1     -39.863 -53.414  13.734  1.00  0.00     0.130 C 
BRANCH   7   8
HETATM    8  C   UNL     1     -38.902 -52.362  14.296  1.00  0.00     0.077 C 
BRANCH   8   9
HETATM    9  C   UNL     1     -38.575 -51.284  13.310  1.00  0.00     0.018 A 
HETATM   10  N   UNL     1     -39.483 -50.253  13.121  1.00  0.00    -0.357 N 
HETATM   11  C   UNL     1     -39.022 -49.398  12.230  1.00  0.00     0.046 A 
ATOM     12  HN  UNL     1     -40.378 -50.169  13.601  1.00  0.00     0.166 HD
HETATM   13  C   UNL     1     -39.737 -48.172  11.787  1.00  0.00     0.076 C 
HETATM   14  S   UNL     1     -37.484 -49.783  11.567  1.00  0.00    -0.087 SA
HETATM   15  C   UNL     1     -37.428 -51.188  12.545  1.00  0.00     0.076 A 
ENDBRANCH   8   9
ENDBRANCH   7   8
ENDBRANCH   1   7
BRANCH   4  16
HETATM   16  C   UNL     1     -44.473 -51.774  13.539  1.00  0.00     0.086 C 
HETATM   17  C   UNL     1     -45.468 -51.189  14.552  1.00  0.00     0.025 C 
HETATM   18  C   UNL     1     -46.864 -51.409  13.972  1.00  0.00     0.002 C 
HETATM   19  C   UNL     1     -46.661 -52.045  12.605  1.00  0.00     0.002 C 
HETATM   20  C   UNL     1     -45.314 -52.740  12.710  1.00  0.00     0.025 C 
ENDBRANCH   4  16
TORSDOF 4
ENDMDL
MODEL 9
REMARK VINA RESULT:      -5.2      3.229      4.544
REMARK  4 active torsions:
REMARK  status: ('A' for Active; 'I' for Inactive)
REMARK    1  A    between atoms: C_5  and  C_6 
REMARK    2  A    between atoms: C_6  and  C_7 
REMARK    3  A    between atoms: C_7  and  N_8 
REMARK       I    between atoms: N_8  and  C_9 
REMARK       I    between atoms: C_9  and  N_11 
REMARK    4  A    between atoms: N_11  and  C_12 
ROOT
HETATM    1  N   UNL     1     -41.355 -50.596  11.680  1.00  0.00    -0.343 N 
HETATM    2  C   UNL     1     -41.431 -51.919  12.026  1.00  0.00     0.316 C 
HETATM    3  O   UNL     1     -40.471 -52.675  12.054  1.00  0.00    -0.247 OA
HETATM    4  N   UNL     1     -42.723 -52.279  12.327  1.00  0.00    -0.339 N 
HETATM    5  H   UNL     1     -42.198 -50.181  11.305  1.00  0.00     0.164 HD
HETATM    6  H   UNL     1     -43.250 -51.526  12.747  1.00  0.00     0.164 HD
ENDROOT
BRANCH   1   7
HETATM    7  C   UNL     1     -40.095 -50.009  11.249  1.00  0.00     0.130 C 
BRANCH   7   8
HETATM    8  C   UNL     1     -39.679 -48.785  12.071  1.00  0.00     0.077 C 
BRANCH   8   9
HETATM    9  C   UNL     1     -38.761 -49.127  13.203  1.00  0.00     0.018 A 
HETATM   10  N   UNL     1     -38.076 -48.104  13.841  1.00  0.00    -0.357 N 
HETATM   11  C   UNL     1     -37.331 -48.592  14.811  1.00  0.00     0.046 A 
ATOM     12  HN  UNL     1     -38.140 -47.117  13.593  1.00  0.00     0.166 HD
HETATM   13  C   UNL     1     -36.464 -47.775  15.703  1.00  0.00     0.076 C 
HETATM   14  S   UNL     1     -37.402 -50.297  15.009  1.00  0.00    -0.087 SA
HETATM   15  C   UNL     1     -38.514 -50.389  13.710  1.00  0.00     0.076 A 
ENDBRANCH   8   9
ENDBRANCH   7   8
ENDBRANCH   1   7
BRANCH   4  16
HETATM   16  C   UNL     1     -43.017 -53.613  12.818  1.00  0.00     0.086 C 
HETATM   17  C   UNL     1     -44.492 -54.012  12.663  1.00  0.00     0.025 C 
HETATM   18  C   UNL     1     -44.859 -54.820  13.906  1.00  0.00     0.002 C 
HETATM   19  C   UNL     1     -43.583 -54.945  14.724  1.00  0.00     0.002 C 
HETATM   20  C   UNL     1     -42.754 -53.740  14.315  1.00  0.00     0.025 C 
ENDBRANCH   4  16
TORSDOF 4
ENDMDL
