MODEL 1
REMARK VINA RESULT:      -6.4      0.000      0.000
REMARK  14 active torsions:
REMARK  status: ('A' for Active; 'I' for Inactive)
REMARK    1  A    between atoms: N_1  and  C_8 
REMARK    2  A    between atoms: C_6  and  N_9 
REMARK    3  A    between atoms: N_9  and  C_22 
REMARK    4  A    between atoms: N_9  and  C_24 
REMARK    5  A    between atoms: C_14  and  C_25 
REMARK    6  A    between atoms: C_14  and  C_26 
REMARK    7  A    between atoms: N_15  and  C_21 
REMARK    8  A    between atoms: C_21  and  C_23 
REMARK    9  A    between atoms: C_22  and  C_29 
REMARK   10  A    between atoms: C_23  and  C_24 
REMARK   11  A    between atoms: C_25  and  O_27 
REMARK   12  A    between atoms: C_26  and  O_28 
REMARK   13  A    between atoms: C_29  and  C_30 
REMARK   14  A    between atoms: C_29  and  C_31 
ROOT
HETATM    1  N   UNL     1     -42.162 -49.470  12.469  1.00  0.00    -0.322 N 
HETATM    2  C   UNL     1     -42.879 -51.416  13.198  1.00  0.00     0.117 A 
HETATM    3  C   UNL     1     -41.929 -50.820  12.355  1.00  0.00     0.140 A 
HETATM    4  N   UNL     1     -43.586 -50.439  13.875  1.00  0.00    -0.346 N 
ATOM      5  HN  UNL     1     -44.312 -50.580  14.578  1.00  0.00     0.167 HD
HETATM    6  C   UNL     1     -42.989 -52.842  13.220  1.00  0.00     0.114 A 
HETATM    7  C   UNL     1     -43.130 -49.298  13.425  1.00  0.00     0.185 A 
HETATM    8  N   UNL     1     -41.017 -51.464  11.608  1.00  0.00    -0.336 N 
ATOM      9  HN  UNL     1     -40.336 -51.006  11.002  1.00  0.00     0.168 HD
HETATM   10  N   UNL     1     -42.033 -53.502  12.496  1.00  0.00    -0.341 N 
ATOM     11  HN  UNL     1     -42.003 -54.521  12.503  1.00  0.00     0.167 HD
HETATM   12  C   UNL     1     -41.126 -52.800  11.770  1.00  0.00     0.183 A 
ENDROOT
BRANCH   6  13
HETATM   13  N   UNL     1     -43.984 -53.593  13.936  1.00  0.00    -0.266 NA
BRANCH  13  14
HETATM   14  C   UNL     1     -45.213 -53.806  13.122  1.00  0.00     0.101 C 
BRANCH  14  15
HETATM   15  C   UNL     1     -46.447 -52.982  13.573  1.00  0.00    -0.002 C 
BRANCH  15  16
HETATM   16  C   UNL     1     -46.509 -52.728  15.098  1.00  0.00     0.001 C 
HETATM   17  C   UNL     1     -46.893 -51.321  15.537  1.00  0.00     0.005 C 
ENDBRANCH  15  16
BRANCH  15  18
HETATM   18  C   UNL     1     -46.521 -51.642  12.798  1.00  0.00     0.001 C 
HETATM   19  C   UNL     1     -47.170 -51.778  11.424  1.00  0.00     0.005 C 
ENDBRANCH  15  18
ENDBRANCH  14  15
ENDBRANCH  13  14
BRANCH  13  20
HETATM   20  C   UNL     1     -43.441 -54.819  14.604  1.00  0.00     0.110 C 
BRANCH  20  21
HETATM   21  C   UNL     1     -42.899 -54.520  15.999  1.00  0.00     0.118 C 
BRANCH  21  22
HETATM   22  C   UNL     1     -43.258 -53.143  16.534  1.00  0.00    -0.077 C 
BRANCH  22  23
HETATM   23  N   UNL     1     -43.556 -52.001  16.977  1.00  0.00    -0.370 N 
ATOM     24  HN2 UNL     1     -43.325 -52.923  16.607  1.00  0.00     0.165 HD
ATOM     25  HN1 UNL     1     -43.797 -51.077  17.336  1.00  0.00     0.165 HD
ENDBRANCH  22  23
ENDBRANCH  21  22
ENDBRANCH  20  21
ENDBRANCH  13  20
ENDBRANCH   6  13
BRANCH   1  26
HETATM   26  C   UNL     1     -41.655 -48.310  11.785  1.00  0.00     0.094 C 
HETATM   27  C   UNL     1     -42.446 -46.981  12.001  1.00  0.00     0.039 C 
HETATM   28  C   UNL     1     -41.899 -46.546  10.585  1.00  0.00     0.006 C 
HETATM   29  C   UNL     1     -41.974 -48.102  10.283  1.00  0.00     0.039 C 
BRANCH  28  30
HETATM   30  C   UNL     1     -42.778 -45.622   9.738  1.00  0.00     0.175 C 
BRANCH  30  31
HETATM   31  O   UNL     1     -42.692 -45.945   8.357  1.00  0.00    -0.400 OA
HETATM   32  H   UNL     1     -43.251 -46.723   8.205  1.00  0.00     0.209 HD
ENDBRANCH  30  31
ENDBRANCH  28  30
BRANCH  28  33
HETATM   33  C   UNL     1     -40.481 -45.928  10.652  1.00  0.00     0.175 C 
BRANCH  33  34
HETATM   34  O   UNL     1     -40.272 -45.081   9.527  1.00  0.00    -0.400 OA
HETATM   35  H   UNL     1     -40.957 -44.391   9.542  1.00  0.00     0.209 HD
ENDBRANCH  33  34
ENDBRANCH  28  33
ENDBRANCH   1  26
TORSDOF 14
ENDMDL
MODEL 2
REMARK VINA RESULT:      -6.2      1.044      1.247
REMARK  14 active torsions:
REMARK  status: ('A' for Active; 'I' for Inactive)
REMARK    1  A    between atoms: N_1  and  C_8 
REMARK    2  A    between atoms: C_6  and  N_9 
REMARK    3  A    between atoms: N_9  and  C_22 
REMARK    4  A    between atoms: N_9  and  C_24 
REMARK    5  A    between atoms: C_14  and  C_25 
REMARK    6  A    between atoms: C_14  and  C_26 
REMARK    7  A    between atoms: N_15  and  C_21 
REMARK    8  A    between atoms: C_21  and  C_23 
REMARK    9  A    between atoms: C_22  and  C_29 
REMARK   10  A    between atoms: C_23  and  C_24 
REMARK   11  A    between atoms: C_25  and  O_27 
REMARK   12  A    between atoms: C_26  and  O_28 
REMARK   13  A    between atoms: C_29  and  C_30 
REMARK   14  A    between atoms: C_29  and  C_31 
ROOT
HETATM    1  N   UNL     1     -42.351 -49.405  12.585  1.00  0.00    -0.322 N 
HETATM    2  C   UNL     1     -42.954 -51.378  13.343  1.00  0.00     0.117 A 
HETATM    3  C   UNL     1     -42.100 -50.747  12.425  1.00  0.00     0.140 A 
HETATM    4  N   UNL     1     -43.615 -50.430  14.100  1.00  0.00    -0.346 N 
ATOM      5  HN  UNL     1     -44.269 -50.598  14.866  1.00  0.00     0.167 HD
HETATM    6  C   UNL     1     -43.031 -52.807  13.348  1.00  0.00     0.114 A 
HETATM    7  C   UNL     1     -43.228 -49.271  13.631  1.00  0.00     0.185 A 
HETATM    8  N   UNL     1     -41.249 -51.357  11.585  1.00  0.00    -0.336 N 
ATOM      9  HN  UNL     1     -40.638 -50.874  10.926  1.00  0.00     0.168 HD
HETATM   10  N   UNL     1     -42.133 -53.432  12.527  1.00  0.00    -0.341 N 
ATOM     11  HN  UNL     1     -42.080 -54.451  12.512  1.00  0.00     0.167 HD
HETATM   12  C   UNL     1     -41.313 -52.698  11.732  1.00  0.00     0.183 A 
ENDROOT
BRANCH   6  13
HETATM   13  N   UNL     1     -43.937 -53.592  14.140  1.00  0.00    -0.266 NA
BRANCH  13  14
HETATM   14  C   UNL     1     -45.287 -53.683  13.516  1.00  0.00     0.101 C 
BRANCH  14  15
HETATM   15  C   UNL     1     -46.404 -52.907  14.261  1.00  0.00    -0.002 C 
BRANCH  15  16
HETATM   16  C   UNL     1     -46.071 -52.588  15.737  1.00  0.00     0.001 C 
HETATM   17  C   UNL     1     -46.529 -51.233  16.259  1.00  0.00     0.005 C 
ENDBRANCH  15  16
BRANCH  15  18
HETATM   18  C   UNL     1     -46.770 -51.609  13.496  1.00  0.00     0.001 C 
HETATM   19  C   UNL     1     -46.703 -51.766  11.980  1.00  0.00     0.005 C 
ENDBRANCH  15  18
ENDBRANCH  14  15
ENDBRANCH  13  14
BRANCH  13  20
HETATM   20  C   UNL     1     -43.357 -54.896  14.597  1.00  0.00     0.110 C 
BRANCH  20  21
HETATM   21  C   UNL     1     -42.575 -54.752  15.899  1.00  0.00     0.118 C 
BRANCH  21  22
HETATM   22  C   UNL     1     -41.072 -54.931  15.756  1.00  0.00    -0.077 C 
BRANCH  22  23
HETATM   23  N   UNL     1     -39.826 -55.080  15.637  1.00  0.00    -0.370 N 
ATOM     24  HN2 UNL     1     -40.835 -54.961  15.718  1.00  0.00     0.165 HD
ATOM     25  HN1 UNL     1     -38.817 -55.199  15.541  1.00  0.00     0.165 HD
ENDBRANCH  22  23
ENDBRANCH  21  22
ENDBRANCH  20  21
ENDBRANCH  13  20
ENDBRANCH   6  13
BRANCH   1  26
HETATM   26  C   UNL     1     -41.935 -48.222  11.879  1.00  0.00     0.094 C 
HETATM   27  C   UNL     1     -42.931 -47.020  11.900  1.00  0.00     0.039 C 
HETATM   28  C   UNL     1     -42.279 -46.589  10.528  1.00  0.00     0.006 C 
HETATM   29  C   UNL     1     -42.090 -48.153  10.339  1.00  0.00     0.039 C 
BRANCH  28  30
HETATM   30  C   UNL     1     -43.169 -45.861   9.517  1.00  0.00     0.175 C 
BRANCH  30  31
HETATM   31  O   UNL     1     -43.404 -44.515   9.905  1.00  0.00    -0.400 OA
HETATM   32  H   UNL     1     -42.919 -43.945   9.288  1.00  0.00     0.209 HD
ENDBRANCH  30  31
ENDBRANCH  28  30
BRANCH  28  33
HETATM   33  C   UNL     1     -40.986 -45.758  10.711  1.00  0.00     0.175 C 
BRANCH  33  34
HETATM   34  O   UNL     1     -40.591 -45.201   9.462  1.00  0.00    -0.400 OA
HETATM   35  H   UNL     1     -41.005 -45.727   8.757  1.00  0.00     0.209 HD
ENDBRANCH  33  34
ENDBRANCH  28  33
ENDBRANCH   1  26
TORSDOF 14
ENDMDL
MODEL 3
REMARK VINA RESULT:      -5.9      1.253      3.141
REMARK  14 active torsions:
REMARK  status: ('A' for Active; 'I' for Inactive)
REMARK    1  A    between atoms: N_1  and  C_8 
REMARK    2  A    between atoms: C_6  and  N_9 
REMARK    3  A    between atoms: N_9  and  C_22 
REMARK    4  A    between atoms: N_9  and  C_24 
REMARK    5  A    between atoms: C_14  and  C_25 
REMARK    6  A    between atoms: C_14  and  C_26 
REMARK    7  A    between atoms: N_15  and  C_21 
REMARK    8  A    between atoms: C_21  and  C_23 
REMARK    9  A    between atoms: C_22  and  C_29 
REMARK   10  A    between atoms: C_23  and  C_24 
REMARK   11  A    between atoms: C_25  and  O_27 
REMARK   12  A    between atoms: C_26  and  O_28 
REMARK   13  A    between atoms: C_29  and  C_30 
REMARK   14  A    between atoms: C_29  and  C_31 
ROOT
HETATM    1  N   UNL     1     -42.368 -49.343  12.399  1.00  0.00    -0.322 N 
HETATM    2  C   UNL     1     -42.786 -51.382  13.106  1.00  0.00     0.117 A 
HETATM    3  C   UNL     1     -41.947 -50.644  12.256  1.00  0.00     0.140 A 
HETATM    4  N   UNL     1     -43.610 -50.528  13.813  1.00  0.00    -0.346 N 
ATOM      5  HN  UNL     1     -44.294 -50.781  14.527  1.00  0.00     0.167 HD
HETATM    6  C   UNL     1     -42.691 -52.810  13.103  1.00  0.00     0.114 A 
HETATM    7  C   UNL     1     -43.331 -49.326  13.376  1.00  0.00     0.185 A 
HETATM    8  N   UNL     1     -40.969 -51.139  11.481  1.00  0.00    -0.336 N 
ATOM      9  HN  UNL     1     -40.373 -50.580  10.871  1.00  0.00     0.168 HD
HETATM   10  N   UNL     1     -41.666 -53.315  12.350  1.00  0.00    -0.341 N 
ATOM     11  HN  UNL     1     -41.490 -54.319  12.338  1.00  0.00     0.167 HD
HETATM   12  C   UNL     1     -40.883 -52.480  11.621  1.00  0.00     0.183 A 
ENDROOT
BRANCH   6  13
HETATM   13  N   UNL     1     -43.553 -53.707  13.824  1.00  0.00    -0.266 NA
BRANCH  13  14
HETATM   14  C   UNL     1     -43.751 -53.274  15.235  1.00  0.00     0.101 C 
BRANCH  14  15
HETATM   15  C   UNL     1     -42.975 -54.105  16.289  1.00  0.00    -0.002 C 
BRANCH  15  16
HETATM   16  C   UNL     1     -43.708 -54.244  17.644  1.00  0.00     0.001 C 
HETATM   17  C   UNL     1     -45.226 -54.124  17.611  1.00  0.00     0.005 C 
ENDBRANCH  15  16
BRANCH  15  18
HETATM   18  C   UNL     1     -42.615 -55.503  15.724  1.00  0.00     0.001 C 
HETATM   19  C   UNL     1     -41.917 -56.401  16.741  1.00  0.00     0.005 C 
ENDBRANCH  15  18
ENDBRANCH  14  15
ENDBRANCH  13  14
BRANCH  13  20
HETATM   20  C   UNL     1     -44.806 -54.057  13.082  1.00  0.00     0.110 C 
BRANCH  20  21
HETATM   21  C   UNL     1     -45.973 -53.153  13.466  1.00  0.00     0.118 C 
BRANCH  21  22
HETATM   22  C   UNL     1     -46.444 -52.226  12.357  1.00  0.00    -0.077 C 
BRANCH  22  23
HETATM   23  N   UNL     1     -46.836 -51.457  11.437  1.00  0.00    -0.370 N 
ATOM     24  HN2 UNL     1     -46.529 -52.090  12.175  1.00  0.00     0.165 HD
ATOM     25  HN1 UNL     1     -47.153 -50.836  10.693  1.00  0.00     0.165 HD
ENDBRANCH  22  23
ENDBRANCH  21  22
ENDBRANCH  20  21
ENDBRANCH  13  20
ENDBRANCH   6  13
BRANCH   1  26
HETATM   26  C   UNL     1     -42.046 -48.112  11.728  1.00  0.00     0.094 C 
HETATM   27  C   UNL     1     -43.161 -47.019  11.719  1.00  0.00     0.039 C 
HETATM   28  C   UNL     1     -42.496 -46.499  10.384  1.00  0.00     0.006 C 
HETATM   29  C   UNL     1     -42.138 -48.032  10.183  1.00  0.00     0.039 C 
BRANCH  28  30
HETATM   30  C   UNL     1     -43.411 -45.849   9.342  1.00  0.00     0.175 C 
BRANCH  30  31
HETATM   31  O   UNL     1     -43.584 -44.462   9.596  1.00  0.00    -0.400 OA
HETATM   32  H   UNL     1     -43.591 -44.008   8.738  1.00  0.00     0.209 HD
ENDBRANCH  30  31
ENDBRANCH  28  30
BRANCH  28  33
HETATM   33  C   UNL     1     -41.305 -45.544  10.637  1.00  0.00     0.175 C 
BRANCH  33  34
HETATM   34  O   UNL     1     -40.683 -45.212   9.400  1.00  0.00    -0.400 OA
HETATM   35  H   UNL     1     -40.984 -44.324   9.144  1.00  0.00     0.209 HD
ENDBRANCH  33  34
ENDBRANCH  28  33
ENDBRANCH   1  26
TORSDOF 14
ENDMDL
MODEL 4
REMARK VINA RESULT:      -5.6      3.931      7.842
REMARK  14 active torsions:
REMARK  status: ('A' for Active; 'I' for Inactive)
REMARK    1  A    between atoms: N_1  and  C_8 
REMARK    2  A    between atoms: C_6  and  N_9 
REMARK    3  A    between atoms: N_9  and  C_22 
REMARK    4  A    between atoms: N_9  and  C_24 
REMARK    5  A    between atoms: C_14  and  C_25 
REMARK    6  A    between atoms: C_14  and  C_26 
REMARK    7  A    between atoms: N_15  and  C_21 
REMARK    8  A    between atoms: C_21  and  C_23 
REMARK    9  A    between atoms: C_22  and  C_29 
REMARK   10  A    between atoms: C_23  and  C_24 
REMARK   11  A    between atoms: C_25  and  O_27 
REMARK   12  A    between atoms: C_26  and  O_28 
REMARK   13  A    between atoms: C_29  and  C_30 
REMARK   14  A    between atoms: C_29  and  C_31 
ROOT
HETATM    1  N   UNL     1     -42.219 -51.453  13.230  1.00  0.00    -0.322 N 
HETATM    2  C   UNL     1     -42.502 -49.558  12.154  1.00  0.00     0.117 A 
HETATM    3  C   UNL     1     -41.605 -50.623  12.322  1.00  0.00     0.140 A 
HETATM    4  N   UNL     1     -43.664 -49.803  12.862  1.00  0.00    -0.346 N 
ATOM      5  HN  UNL     1     -44.501 -49.221  12.895  1.00  0.00     0.167 HD
HETATM    6  C   UNL     1     -42.108 -48.440  11.352  1.00  0.00     0.114 A 
HETATM    7  C   UNL     1     -43.465 -50.939  13.481  1.00  0.00     0.185 A 
HETATM    8  N   UNL     1     -40.412 -50.758  11.720  1.00  0.00    -0.336 N 
ATOM      9  HN  UNL     1     -39.777 -51.544  11.860  1.00  0.00     0.168 HD
HETATM   10  N   UNL     1     -40.915 -48.594  10.701  1.00  0.00    -0.341 N 
ATOM     11  HN  UNL     1     -40.585 -47.870  10.063  1.00  0.00     0.167 HD
HETATM   12  C   UNL     1     -40.169 -49.710  10.904  1.00  0.00     0.183 A 
ENDROOT
BRANCH   6  13
HETATM   13  N   UNL     1     -42.861 -47.228  11.180  1.00  0.00    -0.266 NA
BRANCH  13  14
HETATM   14  C   UNL     1     -41.997 -46.092  10.753  1.00  0.00     0.101 C 
BRANCH  14  15
HETATM   15  C   UNL     1     -41.627 -45.093  11.879  1.00  0.00    -0.002 C 
BRANCH  15  16
HETATM   16  C   UNL     1     -42.685 -44.994  13.004  1.00  0.00     0.001 C 
HETATM   17  C   UNL     1     -42.339 -45.674  14.322  1.00  0.00     0.005 C 
ENDBRANCH  15  16
BRANCH  15  18
HETATM   18  C   UNL     1     -40.236 -45.430  12.473  1.00  0.00     0.001 C 
HETATM   19  C   UNL     1     -39.328 -44.211  12.606  1.00  0.00     0.005 C 
ENDBRANCH  15  18
ENDBRANCH  14  15
ENDBRANCH  13  14
BRANCH  13  20
HETATM   20  C   UNL     1     -44.115 -47.411  10.380  1.00  0.00     0.110 C 
BRANCH  20  21
HETATM   21  C   UNL     1     -44.006 -46.790   8.991  1.00  0.00     0.118 C 
BRANCH  21  22
HETATM   22  C   UNL     1     -43.405 -47.705   7.936  1.00  0.00    -0.077 C 
BRANCH  22  23
HETATM   23  N   UNL     1     -42.907 -48.464   7.061  1.00  0.00    -0.370 N 
ATOM     24  HN2 UNL     1     -43.323 -47.858   7.768  1.00  0.00     0.165 HD
ATOM     25  HN1 UNL     1     -42.505 -49.078   6.354  1.00  0.00     0.165 HD
ENDBRANCH  22  23
ENDBRANCH  21  22
ENDBRANCH  20  21
ENDBRANCH  13  20
ENDBRANCH   6  13
BRANCH   1  26
HETATM   26  C   UNL     1     -41.803 -52.633  13.941  1.00  0.00     0.094 C 
HETATM   27  C   UNL     1     -40.522 -52.491  14.823  1.00  0.00     0.039 C 
HETATM   28  C   UNL     1     -40.320 -54.041  14.595  1.00  0.00     0.006 C 
HETATM   29  C   UNL     1     -41.010 -53.738  13.199  1.00  0.00     0.039 C 
BRANCH  28  30
HETATM   30  C   UNL     1     -38.883 -54.572  14.568  1.00  0.00     0.175 C 
BRANCH  30  31
HETATM   31  O   UNL     1     -38.720 -55.580  13.580  1.00  0.00    -0.400 OA
HETATM   32  H   UNL     1     -39.012 -56.419  13.970  1.00  0.00     0.209 HD
ENDBRANCH  30  31
ENDBRANCH  28  30
BRANCH  28  33
HETATM   33  C   UNL     1     -41.131 -54.906  15.590  1.00  0.00     0.175 C 
BRANCH  33  34
HETATM   34  O   UNL     1     -40.262 -55.820  16.252  1.00  0.00    -0.400 OA
HETATM   35  H   UNL     1     -40.122 -56.579  15.660  1.00  0.00     0.209 HD
ENDBRANCH  33  34
ENDBRANCH  28  33
ENDBRANCH   1  26
TORSDOF 14
ENDMDL
MODEL 5
REMARK VINA RESULT:      -5.6      2.119      3.694
REMARK  14 active torsions:
REMARK  status: ('A' for Active; 'I' for Inactive)
REMARK    1  A    between atoms: N_1  and  C_8 
REMARK    2  A    between atoms: C_6  and  N_9 
REMARK    3  A    between atoms: N_9  and  C_22 
REMARK    4  A    between atoms: N_9  and  C_24 
REMARK    5  A    between atoms: C_14  and  C_25 
REMARK    6  A    between atoms: C_14  and  C_26 
REMARK    7  A    between atoms: N_15  and  C_21 
REMARK    8  A    between atoms: C_21  and  C_23 
REMARK    9  A    between atoms: C_22  and  C_29 
REMARK   10  A    between atoms: C_23  and  C_24 
REMARK   11  A    between atoms: C_25  and  O_27 
REMARK   12  A    between atoms: C_26  and  O_28 
REMARK   13  A    between atoms: C_29  and  C_30 
REMARK   14  A    between atoms: C_29  and  C_31 
ROOT
HETATM    1  N   UNL     1     -41.479 -47.605  13.163  1.00  0.00    -0.322 N 
HETATM    2  C   UNL     1     -42.455 -49.574  13.099  1.00  0.00     0.117 A 
HETATM    3  C   UNL     1     -41.337 -48.866  12.631  1.00  0.00     0.140 A 
HETATM    4  N   UNL     1     -43.182 -48.786  13.971  1.00  0.00    -0.346 N 
ATOM      5  HN  UNL     1     -44.020 -49.050  14.489  1.00  0.00     0.167 HD
HETATM    6  C   UNL     1     -42.679 -50.905  12.625  1.00  0.00     0.114 A 
HETATM    7  C   UNL     1     -42.571 -47.628  13.992  1.00  0.00     0.185 A 
HETATM    8  N   UNL     1     -40.371 -49.345  11.832  1.00  0.00    -0.336 N 
ATOM      9  HN  UNL     1     -39.568 -48.808  11.505  1.00  0.00     0.168 HD
HETATM   10  N   UNL     1     -41.674 -51.414  11.848  1.00  0.00    -0.341 N 
ATOM     11  HN  UNL     1     -41.725 -52.376  11.515  1.00  0.00     0.167 HD
HETATM   12  C   UNL     1     -40.610 -50.638  11.520  1.00  0.00     0.183 A 
ENDROOT
BRANCH   6  13
HETATM   13  N   UNL     1     -43.831 -51.714  12.916  1.00  0.00    -0.266 NA
BRANCH  13  14
HETATM   14  C   UNL     1     -43.534 -53.169  12.796  1.00  0.00     0.101 C 
BRANCH  14  15
HETATM   15  C   UNL     1     -43.147 -53.869  14.124  1.00  0.00    -0.002 C 
BRANCH  15  16
HETATM   16  C   UNL     1     -44.076 -55.044  14.510  1.00  0.00     0.001 C 
HETATM   17  C   UNL     1     -45.414 -55.118  13.785  1.00  0.00     0.005 C 
ENDBRANCH  15  16
BRANCH  15  18
HETATM   18  C   UNL     1     -41.670 -54.339  14.082  1.00  0.00     0.001 C 
HETATM   19  C   UNL     1     -40.777 -53.603  15.076  1.00  0.00     0.005 C 
ENDBRANCH  15  18
ENDBRANCH  14  15
ENDBRANCH  13  14
BRANCH  13  20
HETATM   20  C   UNL     1     -44.545 -51.310  14.170  1.00  0.00     0.110 C 
BRANCH  20  21
HETATM   21  C   UNL     1     -46.060 -51.417  14.028  1.00  0.00     0.118 C 
BRANCH  21  22
HETATM   22  C   UNL     1     -46.549 -51.589  12.599  1.00  0.00    -0.077 C 
BRANCH  22  23
HETATM   23  N   UNL     1     -46.956 -51.731  11.414  1.00  0.00    -0.370 N 
ATOM     24  HN2 UNL     1     -46.641 -51.618  12.378  1.00  0.00     0.165 HD
ATOM     25  HN1 UNL     1     -47.285 -51.846  10.456  1.00  0.00     0.165 HD
ENDBRANCH  22  23
ENDBRANCH  21  22
ENDBRANCH  20  21
ENDBRANCH  13  20
ENDBRANCH   6  13
BRANCH   1  26
HETATM   26  C   UNL     1     -40.779 -46.362  12.979  1.00  0.00     0.094 C 
HETATM   27  C   UNL     1     -41.543 -45.070  13.411  1.00  0.00     0.039 C 
HETATM   28  C   UNL     1     -40.664 -44.316  12.337  1.00  0.00     0.006 C 
HETATM   29  C   UNL     1     -40.733 -45.706  11.576  1.00  0.00     0.039 C 
BRANCH  28  30
HETATM   30  C   UNL     1     -41.284 -43.101  11.640  1.00  0.00     0.175 C 
BRANCH  30  31
HETATM   31  O   UNL     1     -40.504 -42.687  10.527  1.00  0.00    -0.400 OA
HETATM   32  H   UNL     1     -40.818 -41.807  10.263  1.00  0.00     0.209 HD
ENDBRANCH  30  31
ENDBRANCH  28  30
BRANCH  28  33
HETATM   33  C   UNL     1     -39.276 -43.899  12.880  1.00  0.00     0.175 C 
BRANCH  33  34
HETATM   34  O   UNL     1     -39.275 -42.506  13.178  1.00  0.00    -0.400 OA
HETATM   35  H   UNL     1     -40.122 -42.137  12.875  1.00  0.00     0.209 HD
ENDBRANCH  33  34
ENDBRANCH  28  33
ENDBRANCH   1  26
TORSDOF 14
ENDMDL
MODEL 6
REMARK VINA RESULT:      -5.5      4.044      7.664
REMARK  14 active torsions:
REMARK  status: ('A' for Active; 'I' for Inactive)
REMARK    1  A    between atoms: N_1  and  C_8 
REMARK    2  A    between atoms: C_6  and  N_9 
REMARK    3  A    between atoms: N_9  and  C_22 
REMARK    4  A    between atoms: N_9  and  C_24 
REMARK    5  A    between atoms: C_14  and  C_25 
REMARK    6  A    between atoms: C_14  and  C_26 
REMARK    7  A    between atoms: N_15  and  C_21 
REMARK    8  A    between atoms: C_21  and  C_23 
REMARK    9  A    between atoms: C_22  and  C_29 
REMARK   10  A    between atoms: C_23  and  C_24 
REMARK   11  A    between atoms: C_25  and  O_27 
REMARK   12  A    between atoms: C_26  and  O_28 
REMARK   13  A    between atoms: C_29  and  C_30 
REMARK   14  A    between atoms: C_29  and  C_31 
ROOT
HETATM    1  N   UNL     1     -42.544 -51.627  13.352  1.00  0.00    -0.322 N 
HETATM    2  C   UNL     1     -42.585 -49.765  12.184  1.00  0.00     0.117 A 
HETATM    3  C   UNL     1     -41.812 -50.909  12.436  1.00  0.00     0.140 A 
HETATM    4  N   UNL     1     -43.792 -49.855  12.853  1.00  0.00    -0.346 N 
ATOM      5  HN  UNL     1     -44.563 -49.188  12.825  1.00  0.00     0.167 HD
HETATM    6  C   UNL     1     -42.046 -48.735  11.351  1.00  0.00     0.114 A 
HETATM    7  C   UNL     1     -43.737 -50.974  13.528  1.00  0.00     0.185 A 
HETATM    8  N   UNL     1     -40.619 -51.196  11.891  1.00  0.00    -0.336 N 
ATOM      9  HN  UNL     1     -40.076 -52.036  12.092  1.00  0.00     0.168 HD
HETATM   10  N   UNL     1     -40.852 -49.043  10.758  1.00  0.00    -0.341 N 
ATOM     11  HN  UNL     1     -40.425 -48.388  10.103  1.00  0.00     0.167 HD
HETATM   12  C   UNL     1     -40.237 -50.219  11.040  1.00  0.00     0.183 A 
ENDROOT
BRANCH   6  13
HETATM   13  N   UNL     1     -42.660 -47.460  11.094  1.00  0.00    -0.266 NA
BRANCH  13  14
HETATM   14  C   UNL     1     -43.990 -47.605  10.441  1.00  0.00     0.101 C 
BRANCH  14  15
HETATM   15  C   UNL     1     -44.296 -46.557   9.339  1.00  0.00    -0.002 C 
BRANCH  15  16
HETATM   16  C   UNL     1     -43.359 -46.646   8.111  1.00  0.00     0.001 C 
HETATM   17  C   UNL     1     -43.258 -48.004   7.430  1.00  0.00     0.005 C 
ENDBRANCH  15  16
BRANCH  15  18
HETATM   18  C   UNL     1     -45.778 -46.648   8.896  1.00  0.00     0.001 C 
HETATM   19  C   UNL     1     -46.386 -48.031   9.112  1.00  0.00     0.005 C 
ENDBRANCH  15  18
ENDBRANCH  14  15
ENDBRANCH  13  14
BRANCH  13  20
HETATM   20  C   UNL     1     -42.624 -46.531  12.269  1.00  0.00     0.110 C 
BRANCH  20  21
HETATM   21  C   UNL     1     -41.721 -45.326  12.020  1.00  0.00     0.118 C 
BRANCH  21  22
HETATM   22  C   UNL     1     -40.799 -45.466  10.820  1.00  0.00    -0.077 C 
BRANCH  22  23
HETATM   23  N   UNL     1     -40.034 -45.581   9.824  1.00  0.00    -0.370 N 
ATOM     24  HN2 UNL     1     -40.665 -45.488  10.620  1.00  0.00     0.165 HD
ATOM     25  HN1 UNL     1     -39.416 -45.674   9.018  1.00  0.00     0.165 HD
ENDBRANCH  22  23
ENDBRANCH  21  22
ENDBRANCH  20  21
ENDBRANCH  13  20
ENDBRANCH   6  13
BRANCH   1  26
HETATM   26  C   UNL     1     -42.282 -52.808  14.131  1.00  0.00     0.094 C 
HETATM   27  C   UNL     1     -43.153 -52.995  15.414  1.00  0.00     0.039 C 
HETATM   28  C   UNL     1     -41.941 -53.829  15.989  1.00  0.00     0.006 C 
HETATM   29  C   UNL     1     -41.077 -52.834  15.105  1.00  0.00     0.039 C 
BRANCH  28  30
HETATM   30  C   UNL     1     -41.716 -53.800  17.504  1.00  0.00     0.175 C 
BRANCH  30  31
HETATM   31  O   UNL     1     -40.752 -54.763  17.904  1.00  0.00    -0.400 OA
HETATM   32  H   UNL     1     -39.888 -54.321  17.921  1.00  0.00     0.209 HD
ENDBRANCH  30  31
ENDBRANCH  28  30
BRANCH  28  33
HETATM   33  C   UNL     1     -41.961 -55.309  15.538  1.00  0.00     0.175 C 
BRANCH  33  34
HETATM   34  O   UNL     1     -42.757 -56.075  16.436  1.00  0.00    -0.400 OA
HETATM   35  H   UNL     1     -43.022 -55.494  17.168  1.00  0.00     0.209 HD
ENDBRANCH  33  34
ENDBRANCH  28  33
ENDBRANCH   1  26
TORSDOF 14
ENDMDL
MODEL 7
REMARK VINA RESULT:      -5.4      1.277      2.092
REMARK  14 active torsions:
REMARK  status: ('A' for Active; 'I' for Inactive)
REMARK    1  A    between atoms: N_1  and  C_8 
REMARK    2  A    between atoms: C_6  and  N_9 
REMARK    3  A    between atoms: N_9  and  C_22 
REMARK    4  A    between atoms: N_9  and  C_24 
REMARK    5  A    between atoms: C_14  and  C_25 
REMARK    6  A    between atoms: C_14  and  C_26 
REMARK    7  A    between atoms: N_15  and  C_21 
REMARK    8  A    between atoms: C_21  and  C_23 
REMARK    9  A    between atoms: C_22  and  C_29 
REMARK   10  A    between atoms: C_23  and  C_24 
REMARK   11  A    between atoms: C_25  and  O_27 
REMARK   12  A    between atoms: C_26  and  O_28 
REMARK   13  A    between atoms: C_29  and  C_30 
REMARK   14  A    between atoms: C_29  and  C_31 
ROOT
HETATM    1  N   UNL     1     -41.383 -48.649  12.250  1.00  0.00    -0.322 N 
HETATM    2  C   UNL     1     -42.208 -50.595  12.852  1.00  0.00     0.117 A 
HETATM    3  C   UNL     1     -41.227 -49.999  12.045  1.00  0.00     0.140 A 
HETATM    4  N   UNL     1     -42.857 -49.628  13.596  1.00  0.00    -0.346 N 
ATOM      5  HN  UNL     1     -43.589 -49.774  14.293  1.00  0.00     0.167 HD
HETATM    6  C   UNL     1     -42.399 -52.011  12.779  1.00  0.00     0.114 A 
HETATM    7  C   UNL     1     -42.338 -48.487  13.221  1.00  0.00     0.185 A 
HETATM    8  N   UNL     1     -40.355 -50.642  11.251  1.00  0.00    -0.336 N 
ATOM      9  HN  UNL     1     -39.650 -50.184  10.673  1.00  0.00     0.168 HD
HETATM   10  N   UNL     1     -41.483 -52.674  12.008  1.00  0.00    -0.341 N 
ATOM     11  HN  UNL     1     -41.510 -53.691  11.946  1.00  0.00     0.167 HD
HETATM   12  C   UNL     1     -40.539 -51.977  11.325  1.00  0.00     0.183 A 
ENDROOT
BRANCH   6  13
HETATM   13  N   UNL     1     -43.433 -52.751  13.449  1.00  0.00    -0.266 NA
BRANCH  13  14
HETATM   14  C   UNL     1     -44.730 -52.680  12.720  1.00  0.00     0.101 C 
BRANCH  14  15
HETATM   15  C   UNL     1     -45.690 -51.563  13.202  1.00  0.00    -0.002 C 
BRANCH  15  16
HETATM   16  C   UNL     1     -47.127 -51.684  12.640  1.00  0.00     0.001 C 
HETATM   17  C   UNL     1     -47.269 -51.645  11.124  1.00  0.00     0.005 C 
ENDBRANCH  15  16
BRANCH  15  18
HETATM   18  C   UNL     1     -45.719 -51.499  14.750  1.00  0.00     0.001 C 
HETATM   19  C   UNL     1     -47.133 -51.499  15.325  1.00  0.00     0.005 C 
ENDBRANCH  15  18
ENDBRANCH  14  15
ENDBRANCH  13  14
BRANCH  13  20
HETATM   20  C   UNL     1     -43.010 -54.127  13.866  1.00  0.00     0.110 C 
BRANCH  20  21
HETATM   21  C   UNL     1     -43.989 -54.754  14.854  1.00  0.00     0.118 C 
BRANCH  21  22
HETATM   22  C   UNL     1     -43.870 -54.234  16.277  1.00  0.00    -0.077 C 
BRANCH  22  23
HETATM   23  N   UNL     1     -43.771 -53.802  17.458  1.00  0.00    -0.370 N 
ATOM     24  HN2 UNL     1     -43.846 -54.165  16.508  1.00  0.00     0.165 HD
ATOM     25  HN1 UNL     1     -43.691 -53.453  18.413  1.00  0.00     0.165 HD
ENDBRANCH  22  23
ENDBRANCH  21  22
ENDBRANCH  20  21
ENDBRANCH  13  20
ENDBRANCH   6  13
BRANCH   1  26
HETATM   26  C   UNL     1     -40.812 -47.476  11.642  1.00  0.00     0.094 C 
HETATM   27  C   UNL     1     -40.194 -46.425  12.618  1.00  0.00     0.039 C 
HETATM   28  C   UNL     1     -40.515 -45.354  11.504  1.00  0.00     0.006 C 
HETATM   29  C   UNL     1     -41.736 -46.317  11.190  1.00  0.00     0.039 C 
BRANCH  28  30
HETATM   30  C   UNL     1     -40.842 -43.930  11.962  1.00  0.00     0.175 C 
BRANCH  30  31
HETATM   31  O   UNL     1     -40.456 -42.969  10.989  1.00  0.00    -0.400 OA
HETATM   32  H   UNL     1     -39.491 -42.872  11.042  1.00  0.00     0.209 HD
ENDBRANCH  30  31
ENDBRANCH  28  30
BRANCH  28  33
HETATM   33  C   UNL     1     -39.414 -45.266  10.419  1.00  0.00     0.175 C 
BRANCH  33  34
HETATM   34  O   UNL     1     -40.004 -44.971   9.157  1.00  0.00    -0.400 OA
HETATM   35  H   UNL     1     -40.847 -45.451   9.104  1.00  0.00     0.209 HD
ENDBRANCH  33  34
ENDBRANCH  28  33
ENDBRANCH   1  26
TORSDOF 14
ENDMDL
MODEL 8
REMARK VINA RESULT:      -5.4      2.168      4.060
REMARK  14 active torsions:
REMARK  status: ('A' for Active; 'I' for Inactive)
REMARK    1  A    between atoms: N_1  and  C_8 
REMARK    2  A    between atoms: C_6  and  N_9 
REMARK    3  A    between atoms: N_9  and  C_22 
REMARK    4  A    between atoms: N_9  and  C_24 
REMARK    5  A    between atoms: C_14  and  C_25 
REMARK    6  A    between atoms: C_14  and  C_26 
REMARK    7  A    between atoms: N_15  and  C_21 
REMARK    8  A    between atoms: C_21  and  C_23 
REMARK    9  A    between atoms: C_22  and  C_29 
REMARK   10  A    between atoms: C_23  and  C_24 
REMARK   11  A    between atoms: C_25  and  O_27 
REMARK   12  A    between atoms: C_26  and  O_28 
REMARK   13  A    between atoms: C_29  and  C_30 
REMARK   14  A    between atoms: C_29  and  C_31 
ROOT
HETATM    1  N   UNL     1     -41.942 -49.372  12.549  1.00  0.00    -0.322 N 
HETATM    2  C   UNL     1     -41.506 -51.285  13.539  1.00  0.00     0.117 A 
HETATM    3  C   UNL     1     -40.903 -50.218  12.855  1.00  0.00     0.140 A 
HETATM    4  N   UNL     1     -42.851 -51.026  13.725  1.00  0.00    -0.346 N 
ATOM      5  HN  UNL     1     -43.528 -51.607  14.221  1.00  0.00     0.167 HD
HETATM    6  C   UNL     1     -40.707 -52.416  13.899  1.00  0.00     0.114 A 
HETATM    7  C   UNL     1     -43.074 -49.880  13.134  1.00  0.00     0.185 A 
HETATM    8  N   UNL     1     -39.596 -50.094  12.572  1.00  0.00    -0.336 N 
ATOM      9  HN  UNL     1     -39.183 -49.307  12.072  1.00  0.00     0.168 HD
HETATM   10  N   UNL     1     -39.368 -52.274  13.654  1.00  0.00    -0.341 N 
ATOM     11  HN  UNL     1     -38.719 -53.010  13.933  1.00  0.00     0.167 HD
HETATM   12  C   UNL     1     -38.905 -51.156  13.040  1.00  0.00     0.183 A 
ENDROOT
BRANCH   6  13
HETATM   13  N   UNL     1     -41.197 -53.630  14.494  1.00  0.00    -0.266 NA
BRANCH  13  14
HETATM   14  C   UNL     1     -41.361 -53.500  15.969  1.00  0.00     0.101 C 
BRANCH  14  15
HETATM   15  C   UNL     1     -40.384 -54.359  16.813  1.00  0.00    -0.002 C 
BRANCH  15  16
HETATM   16  C   UNL     1     -41.042 -55.039  18.038  1.00  0.00     0.001 C 
HETATM   17  C   UNL     1     -41.541 -56.463  17.837  1.00  0.00     0.005 C 
ENDBRANCH  15  16
BRANCH  15  18
HETATM   18  C   UNL     1     -39.677 -55.414  15.925  1.00  0.00     0.001 C 
HETATM   19  C   UNL     1     -38.187 -55.552  16.226  1.00  0.00     0.005 C 
ENDBRANCH  15  18
ENDBRANCH  14  15
ENDBRANCH  13  14
BRANCH  13  20
HETATM   20  C   UNL     1     -42.368 -54.220  13.771  1.00  0.00     0.110 C 
BRANCH  20  21
HETATM   21  C   UNL     1     -43.349 -54.898  14.724  1.00  0.00     0.118 C 
BRANCH  21  22
HETATM   22  C   UNL     1     -44.775 -54.982  14.206  1.00  0.00    -0.077 C 
BRANCH  22  23
HETATM   23  N   UNL     1     -45.959 -55.052  13.777  1.00  0.00    -0.370 N 
ATOM     24  HN2 UNL     1     -45.005 -54.981  14.129  1.00  0.00     0.165 HD
ATOM     25  HN1 UNL     1     -46.916 -55.108  13.430  1.00  0.00     0.165 HD
ENDBRANCH  22  23
ENDBRANCH  21  22
ENDBRANCH  20  21
ENDBRANCH  13  20
ENDBRANCH   6  13
BRANCH   1  26
HETATM   26  C   UNL     1     -42.055 -48.181  11.749  1.00  0.00     0.094 C 
HETATM   27  C   UNL     1     -43.485 -47.835  11.225  1.00  0.00     0.039 C 
HETATM   28  C   UNL     1     -42.757 -47.097  10.034  1.00  0.00     0.006 C 
HETATM   29  C   UNL     1     -41.660 -48.221  10.251  1.00  0.00     0.039 C 
BRANCH  28  30
HETATM   30  C   UNL     1     -43.471 -47.062   8.679  1.00  0.00     0.175 C 
BRANCH  30  31
HETATM   31  O   UNL     1     -42.802 -46.209   7.761  1.00  0.00    -0.400 OA
HETATM   32  H   UNL     1     -43.388 -45.456   7.583  1.00  0.00     0.209 HD
ENDBRANCH  30  31
ENDBRANCH  28  30
BRANCH  28  33
HETATM   33  C   UNL     1     -42.337 -45.650  10.389  1.00  0.00     0.175 C 
BRANCH  33  34
HETATM   34  O   UNL     1     -41.144 -45.310   9.691  1.00  0.00    -0.400 OA
HETATM   35  H   UNL     1     -40.697 -44.606  10.192  1.00  0.00     0.209 HD
ENDBRANCH  33  34
ENDBRANCH  28  33
ENDBRANCH   1  26
TORSDOF 14
ENDMDL
MODEL 9
REMARK VINA RESULT:      -5.4      5.244      8.660
REMARK  14 active torsions:
REMARK  status: ('A' for Active; 'I' for Inactive)
REMARK    1  A    between atoms: N_1  and  C_8 
REMARK    2  A    between atoms: C_6  and  N_9 
REMARK    3  A    between atoms: N_9  and  C_22 
REMARK    4  A    between atoms: N_9  and  C_24 
REMARK    5  A    between atoms: C_14  and  C_25 
REMARK    6  A    between atoms: C_14  and  C_26 
REMARK    7  A    between atoms: N_15  and  C_21 
REMARK    8  A    between atoms: C_21  and  C_23 
REMARK    9  A    between atoms: C_22  and  C_29 
REMARK   10  A    between atoms: C_23  and  C_24 
REMARK   11  A    between atoms: C_25  and  O_27 
REMARK   12  A    between atoms: C_26  and  O_28 
REMARK   13  A    between atoms: C_29  and  C_30 
REMARK   14  A    between atoms: C_29  and  C_31 
ROOT
HETATM    1  N   UNL     1     -39.589 -52.987  14.926  1.00  0.00    -0.322 N 
HETATM    2  C   UNL     1     -39.614 -51.388  13.417  1.00  0.00     0.117 A 
HETATM    3  C   UNL     1     -40.127 -52.663  13.703  1.00  0.00     0.140 A 
HETATM    4  N   UNL     1     -38.877 -50.925  14.492  1.00  0.00    -0.346 N 
ATOM      5  HN  UNL     1     -38.419 -50.017  14.580  1.00  0.00     0.167 HD
HETATM    6  C   UNL     1     -39.886 -50.802  12.141  1.00  0.00     0.114 A 
HETATM    7  C   UNL     1     -38.890 -51.894  15.371  1.00  0.00     0.185 A 
HETATM    8  N   UNL     1     -40.949 -53.381  12.920  1.00  0.00    -0.336 N 
ATOM      9  HN  UNL     1     -41.308 -54.307  13.151  1.00  0.00     0.168 HD
HETATM   10  N   UNL     1     -40.760 -51.508  11.360  1.00  0.00    -0.341 N 
ATOM     11  HN  UNL     1     -41.055 -51.134  10.459  1.00  0.00     0.167 HD
HETATM   12  C   UNL     1     -41.235 -52.706  11.786  1.00  0.00     0.183 A 
ENDROOT
BRANCH   6  13
HETATM   13  N   UNL     1     -39.340 -49.563  11.656  1.00  0.00    -0.266 NA
BRANCH  13  14
HETATM   14  C   UNL     1     -40.155 -48.391  12.083  1.00  0.00     0.101 C 
BRANCH  14  15
HETATM   15  C   UNL     1     -41.140 -47.855  11.012  1.00  0.00    -0.002 C 
BRANCH  15  16
HETATM   16  C   UNL     1     -42.629 -48.104  11.348  1.00  0.00     0.001 C 
HETATM   17  C   UNL     1     -43.651 -47.458  10.423  1.00  0.00     0.005 C 
ENDBRANCH  15  16
BRANCH  15  18
HETATM   18  C   UNL     1     -40.890 -46.348  10.747  1.00  0.00     0.001 C 
HETATM   19  C   UNL     1     -40.440 -45.586  11.990  1.00  0.00     0.005 C 
ENDBRANCH  15  18
ENDBRANCH  14  15
ENDBRANCH  13  14
BRANCH  13  20
HETATM   20  C   UNL     1     -37.865 -49.431  11.880  1.00  0.00     0.110 C 
BRANCH  20  21
HETATM   21  C   UNL     1     -37.080 -50.559  11.218  1.00  0.00     0.118 C 
BRANCH  21  22
HETATM   22  C   UNL     1     -36.704 -50.299   9.768  1.00  0.00    -0.077 C 
BRANCH  22  23
HETATM   23  N   UNL     1     -36.392 -50.082   8.565  1.00  0.00    -0.370 N 
ATOM     24  HN2 UNL     1     -36.638 -50.271   9.537  1.00  0.00     0.165 HD
ATOM     25  HN1 UNL     1     -36.140 -49.908   7.593  1.00  0.00     0.165 HD
ENDBRANCH  22  23
ENDBRANCH  21  22
ENDBRANCH  20  21
ENDBRANCH  13  20
ENDBRANCH   6  13
BRANCH   1  26
HETATM   26  C   UNL     1     -39.584 -54.182  15.727  1.00  0.00     0.094 C 
HETATM   27  C   UNL     1     -38.824 -54.096  17.089  1.00  0.00     0.039 C 
HETATM   28  C   UNL     1     -38.609 -55.654  16.948  1.00  0.00     0.006 C 
HETATM   29  C   UNL     1     -38.592 -55.325  15.396  1.00  0.00     0.039 C 
BRANCH  28  30
HETATM   30  C   UNL     1     -37.335 -56.251  17.554  1.00  0.00     0.175 C 
BRANCH  30  31
HETATM   31  O   UNL     1     -37.632 -57.106  18.649  1.00  0.00    -0.400 OA
HETATM   32  H   UNL     1     -36.941 -56.973  19.318  1.00  0.00     0.209 HD
ENDBRANCH  30  31
ENDBRANCH  28  30
BRANCH  28  33
HETATM   33  C   UNL     1     -39.814 -56.477  17.463  1.00  0.00     0.175 C 
BRANCH  33  34
HETATM   34  O   UNL     1     -39.704 -57.824  17.014  1.00  0.00    -0.400 OA
HETATM   35  H   UNL     1     -40.563 -58.083  16.639  1.00  0.00     0.209 HD
ENDBRANCH  33  34
ENDBRANCH  28  33
ENDBRANCH   1  26
TORSDOF 14
ENDMDL
