MODEL 1
REMARK VINA RESULT:      -5.9      0.000      0.000
REMARK  3 active torsions:
REMARK  status: ('A' for Active; 'I' for Inactive)
REMARK       I    between atoms: C_2  and  N_4 
REMARK       I    between atoms: N_8  and  C_11 
REMARK       I    between atoms: C_11  and  N_13 
REMARK    1  A    between atoms: N_13  and  C_14 
REMARK    2  A    between atoms: C_14  and  C_15 
REMARK    3  A    between atoms: C_15  and  N_16 
ROOT
HETATM    1  C   UNL     1     -42.681 -55.323  15.810  1.00  0.00     0.117 C 
HETATM    2  C   UNL     1     -43.647 -54.878  14.741  1.00  0.00     0.215 C 
HETATM    3  O   UNL     1     -44.593 -55.606  14.435  1.00  0.00    -0.274 OA
HETATM    4  N   UNL     1     -43.450 -53.618  14.181  1.00  0.00    -0.351 N 
HETATM    5  C   UNL     1     -44.455 -53.109  13.242  1.00  0.00     0.127 C 
HETATM    6  C   UNL     1     -45.145 -51.857  13.783  1.00  0.00     0.040 C 
HETATM    7  C   UNL     1     -44.413 -50.562  13.425  1.00  0.00     0.129 C 
HETATM    8  N   UNL     1     -42.961 -50.586  13.604  1.00  0.00    -0.333 N 
HETATM    9  C   UNL     1     -42.434 -51.372  14.724  1.00  0.00     0.147 C 
HETATM   10  C   UNL     1     -42.209 -52.839  14.331  1.00  0.00     0.145 C 
HETATM   11  C   UNL     1     -42.027 -50.057  12.731  1.00  0.00     0.318 C 
HETATM   12  O   UNL     1     -40.817 -50.220  12.885  1.00  0.00    -0.247 OA
HETATM   13  N   UNL     1     -42.527 -49.384  11.648  1.00  0.00    -0.341 N 
HETATM   14  H   UNL     1     -43.367 -48.858  11.837  1.00  0.00     0.164 HD
ENDROOT
BRANCH  13  15
HETATM   15  C   UNL     1     -41.618 -48.781  10.680  1.00  0.00     0.144 C 
BRANCH  15  16
HETATM   16  C   UNL     1     -42.102 -47.436  10.132  1.00  0.00     0.149 C 
BRANCH  16  17
HETATM   17  N   UNL     1     -43.336 -47.560   9.384  1.00  0.00    -0.350 N 
HETATM   18  C   UNL     1     -44.603 -47.467   9.887  1.00  0.00     0.108 A 
HETATM   19  C   UNL     1     -45.426 -47.719   8.816  1.00  0.00     0.106 A 
HETATM   20  N   UNL     1     -44.694 -47.952   7.681  1.00  0.00    -0.361 N 
HETATM   21  C   UNL     1     -43.436 -47.864   8.056  1.00  0.00     0.182 A 
ATOM     22  HN  UNL     1     -45.048 -48.152   6.745  1.00  0.00     0.166 HD
ENDBRANCH  16  17
ENDBRANCH  15  16
ENDBRANCH  13  15
TORSDOF 3
ENDMDL
MODEL 2
REMARK VINA RESULT:      -5.7      2.079      2.424
REMARK  3 active torsions:
REMARK  status: ('A' for Active; 'I' for Inactive)
REMARK       I    between atoms: C_2  and  N_4 
REMARK       I    between atoms: N_8  and  C_11 
REMARK       I    between atoms: C_11  and  N_13 
REMARK    1  A    between atoms: N_13  and  C_14 
REMARK    2  A    between atoms: C_14  and  C_15 
REMARK    3  A    between atoms: C_15  and  N_16 
ROOT
HETATM    1  C   UNL     1     -39.172 -53.750  16.497  1.00  0.00     0.117 C 
HETATM    2  C   UNL     1     -39.508 -54.088  15.067  1.00  0.00     0.215 C 
HETATM    3  O   UNL     1     -39.238 -55.206  14.627  1.00  0.00    -0.274 OA
HETATM    4  N   UNL     1     -40.169 -53.119  14.316  1.00  0.00    -0.351 N 
HETATM    5  C   UNL     1     -40.628 -53.477  12.969  1.00  0.00     0.127 C 
HETATM    6  C   UNL     1     -42.152 -53.423  12.863  1.00  0.00     0.040 C 
HETATM    7  C   UNL     1     -42.684 -52.040  12.484  1.00  0.00     0.129 C 
HETATM    8  N   UNL     1     -42.080 -50.914  13.198  1.00  0.00    -0.333 N 
HETATM    9  C   UNL     1     -41.698 -51.131  14.596  1.00  0.00     0.147 C 
HETATM   10  C   UNL     1     -40.279 -51.706  14.715  1.00  0.00     0.145 C 
HETATM   11  C   UNL     1     -41.701 -49.707  12.638  1.00  0.00     0.318 C 
HETATM   12  O   UNL     1     -41.088 -48.850  13.273  1.00  0.00    -0.247 OA
HETATM   13  N   UNL     1     -41.998 -49.539  11.311  1.00  0.00    -0.341 N 
HETATM   14  H   UNL     1     -42.872 -49.953  11.024  1.00  0.00     0.164 HD
ENDROOT
BRANCH  13  15
HETATM   15  C   UNL     1     -41.648 -48.293  10.637  1.00  0.00     0.144 C 
BRANCH  15  16
HETATM   16  C   UNL     1     -42.775 -47.257  10.628  1.00  0.00     0.149 C 
BRANCH  16  17
HETATM   17  N   UNL     1     -43.750 -47.517   9.589  1.00  0.00    -0.350 N 
HETATM   18  C   UNL     1     -45.104 -47.612   9.751  1.00  0.00     0.108 A 
HETATM   19  C   UNL     1     -45.585 -47.931   8.504  1.00  0.00     0.106 A 
HETATM   20  N   UNL     1     -44.564 -48.022   7.593  1.00  0.00    -0.361 N 
HETATM   21  C   UNL     1     -43.467 -47.780   8.279  1.00  0.00     0.182 A 
ATOM     22  HN  UNL     1     -44.639 -48.231   6.598  1.00  0.00     0.166 HD
ENDBRANCH  16  17
ENDBRANCH  15  16
ENDBRANCH  13  15
TORSDOF 3
ENDMDL
MODEL 3
REMARK VINA RESULT:      -5.7      3.818      5.253
REMARK  3 active torsions:
REMARK  status: ('A' for Active; 'I' for Inactive)
REMARK       I    between atoms: C_2  and  N_4 
REMARK       I    between atoms: N_8  and  C_11 
REMARK       I    between atoms: C_11  and  N_13 
REMARK    1  A    between atoms: N_13  and  C_14 
REMARK    2  A    between atoms: C_14  and  C_15 
REMARK    3  A    between atoms: C_15  and  N_16 
ROOT
HETATM    1  C   UNL     1     -46.842 -51.694  12.206  1.00  0.00     0.117 C 
HETATM    2  C   UNL     1     -46.231 -51.658  13.584  1.00  0.00     0.215 C 
HETATM    3  O   UNL     1     -46.884 -51.210  14.527  1.00  0.00    -0.274 OA
HETATM    4  N   UNL     1     -44.954 -52.194  13.735  1.00  0.00    -0.351 N 
HETATM    5  C   UNL     1     -44.398 -52.295  15.089  1.00  0.00     0.127 C 
HETATM    6  C   UNL     1     -44.165 -53.751  15.491  1.00  0.00     0.040 C 
HETATM    7  C   UNL     1     -42.789 -54.280  15.078  1.00  0.00     0.129 C 
HETATM    8  N   UNL     1     -42.367 -53.946  13.718  1.00  0.00    -0.333 N 
HETATM    9  C   UNL     1     -43.406 -53.889  12.685  1.00  0.00     0.147 C 
HETATM   10  C   UNL     1     -44.055 -52.499  12.609  1.00  0.00     0.145 C 
HETATM   11  C   UNL     1     -41.101 -53.536  13.339  1.00  0.00     0.318 C 
HETATM   12  O   UNL     1     -40.847 -53.155  12.197  1.00  0.00    -0.247 OA
HETATM   13  N   UNL     1     -40.150 -53.524  14.325  1.00  0.00    -0.341 N 
HETATM   14  H   UNL     1     -40.237 -54.273  14.995  1.00  0.00     0.164 HD
ENDROOT
BRANCH  13  15
HETATM   15  C   UNL     1     -38.783 -53.118  14.017  1.00  0.00     0.144 C 
BRANCH  15  16
HETATM   16  C   UNL     1     -38.504 -51.636  14.281  1.00  0.00     0.149 C 
BRANCH  16  17
HETATM   17  N   UNL     1     -38.501 -50.853  13.062  1.00  0.00    -0.350 N 
HETATM   18  C   UNL     1     -39.517 -50.064  12.600  1.00  0.00     0.108 A 
HETATM   19  C   UNL     1     -39.071 -49.589  11.390  1.00  0.00     0.106 A 
HETATM   20  N   UNL     1     -37.814 -50.062  11.112  1.00  0.00    -0.361 N 
HETATM   21  C   UNL     1     -37.501 -50.832  12.131  1.00  0.00     0.182 A 
ATOM     22  HN  UNL     1     -37.244 -49.859  10.291  1.00  0.00     0.166 HD
ENDBRANCH  16  17
ENDBRANCH  15  16
ENDBRANCH  13  15
TORSDOF 3
ENDMDL
MODEL 4
REMARK VINA RESULT:      -5.4      2.920      6.703
REMARK  3 active torsions:
REMARK  status: ('A' for Active; 'I' for Inactive)
REMARK       I    between atoms: C_2  and  N_4 
REMARK       I    between atoms: N_8  and  C_11 
REMARK       I    between atoms: C_11  and  N_13 
REMARK    1  A    between atoms: N_13  and  C_14 
REMARK    2  A    between atoms: C_14  and  C_15 
REMARK    3  A    between atoms: C_15  and  N_16 
ROOT
HETATM    1  C   UNL     1     -38.936 -44.747  13.646  1.00  0.00     0.117 C 
HETATM    2  C   UNL     1     -40.353 -45.052  13.232  1.00  0.00     0.215 C 
HETATM    3  O   UNL     1     -41.197 -44.155  13.248  1.00  0.00    -0.274 OA
HETATM    4  N   UNL     1     -40.631 -46.343  12.791  1.00  0.00    -0.351 N 
HETATM    5  C   UNL     1     -41.967 -46.623  12.253  1.00  0.00     0.127 C 
HETATM    6  C   UNL     1     -41.908 -47.013  10.777  1.00  0.00     0.040 C 
HETATM    7  C   UNL     1     -41.699 -48.512  10.556  1.00  0.00     0.129 C 
HETATM    8  N   UNL     1     -40.678 -49.139  11.396  1.00  0.00    -0.333 N 
HETATM    9  C   UNL     1     -39.499 -48.336  11.733  1.00  0.00     0.147 C 
HETATM   10  C   UNL     1     -39.730 -47.490  12.994  1.00  0.00     0.145 C 
HETATM   11  C   UNL     1     -40.785 -50.367  12.023  1.00  0.00     0.318 C 
HETATM   12  O   UNL     1     -39.936 -50.779  12.813  1.00  0.00    -0.247 OA
HETATM   13  N   UNL     1     -41.924 -51.082  11.759  1.00  0.00    -0.341 N 
HETATM   14  H   UNL     1     -42.263 -50.989  10.813  1.00  0.00     0.164 HD
ENDROOT
BRANCH  13  15
HETATM   15  C   UNL     1     -42.119 -52.394  12.366  1.00  0.00     0.144 C 
BRANCH  15  16
HETATM   16  C   UNL     1     -42.975 -52.367  13.636  1.00  0.00     0.149 C 
BRANCH  16  17
HETATM   17  N   UNL     1     -44.386 -52.215  13.342  1.00  0.00    -0.350 N 
HETATM   18  C   UNL     1     -45.218 -51.249  13.834  1.00  0.00     0.108 A 
HETATM   19  C   UNL     1     -46.457 -51.560  13.327  1.00  0.00     0.106 A 
HETATM   20  N   UNL     1     -46.394 -52.679  12.537  1.00  0.00    -0.361 N 
HETATM   21  C   UNL     1     -45.136 -53.061  12.575  1.00  0.00     0.182 A 
ATOM     22  HN  UNL     1     -47.160 -53.121  12.028  1.00  0.00     0.166 HD
ENDBRANCH  16  17
ENDBRANCH  15  16
ENDBRANCH  13  15
TORSDOF 3
ENDMDL
MODEL 5
REMARK VINA RESULT:      -5.4      4.015      6.334
REMARK  3 active torsions:
REMARK  status: ('A' for Active; 'I' for Inactive)
REMARK       I    between atoms: C_2  and  N_4 
REMARK       I    between atoms: N_8  and  C_11 
REMARK       I    between atoms: C_11  and  N_13 
REMARK    1  A    between atoms: N_13  and  C_14 
REMARK    2  A    between atoms: C_14  and  C_15 
REMARK    3  A    between atoms: C_15  and  N_16 
ROOT
HETATM    1  C   UNL     1     -37.138 -50.040  15.315  1.00  0.00     0.117 C 
HETATM    2  C   UNL     1     -38.373 -49.685  14.526  1.00  0.00     0.215 C 
HETATM    3  O   UNL     1     -38.516 -48.536  14.105  1.00  0.00    -0.274 OA
HETATM    4  N   UNL     1     -39.282 -50.706  14.261  1.00  0.00    -0.351 N 
HETATM    5  C   UNL     1     -40.418 -50.415  13.379  1.00  0.00     0.127 C 
HETATM    6  C   UNL     1     -40.362 -51.246  12.099  1.00  0.00     0.040 C 
HETATM    7  C   UNL     1     -41.044 -52.610  12.232  1.00  0.00     0.129 C 
HETATM    8  N   UNL     1     -40.740 -53.350  13.457  1.00  0.00    -0.333 N 
HETATM    9  C   UNL     1     -39.389 -53.215  14.007  1.00  0.00     0.147 C 
HETATM   10  C   UNL     1     -39.277 -52.008  14.950  1.00  0.00     0.145 C 
HETATM   11  C   UNL     1     -41.650 -54.053  14.228  1.00  0.00     0.318 C 
HETATM   12  O   UNL     1     -41.348 -54.551  15.311  1.00  0.00    -0.247 OA
HETATM   13  N   UNL     1     -42.930 -54.115  13.743  1.00  0.00    -0.341 N 
HETATM   14  H   UNL     1     -42.991 -54.183  12.738  1.00  0.00     0.164 HD
ENDROOT
BRANCH  13  15
HETATM   15  C   UNL     1     -43.955 -54.844  14.481  1.00  0.00     0.144 C 
BRANCH  15  16
HETATM   16  C   UNL     1     -45.329 -54.834  13.804  1.00  0.00     0.149 C 
BRANCH  16  17
HETATM   17  N   UNL     1     -45.875 -53.496  13.694  1.00  0.00    -0.350 N 
HETATM   18  C   UNL     1     -45.904 -52.720  12.570  1.00  0.00     0.108 A 
HETATM   19  C   UNL     1     -46.452 -51.528  12.979  1.00  0.00     0.106 A 
HETATM   20  N   UNL     1     -46.764 -51.566  14.314  1.00  0.00    -0.361 N 
HETATM   21  C   UNL     1     -46.393 -52.760  14.723  1.00  0.00     0.182 A 
ATOM     22  HN  UNL     1     -47.192 -50.827  14.871  1.00  0.00     0.166 HD
ENDBRANCH  16  17
ENDBRANCH  15  16
ENDBRANCH  13  15
TORSDOF 3
ENDMDL
MODEL 6
REMARK VINA RESULT:      -5.4      3.782      6.941
REMARK  3 active torsions:
REMARK  status: ('A' for Active; 'I' for Inactive)
REMARK       I    between atoms: C_2  and  N_4 
REMARK       I    between atoms: N_8  and  C_11 
REMARK       I    between atoms: C_11  and  N_13 
REMARK    1  A    between atoms: N_13  and  C_14 
REMARK    2  A    between atoms: C_14  and  C_15 
REMARK    3  A    between atoms: C_15  and  N_16 
ROOT
HETATM    1  C   UNL     1     -36.721 -47.853  15.093  1.00  0.00     0.117 C 
HETATM    2  C   UNL     1     -38.085 -47.546  14.526  1.00  0.00     0.215 C 
HETATM    3  O   UNL     1     -38.475 -46.378  14.481  1.00  0.00    -0.274 OA
HETATM    4  N   UNL     1     -38.826 -48.611  14.021  1.00  0.00    -0.351 N 
HETATM    5  C   UNL     1     -40.092 -48.317  13.340  1.00  0.00     0.127 C 
HETATM    6  C   UNL     1     -40.044 -48.721  11.867  1.00  0.00     0.040 C 
HETATM    7  C   UNL     1     -40.456 -50.174  11.625  1.00  0.00     0.129 C 
HETATM    8  N   UNL     1     -39.883 -51.155  12.548  1.00  0.00    -0.333 N 
HETATM    9  C   UNL     1     -38.521 -50.912  13.029  1.00  0.00     0.147 C 
HETATM   10  C   UNL     1     -38.512 -50.026  14.283  1.00  0.00     0.145 C 
HETATM   11  C   UNL     1     -40.559 -52.217  13.124  1.00  0.00     0.318 C 
HETATM   12  O   UNL     1     -40.047 -52.931  13.986  1.00  0.00    -0.247 OA
HETATM   13  N   UNL     1     -41.856 -52.396  12.723  1.00  0.00    -0.341 N 
HETATM   14  H   UNL     1     -42.023 -52.187  11.750  1.00  0.00     0.164 HD
ENDROOT
BRANCH  13  15
HETATM   15  C   UNL     1     -42.643 -53.497  13.268  1.00  0.00     0.144 C 
BRANCH  15  16
HETATM   16  C   UNL     1     -43.913 -53.803  12.469  1.00  0.00     0.149 C 
BRANCH  16  17
HETATM   17  N   UNL     1     -45.085 -53.892  13.316  1.00  0.00    -0.350 N 
HETATM   18  C   UNL     1     -45.798 -52.845  13.829  1.00  0.00     0.108 A 
HETATM   19  C   UNL     1     -46.765 -53.428  14.612  1.00  0.00     0.106 A 
HETATM   20  N   UNL     1     -46.662 -54.795  14.581  1.00  0.00    -0.361 N 
HETATM   21  C   UNL     1     -45.632 -55.046  13.802  1.00  0.00     0.182 A 
ATOM     22  HN  UNL     1     -47.256 -55.472  15.058  1.00  0.00     0.166 HD
ENDBRANCH  16  17
ENDBRANCH  15  16
ENDBRANCH  13  15
TORSDOF 3
ENDMDL
MODEL 7
REMARK VINA RESULT:      -5.4      2.651      3.668
REMARK  3 active torsions:
REMARK  status: ('A' for Active; 'I' for Inactive)
REMARK       I    between atoms: C_2  and  N_4 
REMARK       I    between atoms: N_8  and  C_11 
REMARK       I    between atoms: C_11  and  N_13 
REMARK    1  A    between atoms: N_13  and  C_14 
REMARK    2  A    between atoms: C_14  and  C_15 
REMARK    3  A    between atoms: C_15  and  N_16 
ROOT
HETATM    1  C   UNL     1     -45.673 -55.239  13.994  1.00  0.00     0.117 C 
HETATM    2  C   UNL     1     -45.478 -53.770  14.273  1.00  0.00     0.215 C 
HETATM    3  O   UNL     1     -46.457 -53.061  14.511  1.00  0.00    -0.274 OA
HETATM    4  N   UNL     1     -44.172 -53.289  14.303  1.00  0.00    -0.351 N 
HETATM    5  C   UNL     1     -43.952 -51.896  14.708  1.00  0.00     0.127 C 
HETATM    6  C   UNL     1     -43.142 -51.809  16.001  1.00  0.00     0.040 C 
HETATM    7  C   UNL     1     -41.630 -51.793  15.768  1.00  0.00     0.129 C 
HETATM    8  N   UNL     1     -41.131 -52.768  14.797  1.00  0.00    -0.333 N 
HETATM    9  C   UNL     1     -41.809 -54.065  14.736  1.00  0.00     0.147 C 
HETATM   10  C   UNL     1     -43.012 -54.032  13.781  1.00  0.00     0.145 C 
HETATM   11  C   UNL     1     -40.171 -52.530  13.829  1.00  0.00     0.318 C 
HETATM   12  O   UNL     1     -39.886 -53.361  12.967  1.00  0.00    -0.247 OA
HETATM   13  N   UNL     1     -39.590 -51.289  13.847  1.00  0.00    -0.341 N 
HETATM   14  H   UNL     1     -39.452 -50.909  14.771  1.00  0.00     0.164 HD
ENDROOT
BRANCH  13  15
HETATM   15  C   UNL     1     -38.559 -50.951  12.872  1.00  0.00     0.144 C 
BRANCH  15  16
HETATM   16  C   UNL     1     -38.423 -49.448  12.612  1.00  0.00     0.149 C 
BRANCH  16  17
HETATM   17  N   UNL     1     -39.516 -48.929  11.815  1.00  0.00    -0.350 N 
HETATM   18  C   UNL     1     -39.972 -47.641  11.802  1.00  0.00     0.108 A 
HETATM   19  C   UNL     1     -41.051 -47.658  10.951  1.00  0.00     0.106 A 
HETATM   20  N   UNL     1     -41.253 -48.916  10.442  1.00  0.00    -0.361 N 
HETATM   21  C   UNL     1     -40.321 -49.665  10.991  1.00  0.00     0.182 A 
ATOM     22  HN  UNL     1     -41.971 -49.208   9.780  1.00  0.00     0.166 HD
ENDBRANCH  16  17
ENDBRANCH  15  16
ENDBRANCH  13  15
TORSDOF 3
ENDMDL
MODEL 8
REMARK VINA RESULT:      -5.3      3.164      7.987
REMARK  3 active torsions:
REMARK  status: ('A' for Active; 'I' for Inactive)
REMARK       I    between atoms: C_2  and  N_4 
REMARK       I    between atoms: N_8  and  C_11 
REMARK       I    between atoms: C_11  and  N_13 
REMARK    1  A    between atoms: N_13  and  C_14 
REMARK    2  A    between atoms: C_14  and  C_15 
REMARK    3  A    between atoms: C_15  and  N_16 
ROOT
HETATM    1  C   UNL     1     -40.550 -42.838  11.629  1.00  0.00     0.117 C 
HETATM    2  C   UNL     1     -41.831 -43.516  11.214  1.00  0.00     0.215 C 
HETATM    3  O   UNL     1     -42.790 -42.833  10.850  1.00  0.00    -0.274 OA
HETATM    4  N   UNL     1     -41.849 -44.908  11.209  1.00  0.00    -0.351 N 
HETATM    5  C   UNL     1     -43.036 -45.587  10.677  1.00  0.00     0.127 C 
HETATM    6  C   UNL     1     -42.703 -46.405   9.430  1.00  0.00     0.040 C 
HETATM    7  C   UNL     1     -42.248 -47.831   9.746  1.00  0.00     0.129 C 
HETATM    8  N   UNL     1     -41.282 -47.958  10.838  1.00  0.00    -0.333 N 
HETATM    9  C   UNL     1     -40.296 -46.886  10.992  1.00  0.00     0.147 C 
HETATM   10  C   UNL     1     -40.831 -45.744  11.868  1.00  0.00     0.145 C 
HETATM   11  C   UNL     1     -41.301 -48.924  11.829  1.00  0.00     0.318 C 
HETATM   12  O   UNL     1     -40.528 -48.899  12.786  1.00  0.00    -0.247 OA
HETATM   13  N   UNL     1     -42.271 -49.884  11.717  1.00  0.00    -0.341 N 
HETATM   14  H   UNL     1     -42.476 -50.159  10.769  1.00  0.00     0.164 HD
ENDROOT
BRANCH  13  15
HETATM   15  C   UNL     1     -42.362 -50.950  12.709  1.00  0.00     0.144 C 
BRANCH  15  16
HETATM   16  C   UNL     1     -41.959 -52.327  12.175  1.00  0.00     0.149 C 
BRANCH  16  17
HETATM   17  N   UNL     1     -40.857 -52.903  12.920  1.00  0.00    -0.350 N 
HETATM   18  C   UNL     1     -40.692 -54.222  13.236  1.00  0.00     0.108 A 
HETATM   19  C   UNL     1     -39.548 -54.261  13.997  1.00  0.00     0.106 A 
HETATM   20  N   UNL     1     -39.015 -53.006  14.142  1.00  0.00    -0.361 N 
HETATM   21  C   UNL     1     -39.832 -52.205  13.494  1.00  0.00     0.182 A 
ATOM     22  HN  UNL     1     -38.165 -52.749  14.645  1.00  0.00     0.166 HD
ENDBRANCH  16  17
ENDBRANCH  15  16
ENDBRANCH  13  15
TORSDOF 3
ENDMDL
MODEL 9
REMARK VINA RESULT:      -5.3      4.230      6.718
REMARK  3 active torsions:
REMARK  status: ('A' for Active; 'I' for Inactive)
REMARK       I    between atoms: C_2  and  N_4 
REMARK       I    between atoms: N_8  and  C_11 
REMARK       I    between atoms: C_11  and  N_13 
REMARK    1  A    between atoms: N_13  and  C_14 
REMARK    2  A    between atoms: C_14  and  C_15 
REMARK    3  A    between atoms: C_15  and  N_16 
ROOT
HETATM    1  C   UNL     1     -37.856 -49.510  12.154  1.00  0.00     0.117 C 
HETATM    2  C   UNL     1     -37.841 -50.963  12.558  1.00  0.00     0.215 C 
HETATM    3  O   UNL     1     -36.777 -51.583  12.553  1.00  0.00    -0.274 OA
HETATM    4  N   UNL     1     -39.043 -51.526  12.977  1.00  0.00    -0.351 N 
HETATM    5  C   UNL     1     -39.024 -52.895  13.505  1.00  0.00     0.127 C 
HETATM    6  C   UNL     1     -39.439 -52.935  14.975  1.00  0.00     0.040 C 
HETATM    7  C   UNL     1     -40.950 -53.070  15.173  1.00  0.00     0.129 C 
HETATM    8  N   UNL     1     -41.777 -52.209  14.326  1.00  0.00    -0.333 N 
HETATM    9  C   UNL     1     -41.255 -50.878  14.006  1.00  0.00     0.147 C 
HETATM   10  C   UNL     1     -40.360 -50.905  12.758  1.00  0.00     0.145 C 
HETATM   11  C   UNL     1     -42.941 -52.586  13.679  1.00  0.00     0.318 C 
HETATM   12  O   UNL     1     -43.521 -51.845  12.885  1.00  0.00    -0.247 OA
HETATM   13  N   UNL     1     -43.386 -53.857  13.927  1.00  0.00    -0.341 N 
HETATM   14  H   UNL     1     -43.234 -54.173  14.873  1.00  0.00     0.164 HD
ENDROOT
BRANCH  13  15
HETATM   15  C   UNL     1     -44.611 -54.338  13.299  1.00  0.00     0.144 C 
BRANCH  15  16
HETATM   16  C   UNL     1     -45.718 -54.696  14.295  1.00  0.00     0.149 C 
BRANCH  16  17
HETATM   17  N   UNL     1     -46.212 -53.535  15.006  1.00  0.00    -0.350 N 
HETATM   18  C   UNL     1     -46.827 -52.446  14.455  1.00  0.00     0.108 A 
HETATM   19  C   UNL     1     -47.045 -51.594  15.511  1.00  0.00     0.106 A 
HETATM   20  N   UNL     1     -46.589 -52.140  16.683  1.00  0.00    -0.361 N 
HETATM   21  C   UNL     1     -46.079 -53.305  16.346  1.00  0.00     0.182 A 
ATOM     22  HN  UNL     1     -46.635 -51.731  17.616  1.00  0.00     0.166 HD
ENDBRANCH  16  17
ENDBRANCH  15  16
ENDBRANCH  13  15
TORSDOF 3
ENDMDL
