MODEL 1
REMARK VINA RESULT:      -6.3      0.000      0.000
REMARK  5 active torsions:
REMARK  status: ('A' for Active; 'I' for Inactive)
REMARK    1  A    between atoms: C_2  and  N_3 
REMARK    2  A    between atoms: C_2  and  C_12 
REMARK    3  A    between atoms: N_3  and  C_4 
REMARK    4  A    between atoms: C_4  and  C_5 
REMARK    5  A    between atoms: C_5  and  N_6 
REMARK       I    between atoms: C_12  and  N_14 
ROOT
HETATM    1  C   UNL     1     -42.638 -47.591  12.605  1.00  0.00     0.053 C 
HETATM    2  C   UNL     1     -42.687 -48.775  11.639  1.00  0.00     0.307 C 
ENDROOT
BRANCH   2   3
HETATM    3  N   UNL     1     -42.585 -48.428  10.200  1.00  0.00     0.098 N 
HETATM    4  H   UNL     1     -43.317 -48.949   9.713  1.00  0.00     0.317 HD
BRANCH   3   5
HETATM    5  C   UNL     1     -42.743 -46.999   9.917  1.00  0.00     0.292 C 
BRANCH   5   6
HETATM    6  C   UNL     1     -43.482 -46.817   8.586  1.00  0.00     0.178 C 
BRANCH   6   7
HETATM    7  N   UNL     1     -44.786 -47.446   8.592  1.00  0.00    -0.302 N 
HETATM    8  C   UNL     1     -45.833 -47.161   9.421  1.00  0.00     0.111 A 
HETATM    9  C   UNL     1     -46.859 -47.992   9.036  1.00  0.00     0.037 A 
HETATM   10  C   UNL     1     -46.332 -48.735   7.963  1.00  0.00     0.108 A 
HETATM   11  N   UNL     1     -45.070 -48.401   7.685  1.00  0.00    -0.310 N 
ATOM     12  HN  UNL     1     -44.463 -48.779   6.958  1.00  0.00     0.186 HD
ENDBRANCH   6   7
ENDBRANCH   5   6
ENDBRANCH   3   5
ENDBRANCH   2   3
BRANCH   2  13
HETATM   13  C   UNL     1     -41.600 -49.822  12.009  1.00  0.00     0.252 C 
HETATM   14  O   UNL     1     -40.427 -49.589  11.694  1.00  0.00    -0.271 OA
HETATM   15  N   UNL     1     -41.947 -50.996  12.674  1.00  0.00    -0.350 N 
HETATM   16  C   UNL     1     -40.889 -51.788  13.305  1.00  0.00     0.130 C 
HETATM   17  C   UNL     1     -43.309 -51.470  12.923  1.00  0.00     0.130 C 
HETATM   18  C   UNL     1     -40.992 -53.269  12.921  1.00  0.00    -0.000 C 
HETATM   19  C   UNL     1     -39.946 -54.096  13.665  1.00  0.00     0.011 C 
HETATM   20  C   UNL     1     -42.405 -53.805  13.197  1.00  0.00     0.011 C 
HETATM   21  C   UNL     1     -43.456 -52.936  12.499  1.00  0.00    -0.000 C 
HETATM   22  C   UNL     1     -44.869 -53.436  12.785  1.00  0.00     0.011 C 
ENDBRANCH   2  13
TORSDOF 5
ENDMDL
MODEL 2
REMARK VINA RESULT:      -5.8      1.983      3.174
REMARK  5 active torsions:
REMARK  status: ('A' for Active; 'I' for Inactive)
REMARK    1  A    between atoms: C_2  and  N_3 
REMARK    2  A    between atoms: C_2  and  C_12 
REMARK    3  A    between atoms: N_3  and  C_4 
REMARK    4  A    between atoms: C_4  and  C_5 
REMARK    5  A    between atoms: C_5  and  N_6 
REMARK       I    between atoms: C_12  and  N_14 
ROOT
HETATM    1  C   UNL     1     -41.188 -50.244  13.948  1.00  0.00     0.053 C 
HETATM    2  C   UNL     1     -42.314 -50.370  12.922  1.00  0.00     0.307 C 
ENDROOT
BRANCH   2   3
HETATM    3  N   UNL     1     -42.014 -49.825  11.576  1.00  0.00     0.098 N 
HETATM    4  H   UNL     1     -42.834 -49.999  10.990  1.00  0.00     0.317 HD
BRANCH   3   5
HETATM    5  C   UNL     1     -41.715 -48.389  11.566  1.00  0.00     0.292 C 
BRANCH   5   6
HETATM    6  C   UNL     1     -43.020 -47.593  11.438  1.00  0.00     0.178 C 
BRANCH   6   7
HETATM    7  N   UNL     1     -43.575 -47.663  10.103  1.00  0.00    -0.302 N 
HETATM    8  C   UNL     1     -44.891 -47.562   9.753  1.00  0.00     0.111 A 
HETATM    9  C   UNL     1     -44.928 -47.662   8.382  1.00  0.00     0.037 A 
HETATM   10  C   UNL     1     -43.583 -47.815   8.000  1.00  0.00     0.108 A 
HETATM   11  N   UNL     1     -42.754 -47.810   9.046  1.00  0.00    -0.310 N 
ATOM     12  HN  UNL     1     -41.737 -47.898   9.045  1.00  0.00     0.186 HD
ENDBRANCH   6   7
ENDBRANCH   5   6
ENDBRANCH   3   5
ENDBRANCH   2   3
BRANCH   2  13
HETATM   13  C   UNL     1     -42.775 -51.850  12.802  1.00  0.00     0.252 C 
HETATM   14  O   UNL     1     -42.248 -52.562  11.939  1.00  0.00    -0.271 OA
HETATM   15  N   UNL     1     -43.763 -52.353  13.645  1.00  0.00    -0.350 N 
HETATM   16  C   UNL     1     -43.932 -53.805  13.745  1.00  0.00     0.130 C 
HETATM   17  C   UNL     1     -44.590 -51.568  14.561  1.00  0.00     0.130 C 
HETATM   18  C   UNL     1     -45.402 -54.211  13.581  1.00  0.00    -0.000 C 
HETATM   19  C   UNL     1     -45.576 -55.714  13.788  1.00  0.00     0.011 C 
HETATM   20  C   UNL     1     -46.294 -53.422  14.552  1.00  0.00     0.011 C 
HETATM   21  C   UNL     1     -46.072 -51.916  14.384  1.00  0.00    -0.000 C 
HETATM   22  C   UNL     1     -46.929 -51.115  15.361  1.00  0.00     0.011 C 
ENDBRANCH   2  13
TORSDOF 5
ENDMDL
MODEL 3
REMARK VINA RESULT:      -5.6      2.223      3.504
REMARK  5 active torsions:
REMARK  status: ('A' for Active; 'I' for Inactive)
REMARK    1  A    between atoms: C_2  and  N_3 
REMARK    2  A    between atoms: C_2  and  C_12 
REMARK    3  A    between atoms: N_3  and  C_4 
REMARK    4  A    between atoms: C_4  and  C_5 
REMARK    5  A    between atoms: C_5  and  N_6 
REMARK       I    between atoms: C_12  and  N_14 
ROOT
HETATM    1  C   UNL     1     -37.893 -50.315  13.987  1.00  0.00     0.053 C 
HETATM    2  C   UNL     1     -39.174 -50.666  13.231  1.00  0.00     0.307 C 
ENDROOT
BRANCH   2   3
HETATM    3  N   UNL     1     -39.084 -50.589  11.753  1.00  0.00     0.098 N 
HETATM    4  H   UNL     1     -38.818 -51.517  11.418  1.00  0.00     0.317 HD
BRANCH   3   5
HETATM    5  C   UNL     1     -40.331 -50.182  11.098  1.00  0.00     0.292 C 
BRANCH   5   6
HETATM    6  C   UNL     1     -40.706 -48.764  11.542  1.00  0.00     0.178 C 
BRANCH   6   7
HETATM    7  N   UNL     1     -41.905 -48.284  10.888  1.00  0.00    -0.302 N 
HETATM    8  C   UNL     1     -43.080 -47.925  11.484  1.00  0.00     0.111 A 
HETATM    9  C   UNL     1     -43.911 -47.514  10.469  1.00  0.00     0.037 A 
HETATM   10  C   UNL     1     -43.142 -47.658   9.299  1.00  0.00     0.108 A 
HETATM   11  N   UNL     1     -41.916 -48.121   9.551  1.00  0.00    -0.310 N 
ATOM     12  HN  UNL     1     -41.164 -48.308   8.887  1.00  0.00     0.186 HD
ENDBRANCH   6   7
ENDBRANCH   5   6
ENDBRANCH   3   5
ENDBRANCH   2   3
BRANCH   2  13
HETATM   13  C   UNL     1     -39.689 -52.069  13.657  1.00  0.00     0.252 C 
HETATM   14  O   UNL     1     -38.919 -53.033  13.559  1.00  0.00    -0.271 OA
HETATM   15  N   UNL     1     -40.989 -52.233  14.130  1.00  0.00    -0.350 N 
HETATM   16  C   UNL     1     -41.333 -53.470  14.834  1.00  0.00     0.130 C 
HETATM   17  C   UNL     1     -42.043 -51.219  14.107  1.00  0.00     0.130 C 
HETATM   18  C   UNL     1     -42.623 -54.088  14.284  1.00  0.00    -0.000 C 
HETATM   19  C   UNL     1     -43.023 -55.320  15.093  1.00  0.00     0.011 C 
HETATM   20  C   UNL     1     -43.759 -53.053  14.273  1.00  0.00     0.011 C 
HETATM   21  C   UNL     1     -43.333 -51.794  13.513  1.00  0.00    -0.000 C 
HETATM   22  C   UNL     1     -44.439 -50.742  13.516  1.00  0.00     0.011 C 
ENDBRANCH   2  13
TORSDOF 5
ENDMDL
MODEL 4
REMARK VINA RESULT:      -5.6      1.836      3.123
REMARK  5 active torsions:
REMARK  status: ('A' for Active; 'I' for Inactive)
REMARK    1  A    between atoms: C_2  and  N_3 
REMARK    2  A    between atoms: C_2  and  C_12 
REMARK    3  A    between atoms: N_3  and  C_4 
REMARK    4  A    between atoms: C_4  and  C_5 
REMARK    5  A    between atoms: C_5  and  N_6 
REMARK       I    between atoms: C_12  and  N_14 
ROOT
HETATM    1  C   UNL     1     -42.608 -47.886  13.197  1.00  0.00     0.053 C 
HETATM    2  C   UNL     1     -42.637 -49.041  12.196  1.00  0.00     0.307 C 
ENDROOT
BRANCH   2   3
HETATM    3  N   UNL     1     -42.593 -48.647  10.767  1.00  0.00     0.098 N 
HETATM    4  H   UNL     1     -42.830 -49.476  10.218  1.00  0.00     0.317 HD
BRANCH   3   5
HETATM    5  C   UNL     1     -43.516 -47.562  10.418  1.00  0.00     0.292 C 
BRANCH   5   6
HETATM    6  C   UNL     1     -42.798 -46.545   9.523  1.00  0.00     0.178 C 
BRANCH   6   7
HETATM    7  N   UNL     1     -41.807 -45.779  10.250  1.00  0.00    -0.302 N 
HETATM    8  C   UNL     1     -42.036 -44.775  11.147  1.00  0.00     0.111 A 
HETATM    9  C   UNL     1     -40.800 -44.372  11.591  1.00  0.00     0.037 A 
HETATM   10  C   UNL     1     -39.889 -45.198  10.907  1.00  0.00     0.108 A 
HETATM   11  N   UNL     1     -40.499 -46.062  10.092  1.00  0.00    -0.310 N 
ATOM     12  HN  UNL     1     -40.075 -46.769   9.491  1.00  0.00     0.186 HD
ENDBRANCH   6   7
ENDBRANCH   5   6
ENDBRANCH   3   5
ENDBRANCH   2   3
BRANCH   2  13
HETATM   13  C   UNL     1     -41.497 -50.052  12.501  1.00  0.00     0.252 C 
HETATM   14  O   UNL     1     -40.335 -49.730  12.224  1.00  0.00    -0.271 OA
HETATM   15  N   UNL     1     -41.784 -51.293  13.066  1.00  0.00    -0.350 N 
HETATM   16  C   UNL     1     -40.690 -52.072  13.650  1.00  0.00     0.130 C 
HETATM   17  C   UNL     1     -43.119 -51.860  13.255  1.00  0.00     0.130 C 
HETATM   18  C   UNL     1     -40.704 -53.521  13.150  1.00  0.00    -0.000 C 
HETATM   19  C   UNL     1     -39.621 -54.345  13.844  1.00  0.00     0.011 C 
HETATM   20  C   UNL     1     -42.088 -54.155  13.360  1.00  0.00     0.011 C 
HETATM   21  C   UNL     1     -43.178 -53.293  12.716  1.00  0.00    -0.000 C 
HETATM   22  C   UNL     1     -44.564 -53.892  12.939  1.00  0.00     0.011 C 
ENDBRANCH   2  13
TORSDOF 5
ENDMDL
MODEL 5
REMARK VINA RESULT:      -5.5      3.884      6.388
REMARK  5 active torsions:
REMARK  status: ('A' for Active; 'I' for Inactive)
REMARK    1  A    between atoms: C_2  and  N_3 
REMARK    2  A    between atoms: C_2  and  C_12 
REMARK    3  A    between atoms: N_3  and  C_4 
REMARK    4  A    between atoms: C_4  and  C_5 
REMARK    5  A    between atoms: C_5  and  N_6 
REMARK       I    between atoms: C_12  and  N_14 
ROOT
HETATM    1  C   UNL     1     -41.271 -49.280  13.339  1.00  0.00     0.053 C 
HETATM    2  C   UNL     1     -41.740 -50.734  13.386  1.00  0.00     0.307 C 
ENDROOT
BRANCH   2   3
HETATM    3  N   UNL     1     -40.662 -51.753  13.350  1.00  0.00     0.098 N 
HETATM    4  H   UNL     1     -40.651 -52.212  14.263  1.00  0.00     0.317 HD
BRANCH   3   5
HETATM    5  C   UNL     1     -40.832 -52.767  12.305  1.00  0.00     0.292 C 
BRANCH   5   6
HETATM    6  C   UNL     1     -40.856 -54.162  12.941  1.00  0.00     0.178 C 
BRANCH   6   7
HETATM    7  N   UNL     1     -41.994 -54.344  13.818  1.00  0.00    -0.302 N 
HETATM    8  C   UNL     1     -43.312 -54.374  13.462  1.00  0.00     0.111 A 
HETATM    9  C   UNL     1     -44.014 -54.595  14.623  1.00  0.00     0.037 A 
HETATM   10  C   UNL     1     -43.028 -54.691  15.623  1.00  0.00     0.108 A 
HETATM   11  N   UNL     1     -41.795 -54.544  15.136  1.00  0.00    -0.310 N 
ATOM     12  HN  UNL     1     -40.909 -54.576  15.641  1.00  0.00     0.186 HD
ENDBRANCH   6   7
ENDBRANCH   5   6
ENDBRANCH   3   5
ENDBRANCH   2   3
BRANCH   2  13
HETATM   13  C   UNL     1     -42.651 -50.972  14.622  1.00  0.00     0.252 C 
HETATM   14  O   UNL     1     -42.116 -51.258  15.700  1.00  0.00    -0.271 OA
HETATM   15  N   UNL     1     -44.035 -50.870  14.511  1.00  0.00    -0.350 N 
HETATM   16  C   UNL     1     -44.835 -50.758  15.733  1.00  0.00     0.130 C 
HETATM   17  C   UNL     1     -44.787 -50.732  13.263  1.00  0.00     0.130 C 
HETATM   18  C   UNL     1     -46.005 -51.749  15.730  1.00  0.00    -0.000 C 
HETATM   19  C   UNL     1     -46.886 -51.551  16.961  1.00  0.00     0.011 C 
HETATM   20  C   UNL     1     -46.831 -51.610  14.442  1.00  0.00     0.011 C 
HETATM   21  C   UNL     1     -45.934 -51.747  13.209  1.00  0.00    -0.000 C 
HETATM   22  C   UNL     1     -46.733 -51.583  11.919  1.00  0.00     0.011 C 
ENDBRANCH   2  13
TORSDOF 5
ENDMDL
MODEL 6
REMARK VINA RESULT:      -5.5      3.605      6.056
REMARK  5 active torsions:
REMARK  status: ('A' for Active; 'I' for Inactive)
REMARK    1  A    between atoms: C_2  and  N_3 
REMARK    2  A    between atoms: C_2  and  C_12 
REMARK    3  A    between atoms: N_3  and  C_4 
REMARK    4  A    between atoms: C_4  and  C_5 
REMARK    5  A    between atoms: C_5  and  N_6 
REMARK       I    between atoms: C_12  and  N_14 
ROOT
HETATM    1  C   UNL     1     -42.513 -52.539  15.621  1.00  0.00     0.053 C 
HETATM    2  C   UNL     1     -42.089 -52.745  14.167  1.00  0.00     0.307 C 
ENDROOT
BRANCH   2   3
HETATM    3  N   UNL     1     -42.793 -53.834  13.446  1.00  0.00     0.098 N 
HETATM    4  H   UNL     1     -42.077 -54.464  13.078  1.00  0.00     0.317 HD
BRANCH   3   5
HETATM    5  C   UNL     1     -43.722 -54.601  14.282  1.00  0.00     0.292 C 
BRANCH   5   6
HETATM    6  C   UNL     1     -45.099 -54.649  13.610  1.00  0.00     0.178 C 
BRANCH   6   7
HETATM    7  N   UNL     1     -45.762 -53.362  13.628  1.00  0.00    -0.302 N 
HETATM    8  C   UNL     1     -46.106 -52.628  14.727  1.00  0.00     0.111 A 
HETATM    9  C   UNL     1     -46.686 -51.477  14.250  1.00  0.00     0.037 A 
HETATM   10  C   UNL     1     -46.639 -51.609  12.849  1.00  0.00     0.108 A 
HETATM   11  N   UNL     1     -46.072 -52.755  12.466  1.00  0.00    -0.310 N 
ATOM     12  HN  UNL     1     -45.910 -53.092  11.517  1.00  0.00     0.186 HD
ENDBRANCH   6   7
ENDBRANCH   5   6
ENDBRANCH   3   5
ENDBRANCH   2   3
BRANCH   2  13
HETATM   13  C   UNL     1     -42.215 -51.417  13.371  1.00  0.00     0.252 C 
HETATM   14  O   UNL     1     -43.319 -51.114  12.903  1.00  0.00    -0.271 OA
HETATM   15  N   UNL     1     -41.105 -50.595  13.187  1.00  0.00    -0.350 N 
HETATM   16  C   UNL     1     -41.316 -49.214  12.744  1.00  0.00     0.130 C 
HETATM   17  C   UNL     1     -39.722 -50.935  13.519  1.00  0.00     0.130 C 
HETATM   18  C   UNL     1     -40.406 -48.860  11.562  1.00  0.00    -0.000 C 
HETATM   19  C   UNL     1     -40.564 -47.390  11.177  1.00  0.00     0.011 C 
HETATM   20  C   UNL     1     -38.940 -49.181  11.890  1.00  0.00     0.011 C 
HETATM   21  C   UNL     1     -38.794 -50.639  12.335  1.00  0.00    -0.000 C 
HETATM   22  C   UNL     1     -37.348 -50.969  12.694  1.00  0.00     0.011 C 
ENDBRANCH   2  13
TORSDOF 5
ENDMDL
MODEL 7
REMARK VINA RESULT:      -5.5      2.836      4.272
REMARK  5 active torsions:
REMARK  status: ('A' for Active; 'I' for Inactive)
REMARK    1  A    between atoms: C_2  and  N_3 
REMARK    2  A    between atoms: C_2  and  C_12 
REMARK    3  A    between atoms: N_3  and  C_4 
REMARK    4  A    between atoms: C_4  and  C_5 
REMARK    5  A    between atoms: C_5  and  N_6 
REMARK       I    between atoms: C_12  and  N_14 
ROOT
HETATM    1  C   UNL     1     -42.534 -48.333  13.938  1.00  0.00     0.053 C 
HETATM    2  C   UNL     1     -43.472 -49.208  13.107  1.00  0.00     0.307 C 
ENDROOT
BRANCH   2   3
HETATM    3  N   UNL     1     -43.571 -48.851  11.671  1.00  0.00     0.098 N 
HETATM    4  H   UNL     1     -44.561 -48.711  11.463  1.00  0.00     0.317 HD
BRANCH   3   5
HETATM    5  C   UNL     1     -42.827 -47.642  11.303  1.00  0.00     0.292 C 
BRANCH   5   6
HETATM    6  C   UNL     1     -41.734 -47.999  10.289  1.00  0.00     0.178 C 
BRANCH   6   7
HETATM    7  N   UNL     1     -40.560 -48.560  10.923  1.00  0.00    -0.302 N 
HETATM    8  C   UNL     1     -39.709 -47.930  11.785  1.00  0.00     0.111 A 
HETATM    9  C   UNL     1     -38.766 -48.865  12.141  1.00  0.00     0.037 A 
HETATM   10  C   UNL     1     -39.140 -50.030  11.445  1.00  0.00     0.108 A 
HETATM   11  N   UNL     1     -40.237 -49.850  10.706  1.00  0.00    -0.310 N 
ATOM     12  HN  UNL     1     -40.717 -50.529  10.115  1.00  0.00     0.186 HD
ENDBRANCH   6   7
ENDBRANCH   5   6
ENDBRANCH   3   5
ENDBRANCH   2   3
BRANCH   2  13
HETATM   13  C   UNL     1     -43.088 -50.707  13.254  1.00  0.00     0.252 C 
HETATM   14  O   UNL     1     -42.202 -51.162  12.521  1.00  0.00    -0.271 OA
HETATM   15  N   UNL     1     -43.735 -51.515  14.186  1.00  0.00    -0.350 N 
HETATM   16  C   UNL     1     -43.135 -52.803  14.541  1.00  0.00     0.130 C 
HETATM   17  C   UNL     1     -44.918 -51.147  14.964  1.00  0.00     0.130 C 
HETATM   18  C   UNL     1     -44.163 -53.938  14.473  1.00  0.00    -0.000 C 
HETATM   19  C   UNL     1     -43.548 -55.255  14.942  1.00  0.00     0.011 C 
HETATM   20  C   UNL     1     -45.408 -53.593  15.304  1.00  0.00     0.011 C 
HETATM   21  C   UNL     1     -45.986 -52.242  14.873  1.00  0.00    -0.000 C 
HETATM   22  C   UNL     1     -47.208 -51.869  15.707  1.00  0.00     0.011 C 
ENDBRANCH   2  13
TORSDOF 5
ENDMDL
MODEL 8
REMARK VINA RESULT:      -5.5      3.045      7.167
REMARK  5 active torsions:
REMARK  status: ('A' for Active; 'I' for Inactive)
REMARK    1  A    between atoms: C_2  and  N_3 
REMARK    2  A    between atoms: C_2  and  C_12 
REMARK    3  A    between atoms: N_3  and  C_4 
REMARK    4  A    between atoms: C_4  and  C_5 
REMARK    5  A    between atoms: C_5  and  N_6 
REMARK       I    between atoms: C_12  and  N_14 
ROOT
HETATM    1  C   UNL     1     -44.127 -47.715  10.010  1.00  0.00     0.053 C 
HETATM    2  C   UNL     1     -42.726 -47.472  10.571  1.00  0.00     0.307 C 
ENDROOT
BRANCH   2   3
HETATM    3  N   UNL     1     -41.639 -48.255   9.934  1.00  0.00     0.098 N 
HETATM    4  H   UNL     1     -41.019 -47.587   9.471  1.00  0.00     0.317 HD
BRANCH   3   5
HETATM    5  C   UNL     1     -40.857 -49.064  10.874  1.00  0.00     0.292 C 
BRANCH   5   6
HETATM    6  C   UNL     1     -41.804 -49.813  11.819  1.00  0.00     0.178 C 
BRANCH   6   7
HETATM    7  N   UNL     1     -41.258 -51.084  12.248  1.00  0.00    -0.302 N 
HETATM    8  C   UNL     1     -40.604 -51.346  13.417  1.00  0.00     0.111 A 
HETATM    9  C   UNL     1     -40.298 -52.687  13.389  1.00  0.00     0.037 A 
HETATM   10  C   UNL     1     -40.817 -53.145  12.164  1.00  0.00     0.108 A 
HETATM   11  N   UNL     1     -41.408 -52.171  11.467  1.00  0.00    -0.310 N 
ATOM     12  HN  UNL     1     -41.865 -52.236  10.557  1.00  0.00     0.186 HD
ENDBRANCH   6   7
ENDBRANCH   5   6
ENDBRANCH   3   5
ENDBRANCH   2   3
BRANCH   2  13
HETATM   13  C   UNL     1     -42.380 -45.957  10.530  1.00  0.00     0.252 C 
HETATM   14  O   UNL     1     -42.709 -45.306   9.532  1.00  0.00    -0.271 OA
HETATM   15  N   UNL     1     -41.711 -45.356  11.594  1.00  0.00    -0.350 N 
HETATM   16  C   UNL     1     -41.703 -43.894  11.686  1.00  0.00     0.130 C 
HETATM   17  C   UNL     1     -41.104 -46.052  12.728  1.00  0.00     0.130 C 
HETATM   18  C   UNL     1     -40.286 -43.354  11.916  1.00  0.00    -0.000 C 
HETATM   19  C   UNL     1     -40.308 -41.840  12.111  1.00  0.00     0.011 C 
HETATM   20  C   UNL     1     -39.631 -44.048  13.121  1.00  0.00     0.011 C 
HETATM   21  C   UNL     1     -39.667 -45.569  12.952  1.00  0.00    -0.000 C 
HETATM   22  C   UNL     1     -39.045 -46.277  14.153  1.00  0.00     0.011 C 
ENDBRANCH   2  13
TORSDOF 5
ENDMDL
MODEL 9
REMARK VINA RESULT:      -5.1      2.944      3.966
REMARK  5 active torsions:
REMARK  status: ('A' for Active; 'I' for Inactive)
REMARK    1  A    between atoms: C_2  and  N_3 
REMARK    2  A    between atoms: C_2  and  C_12 
REMARK    3  A    between atoms: N_3  and  C_4 
REMARK    4  A    between atoms: C_4  and  C_5 
REMARK    5  A    between atoms: C_5  and  N_6 
REMARK       I    between atoms: C_12  and  N_14 
ROOT
HETATM    1  C   UNL     1     -38.422 -48.829  11.824  1.00  0.00     0.053 C 
HETATM    2  C   UNL     1     -39.555 -49.761  12.254  1.00  0.00     0.307 C 
ENDROOT
BRANCH   2   3
HETATM    3  N   UNL     1     -40.588 -50.025  11.222  1.00  0.00     0.098 N 
HETATM    4  H   UNL     1     -40.840 -51.013  11.294  1.00  0.00     0.317 HD
BRANCH   3   5
HETATM    5  C   UNL     1     -41.798 -49.210  11.368  1.00  0.00     0.292 C 
BRANCH   5   6
HETATM    6  C   UNL     1     -41.778 -48.072  10.341  1.00  0.00     0.178 C 
BRANCH   6   7
HETATM    7  N   UNL     1     -41.225 -46.851  10.888  1.00  0.00    -0.302 N 
HETATM    8  C   UNL     1     -41.576 -46.240  12.058  1.00  0.00     0.111 A 
HETATM    9  C   UNL     1     -40.766 -45.134  12.167  1.00  0.00     0.037 A 
HETATM   10  C   UNL     1     -39.958 -45.170  11.016  1.00  0.00     0.108 A 
HETATM   11  N   UNL     1     -40.230 -46.218  10.236  1.00  0.00    -0.310 N 
ATOM     12  HN  UNL     1     -39.789 -46.480   9.354  1.00  0.00     0.186 HD
ENDBRANCH   6   7
ENDBRANCH   5   6
ENDBRANCH   3   5
ENDBRANCH   2   3
BRANCH   2  13
HETATM   13  C   UNL     1     -38.981 -51.105  12.783  1.00  0.00     0.252 C 
HETATM   14  O   UNL     1     -37.886 -51.488  12.353  1.00  0.00    -0.271 OA
HETATM   15  N   UNL     1     -39.691 -51.859  13.715  1.00  0.00    -0.350 N 
HETATM   16  C   UNL     1     -38.993 -52.921  14.442  1.00  0.00     0.130 C 
HETATM   17  C   UNL     1     -41.067 -51.614  14.146  1.00  0.00     0.130 C 
HETATM   18  C   UNL     1     -39.780 -54.236  14.408  1.00  0.00    -0.000 C 
HETATM   19  C   UNL     1     -39.090 -55.304  15.254  1.00  0.00     0.011 C 
HETATM   20  C   UNL     1     -41.225 -54.016  14.883  1.00  0.00     0.011 C 
HETATM   21  C   UNL     1     -41.894 -52.902  14.073  1.00  0.00    -0.000 C 
HETATM   22  C   UNL     1     -43.322 -52.649  14.549  1.00  0.00     0.011 C 
ENDBRANCH   2  13
TORSDOF 5
ENDMDL
