MODEL 1
REMARK VINA RESULT:      -6.1      0.000      0.000
REMARK  6 active torsions:
REMARK  status: ('A' for Active; 'I' for Inactive)
REMARK    1  A    between atoms: N_6  and  C_7 
REMARK    2  A    between atoms: C_7  and  C_8 
REMARK    3  A    between atoms: C_8  and  O_9 
REMARK    4  A    between atoms: C_8  and  C_10 
REMARK    5  A    between atoms: C_10  and  O_11 
REMARK    6  A    between atoms: O_11  and  C_12 
ROOT
HETATM    1  C   UNL     1     -40.899 -52.217  12.360  1.00  0.00     0.161 C 
ENDROOT
BRANCH   1   2
HETATM    2  C   UNL     1     -39.636 -51.370  12.594  1.00  0.00     0.166 C 
BRANCH   2   3
HETATM    3  N   UNL     1     -39.828 -49.957  12.279  1.00  0.00    -0.307 N 
HETATM    4  C   UNL     1     -40.503 -49.584  11.150  1.00  0.00     0.186 A 
HETATM    5  N   UNL     1     -40.691 -48.367  10.766  1.00  0.00    -0.355 N 
HETATM    6  C   UNL     1     -40.185 -47.371  11.564  1.00  0.00     0.017 A 
ATOM      7  HN  UNL     1     -41.195 -48.155   9.906  1.00  0.00     0.166 HD
HETATM    8  C   UNL     1     -40.402 -45.978  11.029  1.00  0.00     0.069 C 
HETATM    9  C   UNL     1     -39.546 -47.589  12.728  1.00  0.00     0.028 A 
HETATM   10  C   UNL     1     -39.366 -49.003  13.157  1.00  0.00     0.256 A 
HETATM   11  C   UNL     1     -39.002 -46.511  13.611  1.00  0.00     0.056 C 
HETATM   12  O   UNL     1     -38.820 -49.282  14.221  1.00  0.00    -0.267 OA
ENDBRANCH   2   3
ENDBRANCH   1   2
BRANCH   1  13
HETATM   13  O   UNL     1     -40.612 -53.206  11.357  1.00  0.00    -0.392 OA
HETATM   14  H   UNL     1     -41.080 -52.972  10.538  1.00  0.00     0.210 HD
ENDBRANCH   1  13
BRANCH   1  15
HETATM   15  C   UNL     1     -41.328 -52.882  13.684  1.00  0.00     0.209 C 
BRANCH  15  16
HETATM   16  O   UNL     1     -42.491 -53.688  13.473  1.00  0.00    -0.349 OA
BRANCH  16  17
HETATM   17  C   UNL     1     -43.704 -53.056  13.518  1.00  0.00     0.069 A 
HETATM   18  C   UNL     1     -44.710 -53.136  12.549  1.00  0.00     0.040 A 
HETATM   19  C   UNL     1     -45.908 -52.433  12.720  1.00  0.00     0.045 A 
HETATM   20  C   UNL     1     -46.094 -51.654  13.855  1.00  0.00     0.116 A 
HETATM   21  F   UNL     1     -47.242 -50.981  14.012  1.00  0.00    -0.206 F 
HETATM   22  C   UNL     1     -45.107 -51.570  14.828  1.00  0.00     0.045 A 
HETATM   23  C   UNL     1     -43.913 -52.273  14.658  1.00  0.00     0.040 A 
ENDBRANCH  16  17
ENDBRANCH  15  16
ENDBRANCH   1  15
TORSDOF 6
ENDMDL
MODEL 2
REMARK VINA RESULT:      -6.1      1.666      1.858
REMARK  6 active torsions:
REMARK  status: ('A' for Active; 'I' for Inactive)
REMARK    1  A    between atoms: N_6  and  C_7 
REMARK    2  A    between atoms: C_7  and  C_8 
REMARK    3  A    between atoms: C_8  and  O_9 
REMARK    4  A    between atoms: C_8  and  C_10 
REMARK    5  A    between atoms: C_10  and  O_11 
REMARK    6  A    between atoms: O_11  and  C_12 
ROOT
HETATM    1  C   UNL     1     -41.580 -52.617  12.072  1.00  0.00     0.161 C 
ENDROOT
BRANCH   1   2
HETATM    2  C   UNL     1     -41.063 -51.505  13.000  1.00  0.00     0.166 C 
BRANCH   2   3
HETATM    3  N   UNL     1     -41.191 -50.171  12.421  1.00  0.00    -0.307 N 
HETATM    4  C   UNL     1     -40.433 -49.809  11.342  1.00  0.00     0.186 A 
HETATM    5  N   UNL     1     -40.446 -48.646  10.784  1.00  0.00    -0.355 N 
HETATM    6  C   UNL     1     -41.298 -47.705  11.308  1.00  0.00     0.017 A 
ATOM      7  HN  UNL     1     -39.847 -48.434   9.986  1.00  0.00     0.166 HD
HETATM    8  C   UNL     1     -41.224 -46.358  10.636  1.00  0.00     0.069 C 
HETATM    9  C   UNL     1     -42.138 -47.938  12.334  1.00  0.00     0.028 A 
HETATM   10  C   UNL     1     -42.118 -49.297  12.941  1.00  0.00     0.256 A 
HETATM   11  C   UNL     1     -43.079 -46.925  12.905  1.00  0.00     0.056 C 
HETATM   12  O   UNL     1     -42.876 -49.595  13.861  1.00  0.00    -0.267 OA
ENDBRANCH   2   3
ENDBRANCH   1   2
BRANCH   1  13
HETATM   13  O   UNL     1     -40.454 -53.337  11.542  1.00  0.00    -0.392 OA
HETATM   14  H   UNL     1     -40.137 -52.886  10.742  1.00  0.00     0.210 HD
ENDBRANCH   1  13
BRANCH   1  15
HETATM   15  C   UNL     1     -42.514 -53.558  12.862  1.00  0.00     0.209 C 
BRANCH  15  16
HETATM   16  O   UNL     1     -43.837 -53.501  12.322  1.00  0.00    -0.349 OA
BRANCH  16  17
HETATM   17  C   UNL     1     -44.780 -52.830  13.051  1.00  0.00     0.069 A 
HETATM   18  C   UNL     1     -45.948 -52.246  12.547  1.00  0.00     0.040 A 
HETATM   19  C   UNL     1     -46.829 -51.583  13.409  1.00  0.00     0.045 A 
HETATM   20  C   UNL     1     -46.540 -51.505  14.765  1.00  0.00     0.116 A 
HETATM   21  F   UNL     1     -47.387 -50.866  15.584  1.00  0.00    -0.206 F 
HETATM   22  C   UNL     1     -45.388 -52.083  15.280  1.00  0.00     0.045 A 
HETATM   23  C   UNL     1     -44.509 -52.747  14.421  1.00  0.00     0.040 A 
ENDBRANCH  16  17
ENDBRANCH  15  16
ENDBRANCH   1  15
TORSDOF 6
ENDMDL
MODEL 3
REMARK VINA RESULT:      -6.0      3.476      5.648
REMARK  6 active torsions:
REMARK  status: ('A' for Active; 'I' for Inactive)
REMARK    1  A    between atoms: N_6  and  C_7 
REMARK    2  A    between atoms: C_7  and  C_8 
REMARK    3  A    between atoms: C_8  and  O_9 
REMARK    4  A    between atoms: C_8  and  C_10 
REMARK    5  A    between atoms: C_10  and  O_11 
REMARK    6  A    between atoms: O_11  and  C_12 
ROOT
HETATM    1  C   UNL     1     -41.050 -52.478  12.528  1.00  0.00     0.161 C 
ENDROOT
BRANCH   1   2
HETATM    2  C   UNL     1     -41.496 -53.873  12.998  1.00  0.00     0.166 C 
BRANCH   2   3
HETATM    3  N   UNL     1     -40.683 -54.396  14.092  1.00  0.00    -0.307 N 
HETATM    4  C   UNL     1     -39.339 -54.590  13.924  1.00  0.00     0.186 A 
HETATM    5  N   UNL     1     -38.544 -55.081  14.813  1.00  0.00    -0.355 N 
HETATM    6  C   UNL     1     -39.090 -55.420  16.027  1.00  0.00     0.017 A 
ATOM      7  HN  UNL     1     -37.551 -55.211  14.623  1.00  0.00     0.166 HD
HETATM    8  C   UNL     1     -38.113 -56.031  16.999  1.00  0.00     0.069 C 
HETATM    9  C   UNL     1     -40.384 -55.236  16.348  1.00  0.00     0.028 A 
HETATM   10  C   UNL     1     -41.272 -54.646  15.310  1.00  0.00     0.256 A 
HETATM   11  C   UNL     1     -40.988 -55.592  17.671  1.00  0.00     0.056 C 
HETATM   12  O   UNL     1     -42.457 -54.419  15.538  1.00  0.00    -0.267 OA
ENDBRANCH   2   3
ENDBRANCH   1   2
BRANCH   1  13
HETATM   13  O   UNL     1     -41.293 -52.366  11.116  1.00  0.00    -0.392 OA
HETATM   14  H   UNL     1     -42.113 -52.839  10.897  1.00  0.00     0.210 HD
ENDBRANCH   1  13
BRANCH   1  15
HETATM   15  C   UNL     1     -41.828 -51.397  13.308  1.00  0.00     0.209 C 
BRANCH  15  16
HETATM   16  O   UNL     1     -43.126 -51.218  12.735  1.00  0.00    -0.349 OA
BRANCH  16  17
HETATM   17  C   UNL     1     -44.192 -51.218  13.593  1.00  0.00     0.069 A 
HETATM   18  C   UNL     1     -44.140 -50.980  14.970  1.00  0.00     0.040 A 
HETATM   19  C   UNL     1     -45.312 -51.013  15.734  1.00  0.00     0.045 A 
HETATM   20  C   UNL     1     -46.528 -51.285  15.119  1.00  0.00     0.116 A 
HETATM   21  F   UNL     1     -47.647 -51.318  15.856  1.00  0.00    -0.206 F 
HETATM   22  C   UNL     1     -46.596 -51.518  13.753  1.00  0.00     0.045 A 
HETATM   23  C   UNL     1     -45.427 -51.483  12.990  1.00  0.00     0.040 A 
ENDBRANCH  16  17
ENDBRANCH  15  16
ENDBRANCH   1  15
TORSDOF 6
ENDMDL
MODEL 4
REMARK VINA RESULT:      -5.9      2.407      3.407
REMARK  6 active torsions:
REMARK  status: ('A' for Active; 'I' for Inactive)
REMARK    1  A    between atoms: N_6  and  C_7 
REMARK    2  A    between atoms: C_7  and  C_8 
REMARK    3  A    between atoms: C_8  and  O_9 
REMARK    4  A    between atoms: C_8  and  C_10 
REMARK    5  A    between atoms: C_10  and  O_11 
REMARK    6  A    between atoms: O_11  and  C_12 
ROOT
HETATM    1  C   UNL     1     -43.366 -53.935  13.433  1.00  0.00     0.161 C 
ENDROOT
BRANCH   1   2
HETATM    2  C   UNL     1     -41.876 -54.223  13.186  1.00  0.00     0.166 C 
BRANCH   2   3
HETATM    3  N   UNL     1     -41.100 -53.019  12.899  1.00  0.00    -0.307 N 
HETATM    4  C   UNL     1     -41.380 -52.262  11.795  1.00  0.00     0.186 A 
HETATM    5  N   UNL     1     -40.731 -51.207  11.436  1.00  0.00    -0.355 N 
HETATM    6  C   UNL     1     -39.688 -50.808  12.234  1.00  0.00     0.017 A 
ATOM      7  HN  UNL     1     -40.983 -50.690  10.594  1.00  0.00     0.166 HD
HETATM    8  C   UNL     1     -38.947 -49.596  11.728  1.00  0.00     0.069 C 
HETATM    9  C   UNL     1     -39.334 -51.426  13.376  1.00  0.00     0.028 A 
HETATM   10  C   UNL     1     -40.116 -52.626  13.777  1.00  0.00     0.256 A 
HETATM   11  C   UNL     1     -38.206 -50.993  14.260  1.00  0.00     0.056 C 
HETATM   12  O   UNL     1     -39.873 -53.227  14.821  1.00  0.00    -0.267 OA
ENDBRANCH   2   3
ENDBRANCH   1   2
BRANCH   1  13
HETATM   13  O   UNL     1     -44.106 -54.278  12.249  1.00  0.00    -0.392 OA
HETATM   14  H   UNL     1     -43.977 -53.583  11.583  1.00  0.00     0.210 HD
ENDBRANCH   1  13
BRANCH   1  15
HETATM   15  C   UNL     1     -43.857 -54.754  14.646  1.00  0.00     0.209 C 
BRANCH  15  16
HETATM   16  O   UNL     1     -45.286 -54.756  14.689  1.00  0.00    -0.349 OA
BRANCH  16  17
HETATM   17  C   UNL     1     -45.897 -53.653  15.221  1.00  0.00     0.069 A 
HETATM   18  C   UNL     1     -46.510 -52.623  14.498  1.00  0.00     0.040 A 
HETATM   19  C   UNL     1     -47.096 -51.546  15.172  1.00  0.00     0.045 A 
HETATM   20  C   UNL     1     -47.067 -51.502  16.560  1.00  0.00     0.116 A 
HETATM   21  F   UNL     1     -47.627 -50.466  17.199  1.00  0.00    -0.206 F 
HETATM   22  C   UNL     1     -46.467 -52.518  17.290  1.00  0.00     0.045 A 
HETATM   23  C   UNL     1     -45.883 -53.595  16.618  1.00  0.00     0.040 A 
ENDBRANCH  16  17
ENDBRANCH  15  16
ENDBRANCH   1  15
TORSDOF 6
ENDMDL
MODEL 5
REMARK VINA RESULT:      -5.9      1.843      2.267
REMARK  6 active torsions:
REMARK  status: ('A' for Active; 'I' for Inactive)
REMARK    1  A    between atoms: N_6  and  C_7 
REMARK    2  A    between atoms: C_7  and  C_8 
REMARK    3  A    between atoms: C_8  and  O_9 
REMARK    4  A    between atoms: C_8  and  C_10 
REMARK    5  A    between atoms: C_10  and  O_11 
REMARK    6  A    between atoms: O_11  and  C_12 
ROOT
HETATM    1  C   UNL     1     -40.380 -51.038  11.850  1.00  0.00     0.161 C 
ENDROOT
BRANCH   1   2
HETATM    2  C   UNL     1     -40.793 -49.929  12.833  1.00  0.00     0.166 C 
BRANCH   2   3
HETATM    3  N   UNL     1     -40.569 -48.586  12.309  1.00  0.00    -0.307 N 
HETATM    4  C   UNL     1     -40.919 -48.276  11.024  1.00  0.00     0.186 A 
HETATM    5  N   UNL     1     -40.727 -47.133  10.458  1.00  0.00    -0.355 N 
HETATM    6  C   UNL     1     -40.140 -46.148  11.213  1.00  0.00     0.017 A 
ATOM      7  HN  UNL     1     -41.002 -46.967   9.490  1.00  0.00     0.166 HD
HETATM    8  C   UNL     1     -39.905 -44.855  10.473  1.00  0.00     0.069 C 
HETATM    9  C   UNL     1     -39.792 -46.295  12.505  1.00  0.00     0.028 A 
HETATM   10  C   UNL     1     -40.047 -47.618  13.137  1.00  0.00     0.256 A 
HETATM   11  C   UNL     1     -39.162 -45.225  13.341  1.00  0.00     0.056 C 
HETATM   12  O   UNL     1     -39.785 -47.821  14.320  1.00  0.00    -0.267 OA
ENDBRANCH   2   3
ENDBRANCH   1   2
BRANCH   1  13
HETATM   13  O   UNL     1     -39.154 -51.630  12.310  1.00  0.00    -0.392 OA
HETATM   14  H   UNL     1     -38.456 -50.954  12.312  1.00  0.00     0.210 HD
ENDBRANCH   1  13
BRANCH   1  15
HETATM   15  C   UNL     1     -41.502 -52.093  11.759  1.00  0.00     0.209 C 
BRANCH  15  16
HETATM   16  O   UNL     1     -41.372 -53.038  12.824  1.00  0.00    -0.349 OA
BRANCH  16  17
HETATM   17  C   UNL     1     -42.517 -53.649  13.260  1.00  0.00     0.069 A 
HETATM   18  C   UNL     1     -42.617 -54.537  14.336  1.00  0.00     0.040 A 
HETATM   19  C   UNL     1     -43.856 -55.095  14.674  1.00  0.00     0.045 A 
HETATM   20  C   UNL     1     -44.985 -54.764  13.935  1.00  0.00     0.116 A 
HETATM   21  F   UNL     1     -46.168 -55.303  14.261  1.00  0.00    -0.206 F 
HETATM   22  C   UNL     1     -44.902 -53.881  12.868  1.00  0.00     0.045 A 
HETATM   23  C   UNL     1     -43.666 -53.323  12.533  1.00  0.00     0.040 A 
ENDBRANCH  16  17
ENDBRANCH  15  16
ENDBRANCH   1  15
TORSDOF 6
ENDMDL
MODEL 6
REMARK VINA RESULT:      -5.8      3.156      4.087
REMARK  6 active torsions:
REMARK  status: ('A' for Active; 'I' for Inactive)
REMARK    1  A    between atoms: N_6  and  C_7 
REMARK    2  A    between atoms: C_7  and  C_8 
REMARK    3  A    between atoms: C_8  and  O_9 
REMARK    4  A    between atoms: C_8  and  C_10 
REMARK    5  A    between atoms: C_10  and  O_11 
REMARK    6  A    between atoms: O_11  and  C_12 
ROOT
HETATM    1  C   UNL     1     -42.414 -53.134  12.751  1.00  0.00     0.161 C 
ENDROOT
BRANCH   1   2
HETATM    2  C   UNL     1     -41.124 -53.917  13.051  1.00  0.00     0.166 C 
BRANCH   2   3
HETATM    3  N   UNL     1     -40.286 -53.274  14.059  1.00  0.00    -0.307 N 
HETATM    4  C   UNL     1     -40.298 -53.715  15.354  1.00  0.00     0.186 A 
HETATM    5  N   UNL     1     -39.625 -53.191  16.322  1.00  0.00    -0.355 N 
HETATM    6  C   UNL     1     -38.823 -52.118  16.022  1.00  0.00     0.017 A 
ATOM      7  HN  UNL     1     -39.685 -53.560  17.270  1.00  0.00     0.166 HD
HETATM    8  C   UNL     1     -38.104 -51.529  17.209  1.00  0.00     0.069 C 
HETATM    9  C   UNL     1     -38.673 -51.612  14.784  1.00  0.00     0.028 A 
HETATM   10  C   UNL     1     -39.444 -52.252  13.684  1.00  0.00     0.256 A 
HETATM   11  C   UNL     1     -37.793 -50.450  14.443  1.00  0.00     0.056 C 
HETATM   12  O   UNL     1     -39.338 -51.867  12.522  1.00  0.00    -0.267 OA
ENDBRANCH   2   3
ENDBRANCH   1   2
BRANCH   1  13
HETATM   13  O   UNL     1     -42.243 -52.418  11.517  1.00  0.00    -0.392 OA
HETATM   14  H   UNL     1     -41.642 -52.918  10.940  1.00  0.00     0.210 HD
ENDBRANCH   1  13
BRANCH   1  15
HETATM   15  C   UNL     1     -43.603 -54.113  12.660  1.00  0.00     0.209 C 
BRANCH  15  16
HETATM   16  O   UNL     1     -44.789 -53.409  12.281  1.00  0.00    -0.349 OA
BRANCH  16  17
HETATM   17  C   UNL     1     -45.574 -52.921  13.291  1.00  0.00     0.069 A 
HETATM   18  C   UNL     1     -46.074 -51.618  13.388  1.00  0.00     0.040 A 
HETATM   19  C   UNL     1     -46.866 -51.249  14.481  1.00  0.00     0.045 A 
HETATM   20  C   UNL     1     -47.154 -52.182  15.470  1.00  0.00     0.116 A 
HETATM   21  F   UNL     1     -47.910 -51.822  16.516  1.00  0.00    -0.206 F 
HETATM   22  C   UNL     1     -46.669 -53.479  15.384  1.00  0.00     0.045 A 
HETATM   23  C   UNL     1     -45.880 -53.848  14.293  1.00  0.00     0.040 A 
ENDBRANCH  16  17
ENDBRANCH  15  16
ENDBRANCH   1  15
TORSDOF 6
ENDMDL
MODEL 7
REMARK VINA RESULT:      -5.7      3.578      6.946
REMARK  6 active torsions:
REMARK  status: ('A' for Active; 'I' for Inactive)
REMARK    1  A    between atoms: N_6  and  C_7 
REMARK    2  A    between atoms: C_7  and  C_8 
REMARK    3  A    between atoms: C_8  and  O_9 
REMARK    4  A    between atoms: C_8  and  C_10 
REMARK    5  A    between atoms: C_10  and  O_11 
REMARK    6  A    between atoms: O_11  and  C_12 
ROOT
HETATM    1  C   UNL     1     -40.747 -53.913  14.747  1.00  0.00     0.161 C 
ENDROOT
BRANCH   1   2
HETATM    2  C   UNL     1     -41.516 -54.387  13.502  1.00  0.00     0.166 C 
BRANCH   2   3
HETATM    3  N   UNL     1     -42.848 -53.799  13.394  1.00  0.00    -0.307 N 
HETATM    4  C   UNL     1     -43.062 -52.711  12.593  1.00  0.00     0.186 A 
HETATM    5  N   UNL     1     -44.189 -52.098  12.460  1.00  0.00    -0.355 N 
HETATM    6  C   UNL     1     -45.259 -52.589  13.167  1.00  0.00     0.017 A 
ATOM      7  HN  UNL     1     -44.282 -51.283  11.855  1.00  0.00     0.166 HD
HETATM    8  C   UNL     1     -46.530 -51.795  12.999  1.00  0.00     0.069 C 
HETATM    9  C   UNL     1     -45.207 -53.682  13.951  1.00  0.00     0.028 A 
HETATM   10  C   UNL     1     -43.899 -54.382  14.065  1.00  0.00     0.256 A 
HETATM   11  C   UNL     1     -46.370 -54.233  14.716  1.00  0.00     0.056 C 
HETATM   12  O   UNL     1     -43.778 -55.403  14.737  1.00  0.00    -0.267 OA
ENDBRANCH   2   3
ENDBRANCH   1   2
BRANCH   1  13
HETATM   13  O   UNL     1     -40.868 -54.912  15.773  1.00  0.00    -0.392 OA
HETATM   14  H   UNL     1     -41.419 -54.562  16.494  1.00  0.00     0.210 HD
ENDBRANCH   1  13
BRANCH   1  15
HETATM   15  C   UNL     1     -39.267 -53.676  14.381  1.00  0.00     0.209 C 
BRANCH  15  16
HETATM   16  O   UNL     1     -39.173 -52.731  13.311  1.00  0.00    -0.349 OA
BRANCH  16  17
HETATM   17  C   UNL     1     -38.648 -51.503  13.608  1.00  0.00     0.069 A 
HETATM   18  C   UNL     1     -38.353 -51.022  14.889  1.00  0.00     0.040 A 
HETATM   19  C   UNL     1     -37.820 -49.738  15.051  1.00  0.00     0.045 A 
HETATM   20  C   UNL     1     -37.586 -48.942  13.936  1.00  0.00     0.116 A 
HETATM   21  F   UNL     1     -37.078 -47.713  14.098  1.00  0.00    -0.206 F 
HETATM   22  C   UNL     1     -37.868 -49.408  12.660  1.00  0.00     0.045 A 
HETATM   23  C   UNL     1     -38.398 -50.690  12.497  1.00  0.00     0.040 A 
ENDBRANCH  16  17
ENDBRANCH  15  16
ENDBRANCH   1  15
TORSDOF 6
ENDMDL
MODEL 8
REMARK VINA RESULT:      -5.7      1.938      2.737
REMARK  6 active torsions:
REMARK  status: ('A' for Active; 'I' for Inactive)
REMARK    1  A    between atoms: N_6  and  C_7 
REMARK    2  A    between atoms: C_7  and  C_8 
REMARK    3  A    between atoms: C_8  and  O_9 
REMARK    4  A    between atoms: C_8  and  C_10 
REMARK    5  A    between atoms: C_10  and  O_11 
REMARK    6  A    between atoms: O_11  and  C_12 
ROOT
HETATM    1  C   UNL     1     -41.362 -54.216  14.615  1.00  0.00     0.161 C 
ENDROOT
BRANCH   1   2
HETATM    2  C   UNL     1     -40.825 -54.064  13.182  1.00  0.00     0.166 C 
BRANCH   2   3
HETATM    3  N   UNL     1     -40.726 -52.672  12.752  1.00  0.00    -0.307 N 
HETATM    4  C   UNL     1     -41.792 -52.053  12.160  1.00  0.00     0.186 A 
HETATM    5  N   UNL     1     -41.791 -50.843  11.713  1.00  0.00    -0.355 N 
HETATM    6  C   UNL     1     -40.634 -50.119  11.857  1.00  0.00     0.017 A 
ATOM      7  HN  UNL     1     -42.617 -50.441  11.271  1.00  0.00     0.166 HD
HETATM    8  C   UNL     1     -40.692 -48.731  11.270  1.00  0.00     0.069 C 
HETATM    9  C   UNL     1     -39.526 -50.583  12.466  1.00  0.00     0.028 A 
HETATM   10  C   UNL     1     -39.565 -51.973  12.993  1.00  0.00     0.256 A 
HETATM   11  C   UNL     1     -38.263 -49.798  12.640  1.00  0.00     0.056 C 
HETATM   12  O   UNL     1     -38.605 -52.457  13.588  1.00  0.00    -0.267 OA
ENDBRANCH   2   3
ENDBRANCH   1   2
BRANCH   1  13
HETATM   13  O   UNL     1     -41.203 -52.963  15.303  1.00  0.00    -0.392 OA
HETATM   14  H   UNL     1     -41.877 -52.339  14.986  1.00  0.00     0.210 HD
ENDBRANCH   1  13
BRANCH   1  15
HETATM   15  C   UNL     1     -42.846 -54.634  14.570  1.00  0.00     0.209 C 
BRANCH  15  16
HETATM   16  O   UNL     1     -43.648 -53.671  15.257  1.00  0.00    -0.349 OA
BRANCH  16  17
HETATM   17  C   UNL     1     -44.594 -53.007  14.522  1.00  0.00     0.069 A 
HETATM   18  C   UNL     1     -45.395 -51.952  14.973  1.00  0.00     0.040 A 
HETATM   19  C   UNL     1     -46.329 -51.363  14.113  1.00  0.00     0.045 A 
HETATM   20  C   UNL     1     -46.459 -51.830  12.811  1.00  0.00     0.116 A 
HETATM   21  F   UNL     1     -47.357 -51.264  11.994  1.00  0.00    -0.206 F 
HETATM   22  C   UNL     1     -45.667 -52.873  12.349  1.00  0.00     0.045 A 
HETATM   23  C   UNL     1     -44.734 -53.460  13.206  1.00  0.00     0.040 A 
ENDBRANCH  16  17
ENDBRANCH  15  16
ENDBRANCH   1  15
TORSDOF 6
ENDMDL
MODEL 9
REMARK VINA RESULT:      -5.6      1.599      1.974
REMARK  6 active torsions:
REMARK  status: ('A' for Active; 'I' for Inactive)
REMARK    1  A    between atoms: N_6  and  C_7 
REMARK    2  A    between atoms: C_7  and  C_8 
REMARK    3  A    between atoms: C_8  and  O_9 
REMARK    4  A    between atoms: C_8  and  C_10 
REMARK    5  A    between atoms: C_10  and  O_11 
REMARK    6  A    between atoms: O_11  and  C_12 
ROOT
HETATM    1  C   UNL     1     -42.146 -52.382  12.210  1.00  0.00     0.161 C 
ENDROOT
BRANCH   1   2
HETATM    2  C   UNL     1     -41.171 -52.047  13.351  1.00  0.00     0.166 C 
BRANCH   2   3
HETATM    3  N   UNL     1     -40.712 -50.662  13.324  1.00  0.00    -0.307 N 
HETATM    4  C   UNL     1     -41.574 -49.652  12.995  1.00  0.00     0.186 A 
HETATM    5  N   UNL     1     -41.256 -48.405  12.907  1.00  0.00    -0.355 N 
HETATM    6  C   UNL     1     -39.954 -48.067  13.180  1.00  0.00     0.017 A 
ATOM      7  HN  UNL     1     -41.945 -47.700  12.646  1.00  0.00     0.166 HD
HETATM    8  C   UNL     1     -39.645 -46.600  13.011  1.00  0.00     0.069 C 
HETATM    9  C   UNL     1     -39.012 -48.947  13.566  1.00  0.00     0.028 A 
HETATM   10  C   UNL     1     -39.414 -50.375  13.683  1.00  0.00     0.256 A 
HETATM   11  C   UNL     1     -37.593 -48.587  13.878  1.00  0.00     0.056 C 
HETATM   12  O   UNL     1     -38.620 -51.233  14.059  1.00  0.00    -0.267 OA
ENDBRANCH   2   3
ENDBRANCH   1   2
BRANCH   1  13
HETATM   13  O   UNL     1     -41.386 -52.700  11.031  1.00  0.00    -0.392 OA
HETATM   14  H   UNL     1     -41.691 -52.142  10.297  1.00  0.00     0.210 HD
ENDBRANCH   1  13
BRANCH   1  15
HETATM   15  C   UNL     1     -43.041 -53.568  12.625  1.00  0.00     0.209 C 
BRANCH  15  16
HETATM   16  O   UNL     1     -44.385 -53.342  12.194  1.00  0.00    -0.349 OA
BRANCH  16  17
HETATM   17  C   UNL     1     -45.277 -52.904  13.136  1.00  0.00     0.069 A 
HETATM   18  C   UNL     1     -45.911 -51.657  13.152  1.00  0.00     0.040 A 
HETATM   19  C   UNL     1     -46.803 -51.337  14.182  1.00  0.00     0.045 A 
HETATM   20  C   UNL     1     -47.056 -52.261  15.189  1.00  0.00     0.116 A 
HETATM   21  F   UNL     1     -47.908 -51.946  16.173  1.00  0.00    -0.206 F 
HETATM   22  C   UNL     1     -46.438 -53.503  15.182  1.00  0.00     0.045 A 
HETATM   23  C   UNL     1     -45.549 -53.824  14.154  1.00  0.00     0.040 A 
ENDBRANCH  16  17
ENDBRANCH  15  16
ENDBRANCH   1  15
TORSDOF 6
ENDMDL
