MODEL 1
REMARK VINA RESULT:      -6.2      0.000      0.000
REMARK  8 active torsions:
REMARK  status: ('A' for Active; 'I' for Inactive)
REMARK    1  A    between atoms: C_2  and  N_3 
REMARK    2  A    between atoms: C_5  and  C_6 
REMARK    3  A    between atoms: C_6  and  N_7 
REMARK    4  A    between atoms: N_12  and  C_13 
REMARK    5  A    between atoms: C_13  and  C_14 
REMARK    6  A    between atoms: C_14  and  O_15 
REMARK    7  A    between atoms: C_14  and  C_16 
REMARK    8  A    between atoms: C_16  and  N_17 
ROOT
HETATM    1  N   UNL     1     -40.921 -45.931  10.774  1.00  0.00    -0.308 N 
HETATM    2  C   UNL     1     -42.033 -46.051   9.962  1.00  0.00     0.122 C 
HETATM    3  C   UNL     1     -42.906 -47.055  10.103  1.00  0.00     0.110 C 
HETATM    4  C   UNL     1     -42.705 -47.956  11.244  1.00  0.00     0.272 C 
HETATM    5  O   UNL     1     -43.653 -48.579  11.726  1.00  0.00    -0.266 OA
HETATM    6  N   UNL     1     -41.411 -48.016  11.743  1.00  0.00    -0.262 N 
HETATM    7  C   UNL     1     -40.529 -46.950  11.658  1.00  0.00     0.331 C 
HETATM    8  O   UNL     1     -39.497 -46.873  12.324  1.00  0.00    -0.246 OA
ENDROOT
BRANCH   6   9
HETATM    9  C   UNL     1     -41.052 -49.194  12.557  1.00  0.00     0.170 C 
BRANCH   9  10
HETATM   10  C   UNL     1     -40.973 -50.445  11.656  1.00  0.00     0.165 C 
BRANCH  10  11
HETATM   11  O   UNL     1     -40.209 -50.085  10.491  1.00  0.00    -0.392 OA
HETATM   12  H   UNL     1     -39.283 -50.327  10.665  1.00  0.00     0.210 HD
ENDBRANCH  10  11
BRANCH  10  13
HETATM   13  C   UNL     1     -40.413 -51.727  12.330  1.00  0.00     0.305 C 
BRANCH  13  14
HETATM   14  N   UNL     1     -41.344 -52.868  12.172  1.00  0.00     0.091 N 
HETATM   15  C   UNL     1     -42.746 -52.579  12.512  1.00  0.00     0.273 C 
HETATM   16  C   UNL     1     -43.026 -52.491  14.015  1.00  0.00     0.034 C 
HETATM   17  C   UNL     1     -42.542 -53.723  14.790  1.00  0.00    -0.015 C 
HETATM   18  C   UNL     1     -43.538 -54.883  14.681  1.00  0.00     0.010 C 
HETATM   19  C   UNL     1     -41.127 -54.127  14.351  1.00  0.00     0.034 C 
HETATM   20  C   UNL     1     -40.914 -54.102  12.835  1.00  0.00     0.273 C 
ENDBRANCH  13  14
ENDBRANCH  10  13
ENDBRANCH   9  10
ENDBRANCH   6   9
BRANCH   3  21
HETATM   21  C   UNL     1     -44.199 -47.083   9.304  1.00  0.00    -0.030 C 
BRANCH  21  22
HETATM   22  N   UNL     1     -45.272 -47.106   8.641  1.00  0.00    -0.365 N 
ATOM     23  HN2 UNL     1     -44.400 -47.108   9.172  1.00  0.00     0.165 HD
ATOM     24  HN1 UNL     1     -46.139 -47.123   8.105  1.00  0.00     0.165 HD
ENDBRANCH  21  22
ENDBRANCH   3  21
BRANCH   1  25
HETATM   25  C   UNL     1     -40.100 -44.718  10.678  1.00  0.00     0.128 C 
HETATM   26  C   UNL     1     -39.130 -44.772   9.512  1.00  0.00     0.027 C 
ENDBRANCH   1  25
TORSDOF 8
ENDMDL
MODEL 2
REMARK VINA RESULT:      -6.2      3.257      6.415
REMARK  8 active torsions:
REMARK  status: ('A' for Active; 'I' for Inactive)
REMARK    1  A    between atoms: C_2  and  N_3 
REMARK    2  A    between atoms: C_5  and  C_6 
REMARK    3  A    between atoms: C_6  and  N_7 
REMARK    4  A    between atoms: N_12  and  C_13 
REMARK    5  A    between atoms: C_13  and  C_14 
REMARK    6  A    between atoms: C_14  and  O_15 
REMARK    7  A    between atoms: C_14  and  C_16 
REMARK    8  A    between atoms: C_16  and  N_17 
ROOT
HETATM    1  N   UNL     1     -44.653 -51.772  15.240  1.00  0.00    -0.308 N 
HETATM    2  C   UNL     1     -45.546 -51.575  14.204  1.00  0.00     0.122 C 
HETATM    3  C   UNL     1     -45.423 -52.213  13.035  1.00  0.00     0.110 C 
HETATM    4  C   UNL     1     -44.373 -53.233  12.940  1.00  0.00     0.272 C 
HETATM    5  O   UNL     1     -44.471 -54.163  12.136  1.00  0.00    -0.266 OA
HETATM    6  N   UNL     1     -43.315 -53.092  13.828  1.00  0.00    -0.262 N 
HETATM    7  C   UNL     1     -43.459 -52.492  15.069  1.00  0.00     0.331 C 
HETATM    8  O   UNL     1     -42.629 -52.602  15.972  1.00  0.00    -0.246 OA
ENDROOT
BRANCH   6   9
HETATM    9  C   UNL     1     -42.054 -53.784  13.496  1.00  0.00     0.170 C 
BRANCH   9  10
HETATM   10  C   UNL     1     -41.132 -52.834  12.701  1.00  0.00     0.165 C 
BRANCH  10  11
HETATM   11  O   UNL     1     -40.495 -53.617  11.675  1.00  0.00    -0.392 OA
HETATM   12  H   UNL     1     -39.568 -53.742  11.941  1.00  0.00     0.210 HD
ENDBRANCH  10  11
BRANCH  10  13
HETATM   13  C   UNL     1     -41.814 -51.569  12.112  1.00  0.00     0.305 C 
BRANCH  13  14
HETATM   14  N   UNL     1     -41.123 -50.334  12.547  1.00  0.00     0.091 N 
HETATM   15  C   UNL     1     -41.675 -49.706  13.759  1.00  0.00     0.273 C 
HETATM   16  C   UNL     1     -42.990 -48.955  13.538  1.00  0.00     0.034 C 
HETATM   17  C   UNL     1     -42.911 -47.925  12.404  1.00  0.00    -0.015 C 
HETATM   18  C   UNL     1     -42.256 -46.621  12.872  1.00  0.00     0.010 C 
HETATM   19  C   UNL     1     -42.214 -48.519  11.170  1.00  0.00     0.034 C 
HETATM   20  C   UNL     1     -40.954 -49.327  11.496  1.00  0.00     0.273 C 
ENDBRANCH  13  14
ENDBRANCH  10  13
ENDBRANCH   9  10
ENDBRANCH   6   9
BRANCH   3  21
HETATM   21  C   UNL     1     -46.500 -52.099  11.967  1.00  0.00    -0.030 C 
BRANCH  21  22
HETATM   22  N   UNL     1     -47.393 -52.006  11.082  1.00  0.00    -0.365 N 
ATOM     23  HN2 UNL     1     -46.659 -52.066  11.788  1.00  0.00     0.165 HD
ATOM     24  HN1 UNL     1     -48.116 -51.930  10.366  1.00  0.00     0.165 HD
ENDBRANCH  21  22
ENDBRANCH   3  21
BRANCH   1  25
HETATM   25  C   UNL     1     -44.941 -51.173  16.549  1.00  0.00     0.128 C 
HETATM   26  C   UNL     1     -46.416 -50.868  16.730  1.00  0.00     0.027 C 
ENDBRANCH   1  25
TORSDOF 8
ENDMDL
MODEL 3
REMARK VINA RESULT:      -6.1      3.362      6.597
REMARK  8 active torsions:
REMARK  status: ('A' for Active; 'I' for Inactive)
REMARK    1  A    between atoms: C_2  and  N_3 
REMARK    2  A    between atoms: C_5  and  C_6 
REMARK    3  A    between atoms: C_6  and  N_7 
REMARK    4  A    between atoms: N_12  and  C_13 
REMARK    5  A    between atoms: C_13  and  C_14 
REMARK    6  A    between atoms: C_14  and  O_15 
REMARK    7  A    between atoms: C_14  and  C_16 
REMARK    8  A    between atoms: C_16  and  N_17 
ROOT
HETATM    1  N   UNL     1     -45.318 -51.491  15.219  1.00  0.00    -0.308 N 
HETATM    2  C   UNL     1     -46.112 -51.366  14.095  1.00  0.00     0.122 C 
HETATM    3  C   UNL     1     -45.826 -52.004  12.954  1.00  0.00     0.110 C 
HETATM    4  C   UNL     1     -44.703 -52.948  12.982  1.00  0.00     0.272 C 
HETATM    5  O   UNL     1     -44.654 -53.889  12.187  1.00  0.00    -0.266 OA
HETATM    6  N   UNL     1     -43.754 -52.725  13.971  1.00  0.00    -0.262 N 
HETATM    7  C   UNL     1     -44.066 -52.127  15.181  1.00  0.00     0.331 C 
HETATM    8  O   UNL     1     -43.328 -52.171  16.166  1.00  0.00    -0.246 OA
ENDROOT
BRANCH   6   9
HETATM    9  C   UNL     1     -42.421 -53.330  13.780  1.00  0.00     0.170 C 
BRANCH   9  10
HETATM   10  C   UNL     1     -41.579 -52.445  12.836  1.00  0.00     0.165 C 
BRANCH  10  11
HETATM   11  O   UNL     1     -42.128 -52.588  11.513  1.00  0.00    -0.392 OA
HETATM   12  H   UNL     1     -42.582 -53.448  11.479  1.00  0.00     0.210 HD
ENDBRANCH  10  11
BRANCH  10  13
HETATM   13  C   UNL     1     -41.455 -50.952  13.242  1.00  0.00     0.305 C 
BRANCH  13  14
HETATM   14  N   UNL     1     -42.124 -50.069  12.259  1.00  0.00     0.091 N 
HETATM   15  C   UNL     1     -41.224 -49.176  11.512  1.00  0.00     0.273 C 
HETATM   16  C   UNL     1     -40.713 -47.978  12.317  1.00  0.00     0.034 C 
HETATM   17  C   UNL     1     -41.839 -47.164  12.966  1.00  0.00    -0.015 C 
HETATM   18  C   UNL     1     -42.487 -46.202  11.965  1.00  0.00     0.010 C 
HETATM   19  C   UNL     1     -42.866 -48.087  13.638  1.00  0.00     0.034 C 
HETATM   20  C   UNL     1     -43.254 -49.305  12.795  1.00  0.00     0.273 C 
ENDBRANCH  13  14
ENDBRANCH  10  13
ENDBRANCH   9  10
ENDBRANCH   6   9
BRANCH   3  21
HETATM   21  C   UNL     1     -46.793 -51.975  11.780  1.00  0.00    -0.030 C 
BRANCH  21  22
HETATM   22  N   UNL     1     -47.595 -51.951  10.808  1.00  0.00    -0.365 N 
ATOM     23  HN2 UNL     1     -46.929 -51.969  11.581  1.00  0.00     0.165 HD
ATOM     24  HN1 UNL     1     -48.244 -51.932  10.021  1.00  0.00     0.165 HD
ENDBRANCH  21  22
ENDBRANCH   3  21
BRANCH   1  25
HETATM   25  C   UNL     1     -45.780 -50.903  16.482  1.00  0.00     0.128 C 
HETATM   26  C   UNL     1     -47.249 -51.180  16.743  1.00  0.00     0.027 C 
ENDBRANCH   1  25
TORSDOF 8
ENDMDL
MODEL 4
REMARK VINA RESULT:      -5.9      3.858      6.244
REMARK  8 active torsions:
REMARK  status: ('A' for Active; 'I' for Inactive)
REMARK    1  A    between atoms: C_2  and  N_3 
REMARK    2  A    between atoms: C_5  and  C_6 
REMARK    3  A    between atoms: C_6  and  N_7 
REMARK    4  A    between atoms: N_12  and  C_13 
REMARK    5  A    between atoms: C_13  and  C_14 
REMARK    6  A    between atoms: C_14  and  O_15 
REMARK    7  A    between atoms: C_14  and  C_16 
REMARK    8  A    between atoms: C_16  and  N_17 
ROOT
HETATM    1  N   UNL     1     -44.789 -51.674  15.269  1.00  0.00    -0.308 N 
HETATM    2  C   UNL     1     -45.602 -51.445  14.175  1.00  0.00     0.122 C 
HETATM    3  C   UNL     1     -45.561 -52.224  13.088  1.00  0.00     0.110 C 
HETATM    4  C   UNL     1     -44.706 -53.414  13.155  1.00  0.00     0.272 C 
HETATM    5  O   UNL     1     -44.944 -54.398  12.452  1.00  0.00    -0.266 OA
HETATM    6  N   UNL     1     -43.665 -53.358  14.073  1.00  0.00    -0.262 N 
HETATM    7  C   UNL     1     -43.737 -52.605  15.234  1.00  0.00     0.331 C 
HETATM    8  O   UNL     1     -42.967 -52.752  16.183  1.00  0.00    -0.246 OA
ENDROOT
BRANCH   6   9
HETATM    9  C   UNL     1     -42.538 -54.291  13.879  1.00  0.00     0.170 C 
BRANCH   9  10
HETATM   10  C   UNL     1     -41.397 -53.578  13.122  1.00  0.00     0.165 C 
BRANCH  10  11
HETATM   11  O   UNL     1     -40.787 -54.551  12.254  1.00  0.00    -0.392 OA
HETATM   12  H   UNL     1     -39.826 -54.401  12.282  1.00  0.00     0.210 HD
ENDBRANCH  10  11
BRANCH  10  13
HETATM   13  C   UNL     1     -41.800 -52.296  12.345  1.00  0.00     0.305 C 
BRANCH  13  14
HETATM   14  N   UNL     1     -41.373 -51.074  13.064  1.00  0.00     0.091 N 
HETATM   15  C   UNL     1     -41.230 -49.875  12.223  1.00  0.00     0.273 C 
HETATM   16  C   UNL     1     -39.973 -49.863  11.350  1.00  0.00     0.034 C 
HETATM   17  C   UNL     1     -38.684 -50.100  12.147  1.00  0.00    -0.015 C 
HETATM   18  C   UNL     1     -38.205 -48.819  12.838  1.00  0.00     0.010 C 
HETATM   19  C   UNL     1     -38.855 -51.266  13.133  1.00  0.00     0.034 C 
HETATM   20  C   UNL     1     -40.181 -51.243  13.899  1.00  0.00     0.273 C 
ENDBRANCH  13  14
ENDBRANCH  10  13
ENDBRANCH   9  10
ENDBRANCH   6   9
BRANCH   3  21
HETATM   21  C   UNL     1     -46.569 -52.048  11.963  1.00  0.00    -0.030 C 
BRANCH  21  22
HETATM   22  N   UNL     1     -47.405 -51.903  11.031  1.00  0.00    -0.365 N 
ATOM     23  HN2 UNL     1     -46.717 -52.003  11.778  1.00  0.00     0.165 HD
ATOM     24  HN1 UNL     1     -48.081 -51.786  10.276  1.00  0.00     0.165 HD
ENDBRANCH  21  22
ENDBRANCH   3  21
BRANCH   1  25
HETATM   25  C   UNL     1     -45.004 -50.889  16.490  1.00  0.00     0.128 C 
HETATM   26  C   UNL     1     -44.223 -49.588  16.482  1.00  0.00     0.027 C 
ENDBRANCH   1  25
TORSDOF 8
ENDMDL
MODEL 5
REMARK VINA RESULT:      -5.8      4.509      6.608
REMARK  8 active torsions:
REMARK  status: ('A' for Active; 'I' for Inactive)
REMARK    1  A    between atoms: C_2  and  N_3 
REMARK    2  A    between atoms: C_5  and  C_6 
REMARK    3  A    between atoms: C_6  and  N_7 
REMARK    4  A    between atoms: N_12  and  C_13 
REMARK    5  A    between atoms: C_13  and  C_14 
REMARK    6  A    between atoms: C_14  and  O_15 
REMARK    7  A    between atoms: C_14  and  C_16 
REMARK    8  A    between atoms: C_16  and  N_17 
ROOT
HETATM    1  N   UNL     1     -38.823 -51.313  15.289  1.00  0.00    -0.308 N 
HETATM    2  C   UNL     1     -38.730 -52.500  15.989  1.00  0.00     0.122 C 
HETATM    3  C   UNL     1     -39.110 -53.667  15.455  1.00  0.00     0.110 C 
HETATM    4  C   UNL     1     -39.510 -53.654  14.043  1.00  0.00     0.272 C 
HETATM    5  O   UNL     1     -39.419 -54.673  13.356  1.00  0.00    -0.266 OA
HETATM    6  N   UNL     1     -39.948 -52.430  13.553  1.00  0.00    -0.262 N 
HETATM    7  C   UNL     1     -39.500 -51.221  14.061  1.00  0.00     0.331 C 
HETATM    8  O   UNL     1     -39.648 -50.148  13.477  1.00  0.00    -0.246 OA
ENDROOT
BRANCH   6   9
HETATM    9  C   UNL     1     -40.766 -52.446  12.324  1.00  0.00     0.170 C 
BRANCH   9  10
HETATM   10  C   UNL     1     -42.161 -51.855  12.620  1.00  0.00     0.165 C 
BRANCH  10  11
HETATM   11  O   UNL     1     -42.275 -50.632  11.870  1.00  0.00    -0.392 OA
HETATM   12  H   UNL     1     -42.377 -50.876  10.934  1.00  0.00     0.210 HD
ENDBRANCH  10  11
BRANCH  10  13
HETATM   13  C   UNL     1     -43.364 -52.800  12.355  1.00  0.00     0.305 C 
BRANCH  13  14
HETATM   14  N   UNL     1     -44.044 -53.173  13.616  1.00  0.00     0.091 N 
HETATM   15  C   UNL     1     -45.434 -53.632  13.461  1.00  0.00     0.273 C 
HETATM   16  C   UNL     1     -46.442 -52.512  13.188  1.00  0.00     0.034 C 
HETATM   17  C   UNL     1     -46.376 -51.378  14.219  1.00  0.00    -0.015 C 
HETATM   18  C   UNL     1     -47.137 -51.738  15.500  1.00  0.00     0.010 C 
HETATM   19  C   UNL     1     -44.921 -50.974  14.499  1.00  0.00     0.034 C 
HETATM   20  C   UNL     1     -43.968 -52.161  14.672  1.00  0.00     0.273 C 
ENDBRANCH  13  14
ENDBRANCH  10  13
ENDBRANCH   9  10
ENDBRANCH   6   9
BRANCH   3  21
HETATM   21  C   UNL     1     -38.855 -54.977  16.183  1.00  0.00    -0.030 C 
BRANCH  21  22
HETATM   22  N   UNL     1     -38.645 -56.064  16.787  1.00  0.00    -0.365 N 
ATOM     23  HN2 UNL     1     -38.809 -55.174  16.316  1.00  0.00     0.165 HD
ATOM     24  HN1 UNL     1     -38.474 -56.944  17.275  1.00  0.00     0.165 HD
ENDBRANCH  21  22
ENDBRANCH   3  21
BRANCH   1  25
HETATM   25  C   UNL     1     -38.233 -50.099  15.867  1.00  0.00     0.128 C 
HETATM   26  C   UNL     1     -36.752 -49.977  15.559  1.00  0.00     0.027 C 
ENDBRANCH   1  25
TORSDOF 8
ENDMDL
MODEL 6
REMARK VINA RESULT:      -5.6      2.551      3.605
REMARK  8 active torsions:
REMARK  status: ('A' for Active; 'I' for Inactive)
REMARK    1  A    between atoms: C_2  and  N_3 
REMARK    2  A    between atoms: C_5  and  C_6 
REMARK    3  A    between atoms: C_6  and  N_7 
REMARK    4  A    between atoms: N_12  and  C_13 
REMARK    5  A    between atoms: C_13  and  C_14 
REMARK    6  A    between atoms: C_14  and  O_15 
REMARK    7  A    between atoms: C_14  and  C_16 
REMARK    8  A    between atoms: C_16  and  N_17 
ROOT
HETATM    1  N   UNL     1     -39.932 -46.437  14.523  1.00  0.00    -0.308 N 
HETATM    2  C   UNL     1     -40.016 -45.284  13.766  1.00  0.00     0.122 C 
HETATM    3  C   UNL     1     -39.976 -45.312  12.429  1.00  0.00     0.110 C 
HETATM    4  C   UNL     1     -39.970 -46.634  11.791  1.00  0.00     0.272 C 
HETATM    5  O   UNL     1     -40.398 -46.778  10.644  1.00  0.00    -0.266 OA
HETATM    6  N   UNL     1     -39.497 -47.678  12.574  1.00  0.00    -0.262 N 
HETATM    7  C   UNL     1     -39.601 -47.680  13.956  1.00  0.00     0.331 C 
HETATM    8  O   UNL     1     -39.452 -48.690  14.643  1.00  0.00    -0.246 OA
ENDROOT
BRANCH   6   9
HETATM    9  C   UNL     1     -39.050 -48.900  11.876  1.00  0.00     0.170 C 
BRANCH   9  10
HETATM   10  C   UNL     1     -40.257 -49.833  11.637  1.00  0.00     0.165 C 
BRANCH  10  11
HETATM   11  O   UNL     1     -40.486 -49.879  10.217  1.00  0.00    -0.392 OA
HETATM   12  H   UNL     1     -39.928 -50.589   9.856  1.00  0.00     0.210 HD
ENDBRANCH  10  11
BRANCH  10  13
HETATM   13  C   UNL     1     -40.139 -51.258  12.241  1.00  0.00     0.305 C 
BRANCH  13  14
HETATM   14  N   UNL     1     -41.066 -51.438  13.381  1.00  0.00     0.091 N 
HETATM   15  C   UNL     1     -40.750 -52.570  14.268  1.00  0.00     0.273 C 
HETATM   16  C   UNL     1     -41.108 -53.942  13.693  1.00  0.00     0.034 C 
HETATM   17  C   UNL     1     -42.565 -54.036  13.223  1.00  0.00    -0.015 C 
HETATM   18  C   UNL     1     -43.519 -54.289  14.395  1.00  0.00     0.010 C 
HETATM   19  C   UNL     1     -42.960 -52.796  12.406  1.00  0.00     0.034 C 
HETATM   20  C   UNL     1     -42.484 -51.473  13.014  1.00  0.00     0.273 C 
ENDBRANCH  13  14
ENDBRANCH  10  13
ENDBRANCH   9  10
ENDBRANCH   6   9
BRANCH   3  21
HETATM   21  C   UNL     1     -40.225 -44.052  11.615  1.00  0.00    -0.030 C 
BRANCH  21  22
HETATM   22  N   UNL     1     -40.430 -43.008  10.939  1.00  0.00    -0.365 N 
ATOM     23  HN2 UNL     1     -40.257 -43.863  11.468  1.00  0.00     0.165 HD
ATOM     24  HN1 UNL     1     -40.597 -42.162  10.393  1.00  0.00     0.165 HD
ENDBRANCH  21  22
ENDBRANCH   3  21
BRANCH   1  25
HETATM   25  C   UNL     1     -40.152 -46.353  15.972  1.00  0.00     0.128 C 
HETATM   26  C   UNL     1     -38.958 -45.764  16.701  1.00  0.00     0.027 C 
ENDBRANCH   1  25
TORSDOF 8
ENDMDL
MODEL 7
REMARK VINA RESULT:      -5.4      2.731      7.678
REMARK  8 active torsions:
REMARK  status: ('A' for Active; 'I' for Inactive)
REMARK    1  A    between atoms: C_2  and  N_3 
REMARK    2  A    between atoms: C_5  and  C_6 
REMARK    3  A    between atoms: C_6  and  N_7 
REMARK    4  A    between atoms: N_12  and  C_13 
REMARK    5  A    between atoms: C_13  and  C_14 
REMARK    6  A    between atoms: C_14  and  O_15 
REMARK    7  A    between atoms: C_14  and  C_16 
REMARK    8  A    between atoms: C_16  and  N_17 
ROOT
HETATM    1  N   UNL     1     -41.946 -54.714  15.479  1.00  0.00    -0.308 N 
HETATM    2  C   UNL     1     -43.323 -54.644  15.562  1.00  0.00     0.122 C 
HETATM    3  C   UNL     1     -44.075 -54.260  14.524  1.00  0.00     0.110 C 
HETATM    4  C   UNL     1     -43.385 -54.039  13.248  1.00  0.00     0.272 C 
HETATM    5  O   UNL     1     -43.990 -54.150  12.180  1.00  0.00    -0.266 OA
HETATM    6  N   UNL     1     -42.031 -53.745  13.339  1.00  0.00    -0.262 N 
HETATM    7  C   UNL     1     -41.237 -54.202  14.379  1.00  0.00     0.331 C 
HETATM    8  O   UNL     1     -40.007 -54.197  14.342  1.00  0.00    -0.246 OA
ENDROOT
BRANCH   6   9
HETATM    9  C   UNL     1     -41.401 -53.087  12.177  1.00  0.00     0.170 C 
BRANCH   9  10
HETATM   10  C   UNL     1     -40.926 -51.673  12.575  1.00  0.00     0.165 C 
BRANCH  10  11
HETATM   11  O   UNL     1     -39.651 -51.457  11.942  1.00  0.00    -0.392 OA
HETATM   12  H   UNL     1     -39.748 -50.692  11.349  1.00  0.00     0.210 HD
ENDBRANCH  10  11
BRANCH  10  13
HETATM   13  C   UNL     1     -41.916 -50.517  12.268  1.00  0.00     0.305 C 
BRANCH  13  14
HETATM   14  N   UNL     1     -41.201 -49.241  12.043  1.00  0.00     0.091 N 
HETATM   15  C   UNL     1     -41.153 -48.340  13.206  1.00  0.00     0.273 C 
HETATM   16  C   UNL     1     -42.467 -47.612  13.496  1.00  0.00     0.034 C 
HETATM   17  C   UNL     1     -43.022 -46.864  12.277  1.00  0.00    -0.015 C 
HETATM   18  C   UNL     1     -42.327 -45.512  12.082  1.00  0.00     0.010 C 
HETATM   19  C   UNL     1     -42.956 -47.741  11.017  1.00  0.00     0.034 C 
HETATM   20  C   UNL     1     -41.635 -48.499  10.856  1.00  0.00     0.273 C 
ENDBRANCH  13  14
ENDBRANCH  10  13
ENDBRANCH   9  10
ENDBRANCH   6   9
BRANCH   3  21
HETATM   21  C   UNL     1     -45.592 -54.337  14.589  1.00  0.00    -0.030 C 
BRANCH  21  22
HETATM   22  N   UNL     1     -46.850 -54.401  14.643  1.00  0.00    -0.365 N 
ATOM     23  HN2 UNL     1     -45.834 -54.337  14.581  1.00  0.00     0.165 HD
ATOM     24  HN1 UNL     1     -47.868 -54.454  14.687  1.00  0.00     0.165 HD
ENDBRANCH  21  22
ENDBRANCH   3  21
BRANCH   1  25
HETATM   25  C   UNL     1     -41.197 -55.303  16.595  1.00  0.00     0.128 C 
HETATM   26  C   UNL     1     -41.383 -56.807  16.682  1.00  0.00     0.027 C 
ENDBRANCH   1  25
TORSDOF 8
ENDMDL
MODEL 8
REMARK VINA RESULT:      -5.4      3.654      6.001
REMARK  8 active torsions:
REMARK  status: ('A' for Active; 'I' for Inactive)
REMARK    1  A    between atoms: C_2  and  N_3 
REMARK    2  A    between atoms: C_5  and  C_6 
REMARK    3  A    between atoms: C_6  and  N_7 
REMARK    4  A    between atoms: N_12  and  C_13 
REMARK    5  A    between atoms: C_13  and  C_14 
REMARK    6  A    between atoms: C_14  and  O_15 
REMARK    7  A    between atoms: C_14  and  C_16 
REMARK    8  A    between atoms: C_16  and  N_17 
ROOT
HETATM    1  N   UNL     1     -43.548 -51.042  15.294  1.00  0.00    -0.308 N 
HETATM    2  C   UNL     1     -44.573 -51.091  14.369  1.00  0.00     0.122 C 
HETATM    3  C   UNL     1     -44.570 -51.963  13.355  1.00  0.00     0.110 C 
HETATM    4  C   UNL     1     -43.492 -52.959  13.338  1.00  0.00     0.272 C 
HETATM    5  O   UNL     1     -43.647 -54.042  12.770  1.00  0.00    -0.266 OA
HETATM    6  N   UNL     1     -42.338 -52.608  14.026  1.00  0.00    -0.262 N 
HETATM    7  C   UNL     1     -42.352 -51.759  15.121  1.00  0.00     0.331 C 
HETATM    8  O   UNL     1     -41.410 -51.654  15.907  1.00  0.00    -0.246 OA
ENDROOT
BRANCH   6   9
HETATM    9  C   UNL     1     -41.097 -53.331  13.682  1.00  0.00     0.170 C 
BRANCH   9  10
HETATM   10  C   UNL     1     -40.406 -52.639  12.488  1.00  0.00     0.165 C 
BRANCH  10  11
HETATM   11  O   UNL     1     -40.801 -53.344  11.298  1.00  0.00    -0.392 OA
HETATM   12  H   UNL     1     -40.850 -52.692  10.578  1.00  0.00     0.210 HD
ENDBRANCH  10  11
BRANCH  10  13
HETATM   13  C   UNL     1     -40.657 -51.112  12.356  1.00  0.00     0.305 C 
BRANCH  13  14
HETATM   14  N   UNL     1     -39.389 -50.373  12.160  1.00  0.00     0.091 N 
HETATM   15  C   UNL     1     -38.311 -50.727  13.097  1.00  0.00     0.273 C 
HETATM   16  C   UNL     1     -38.487 -50.155  14.506  1.00  0.00     0.034 C 
HETATM   17  C   UNL     1     -38.713 -48.638  14.516  1.00  0.00    -0.015 C 
HETATM   18  C   UNL     1     -37.393 -47.871  14.380  1.00  0.00     0.010 C 
HETATM   19  C   UNL     1     -39.739 -48.228  13.448  1.00  0.00     0.034 C 
HETATM   20  C   UNL     1     -39.536 -48.916  12.095  1.00  0.00     0.273 C 
ENDBRANCH  13  14
ENDBRANCH  10  13
ENDBRANCH   9  10
ENDBRANCH   6   9
BRANCH   3  21
HETATM   21  C   UNL     1     -45.777 -52.103  12.442  1.00  0.00    -0.030 C 
BRANCH  21  22
HETATM   22  N   UNL     1     -46.778 -52.220  11.684  1.00  0.00    -0.365 N 
ATOM     23  HN2 UNL     1     -45.982 -52.122  12.314  1.00  0.00     0.165 HD
ATOM     24  HN1 UNL     1     -47.588 -52.314  11.070  1.00  0.00     0.165 HD
ENDBRANCH  21  22
ENDBRANCH   3  21
BRANCH   1  25
HETATM   25  C   UNL     1     -43.696 -50.181  16.474  1.00  0.00     0.128 C 
HETATM   26  C   UNL     1     -43.394 -48.726  16.165  1.00  0.00     0.027 C 
ENDBRANCH   1  25
TORSDOF 8
ENDMDL
MODEL 9
REMARK VINA RESULT:      -5.4      3.975      6.974
REMARK  8 active torsions:
REMARK  status: ('A' for Active; 'I' for Inactive)
REMARK    1  A    between atoms: C_2  and  N_3 
REMARK    2  A    between atoms: C_5  and  C_6 
REMARK    3  A    between atoms: C_6  and  N_7 
REMARK    4  A    between atoms: N_12  and  C_13 
REMARK    5  A    between atoms: C_13  and  C_14 
REMARK    6  A    between atoms: C_14  and  O_15 
REMARK    7  A    between atoms: C_14  and  C_16 
REMARK    8  A    between atoms: C_16  and  N_17 
ROOT
HETATM    1  N   UNL     1     -46.292 -51.707  16.118  1.00  0.00    -0.308 N 
HETATM    2  C   UNL     1     -46.787 -51.562  14.836  1.00  0.00     0.122 C 
HETATM    3  C   UNL     1     -45.984 -51.553  13.766  1.00  0.00     0.110 C 
HETATM    4  C   UNL     1     -44.563 -51.833  13.998  1.00  0.00     0.272 C 
HETATM    5  O   UNL     1     -43.861 -52.301  13.099  1.00  0.00    -0.266 OA
HETATM    6  N   UNL     1     -44.100 -51.575  15.281  1.00  0.00    -0.262 N 
HETATM    7  C   UNL     1     -44.916 -51.653  16.398  1.00  0.00     0.331 C 
HETATM    8  O   UNL     1     -44.483 -51.706  17.549  1.00  0.00    -0.246 OA
ENDROOT
BRANCH   6   9
HETATM    9  C   UNL     1     -42.644 -51.404  15.455  1.00  0.00     0.170 C 
BRANCH   9  10
HETATM   10  C   UNL     1     -42.289 -49.902  15.432  1.00  0.00     0.165 C 
BRANCH  10  11
HETATM   11  O   UNL     1     -41.563 -49.616  16.642  1.00  0.00    -0.392 OA
HETATM   12  H   UNL     1     -41.403 -50.464  17.091  1.00  0.00     0.210 HD
ENDBRANCH  10  11
BRANCH  10  13
HETATM   13  C   UNL     1     -41.520 -49.409  14.177  1.00  0.00     0.305 C 
BRANCH  13  14
HETATM   14  N   UNL     1     -40.426 -50.339  13.816  1.00  0.00     0.091 N 
HETATM   15  C   UNL     1     -39.072 -49.868  14.150  1.00  0.00     0.273 C 
HETATM   16  C   UNL     1     -38.532 -48.786  13.212  1.00  0.00     0.034 C 
HETATM   17  C   UNL     1     -38.598 -49.183  11.732  1.00  0.00    -0.015 C 
HETATM   18  C   UNL     1     -37.428 -50.093  11.341  1.00  0.00     0.010 C 
HETATM   19  C   UNL     1     -39.960 -49.806  11.391  1.00  0.00     0.034 C 
HETATM   20  C   UNL     1     -40.462 -50.813  12.429  1.00  0.00     0.273 C 
ENDBRANCH  13  14
ENDBRANCH  10  13
ENDBRANCH   9  10
ENDBRANCH   6   9
BRANCH   3  21
HETATM   21  C   UNL     1     -46.560 -51.547  12.359  1.00  0.00    -0.030 C 
BRANCH  21  22
HETATM   22  N   UNL     1     -47.038 -51.543  11.192  1.00  0.00    -0.365 N 
ATOM     23  HN2 UNL     1     -46.669 -51.535  12.143  1.00  0.00     0.165 HD
ATOM     24  HN1 UNL     1     -47.424 -51.539  10.247  1.00  0.00     0.165 HD
ENDBRANCH  21  22
ENDBRANCH   3  21
BRANCH   1  25
HETATM   25  C   UNL     1     -47.237 -51.879  17.228  1.00  0.00     0.128 C 
HETATM   26  C   UNL     1     -48.108 -50.654  17.438  1.00  0.00     0.027 C 
ENDBRANCH   1  25
TORSDOF 8
ENDMDL
