MODEL 1
REMARK VINA RESULT:      -6.2      0.000      0.000
REMARK  4 active torsions:
REMARK  status: ('A' for Active; 'I' for Inactive)
REMARK    1  A    between atoms: O_1  and  C_2 
REMARK    2  A    between atoms: C_2  and  C_3 
REMARK    3  A    between atoms: C_4  and  N_5 
REMARK       I    between atoms: N_5  and  C_6 
REMARK       I    between atoms: C_6  and  N_8 
REMARK    4  A    between atoms: N_8  and  C_9 
ROOT
HETATM    1  N   UNL     1     -42.736 -52.507  13.563  1.00  0.00    -0.337 N 
HETATM    2  C   UNL     1     -41.691 -53.381  13.513  1.00  0.00     0.322 C 
HETATM    3  O   UNL     1     -41.721 -54.498  14.026  1.00  0.00    -0.247 OA
HETATM    4  N   UNL     1     -40.606 -53.002  12.783  1.00  0.00    -0.288 N 
HETATM    5  H   UNL     1     -42.534 -51.544  13.308  1.00  0.00     0.164 HD
HETATM    6  H   UNL     1     -39.902 -53.709  12.632  1.00  0.00     0.172 HD
ENDROOT
BRANCH   1   7
HETATM    7  C   UNL     1     -44.011 -52.778  14.205  1.00  0.00     0.096 C 
HETATM    8  C   UNL     1     -45.008 -53.504  13.266  1.00  0.00     0.036 C 
HETATM    9  C   UNL     1     -46.188 -52.500  13.163  1.00  0.00    -0.006 C 
HETATM   10  C   UNL     1     -46.963 -52.390  14.485  1.00  0.00     0.005 C 
HETATM   11  C   UNL     1     -45.444 -51.162  13.162  1.00  0.00     0.012 C 
HETATM   12  C   UNL     1     -45.942 -51.735  15.425  1.00  0.00     0.007 C 
HETATM   13  C   UNL     1     -44.748 -51.448  14.496  1.00  0.00     0.009 C 
BRANCH   8  14
HETATM   14  C   UNL     1     -45.363 -54.899  13.770  1.00  0.00     0.171 C 
BRANCH  14  15
HETATM   15  O   UNL     1     -44.394 -55.330  14.717  1.00  0.00    -0.400 OA
HETATM   16  H   UNL     1     -44.345 -54.637  15.398  1.00  0.00     0.209 HD
ENDBRANCH  14  15
ENDBRANCH   8  14
ENDBRANCH   1   7
BRANCH   4  17
HETATM   17  C   UNL     1     -40.440 -51.772  12.208  1.00  0.00     0.168 A 
HETATM   18  N   UNL     1     -40.847 -51.363  11.030  1.00  0.00    -0.279 N 
HETATM   19  N   UNL     1     -40.467 -50.061  10.781  1.00  0.00    -0.303 N 
ATOM     20  HN  UNL     1     -41.381 -51.937  10.378  1.00  0.00     0.189 HD
HETATM   21  C   UNL     1     -39.782 -49.557  11.785  1.00  0.00     0.160 A 
ATOM     22  HN  UNL     1     -40.688 -49.553   9.925  1.00  0.00     0.186 HD
HETATM   23  S   UNL     1     -39.585 -50.619  13.123  1.00  0.00    -0.046 SA
ENDBRANCH   4  17
TORSDOF 4
ENDMDL
MODEL 2
REMARK VINA RESULT:      -5.8      1.877      2.513
REMARK  4 active torsions:
REMARK  status: ('A' for Active; 'I' for Inactive)
REMARK    1  A    between atoms: O_1  and  C_2 
REMARK    2  A    between atoms: C_2  and  C_3 
REMARK    3  A    between atoms: C_4  and  N_5 
REMARK       I    between atoms: N_5  and  C_6 
REMARK       I    between atoms: C_6  and  N_8 
REMARK    4  A    between atoms: N_8  and  C_9 
ROOT
HETATM    1  N   UNL     1     -42.537 -51.189  12.481  1.00  0.00    -0.337 N 
HETATM    2  C   UNL     1     -41.418 -51.781  11.977  1.00  0.00     0.322 C 
HETATM    3  O   UNL     1     -41.189 -52.986  12.076  1.00  0.00    -0.247 OA
HETATM    4  N   UNL     1     -40.570 -50.990  11.264  1.00  0.00    -0.288 N 
HETATM    5  H   UNL     1     -42.525 -50.175  12.542  1.00  0.00     0.164 HD
HETATM    6  H   UNL     1     -39.825 -51.462  10.775  1.00  0.00     0.172 HD
ENDROOT
BRANCH   1   7
HETATM    7  C   UNL     1     -43.601 -51.891  13.178  1.00  0.00     0.096 C 
HETATM    8  C   UNL     1     -44.874 -51.023  13.351  1.00  0.00     0.036 C 
HETATM    9  C   UNL     1     -45.025 -50.924  14.893  1.00  0.00    -0.006 C 
HETATM   10  C   UNL     1     -45.426 -52.269  15.518  1.00  0.00     0.005 C 
HETATM   11  C   UNL     1     -43.561 -50.838  15.333  1.00  0.00     0.012 C 
HETATM   12  C   UNL     1     -44.186 -53.140  15.276  1.00  0.00     0.007 C 
HETATM   13  C   UNL     1     -43.185 -52.155  14.646  1.00  0.00     0.009 C 
BRANCH   8  14
HETATM   14  C   UNL     1     -46.071 -51.598  12.601  1.00  0.00     0.171 C 
BRANCH  14  15
HETATM   15  O   UNL     1     -45.689 -52.790  11.926  1.00  0.00    -0.400 OA
HETATM   16  H   UNL     1     -46.073 -53.529  12.429  1.00  0.00     0.209 HD
ENDBRANCH  14  15
ENDBRANCH   8  14
ENDBRANCH   1   7
BRANCH   4  17
HETATM   17  C   UNL     1     -40.695 -49.635  11.125  1.00  0.00     0.168 A 
HETATM   18  N   UNL     1     -41.334 -48.967  10.193  1.00  0.00    -0.279 N 
HETATM   19  N   UNL     1     -41.213 -47.605  10.366  1.00  0.00    -0.303 N 
ATOM     20  HN  UNL     1     -41.857 -49.404   9.434  1.00  0.00     0.189 HD
HETATM   21  C   UNL     1     -40.480 -47.314  11.419  1.00  0.00     0.160 A 
ATOM     22  HN  UNL     1     -41.640 -46.910   9.754  1.00  0.00     0.186 HD
HETATM   23  S   UNL     1     -39.915 -48.679  12.299  1.00  0.00    -0.046 SA
ENDBRANCH   4  17
TORSDOF 4
ENDMDL
MODEL 3
REMARK VINA RESULT:      -5.6      3.580      4.796
REMARK  4 active torsions:
REMARK  status: ('A' for Active; 'I' for Inactive)
REMARK    1  A    between atoms: O_1  and  C_2 
REMARK    2  A    between atoms: C_2  and  C_3 
REMARK    3  A    between atoms: C_4  and  N_5 
REMARK       I    between atoms: N_5  and  C_6 
REMARK       I    between atoms: C_6  and  N_8 
REMARK    4  A    between atoms: N_8  and  C_9 
ROOT
HETATM    1  N   UNL     1     -42.120 -49.468  11.535  1.00  0.00    -0.337 N 
HETATM    2  C   UNL     1     -41.204 -48.543  11.136  1.00  0.00     0.322 C 
HETATM    3  O   UNL     1     -40.101 -48.412  11.665  1.00  0.00    -0.247 OA
HETATM    4  N   UNL     1     -41.520 -47.794  10.043  1.00  0.00    -0.288 N 
HETATM    5  H   UNL     1     -43.068 -49.348  11.188  1.00  0.00     0.164 HD
HETATM    6  H   UNL     1     -40.781 -47.218   9.669  1.00  0.00     0.172 HD
ENDROOT
BRANCH   1   7
HETATM    7  C   UNL     1     -41.917 -50.422  12.613  1.00  0.00     0.096 C 
HETATM    8  C   UNL     1     -42.264 -51.874  12.196  1.00  0.00     0.036 C 
HETATM    9  C   UNL     1     -43.419 -52.251  13.164  1.00  0.00    -0.006 C 
HETATM   10  C   UNL     1     -42.927 -52.405  14.611  1.00  0.00     0.005 C 
HETATM   11  C   UNL     1     -44.171 -50.921  13.264  1.00  0.00     0.012 C 
HETATM   12  C   UNL     1     -42.519 -50.974  14.987  1.00  0.00     0.007 C 
HETATM   13  C   UNL     1     -42.935 -50.158  13.750  1.00  0.00     0.009 C 
BRANCH   8  14
HETATM   14  C   UNL     1     -41.045 -52.790  12.228  1.00  0.00     0.171 C 
BRANCH  14  15
HETATM   15  O   UNL     1     -39.876 -52.047  11.905  1.00  0.00    -0.400 OA
HETATM   16  H   UNL     1     -40.015 -51.686  11.012  1.00  0.00     0.209 HD
ENDBRANCH  14  15
ENDBRANCH   8  14
ENDBRANCH   1   7
BRANCH   4  17
HETATM   17  C   UNL     1     -42.728 -47.817   9.401  1.00  0.00     0.168 A 
HETATM   18  N   UNL     1     -43.002 -48.263   8.198  1.00  0.00    -0.279 N 
HETATM   19  N   UNL     1     -44.333 -48.092   7.880  1.00  0.00    -0.303 N 
ATOM     20  HN  UNL     1     -42.315 -48.684   7.574  1.00  0.00     0.189 HD
HETATM   21  C   UNL     1     -44.994 -47.517   8.862  1.00  0.00     0.160 A 
ATOM     22  HN  UNL     1     -44.752 -48.376   6.995  1.00  0.00     0.186 HD
HETATM   23  S   UNL     1     -44.051 -47.177  10.259  1.00  0.00    -0.046 SA
ENDBRANCH   4  17
TORSDOF 4
ENDMDL
MODEL 4
REMARK VINA RESULT:      -5.4      1.582      2.170
REMARK  4 active torsions:
REMARK  status: ('A' for Active; 'I' for Inactive)
REMARK    1  A    between atoms: O_1  and  C_2 
REMARK    2  A    between atoms: C_2  and  C_3 
REMARK    3  A    between atoms: C_4  and  N_5 
REMARK       I    between atoms: N_5  and  C_6 
REMARK       I    between atoms: C_6  and  N_8 
REMARK    4  A    between atoms: N_8  and  C_9 
ROOT
HETATM    1  N   UNL     1     -43.647 -53.105  13.868  1.00  0.00    -0.337 N 
HETATM    2  C   UNL     1     -42.912 -54.241  14.023  1.00  0.00     0.322 C 
HETATM    3  O   UNL     1     -43.361 -55.275  14.515  1.00  0.00    -0.247 OA
HETATM    4  N   UNL     1     -41.644 -54.227  13.525  1.00  0.00    -0.288 N 
HETATM    5  H   UNL     1     -43.131 -52.254  13.663  1.00  0.00     0.164 HD
HETATM    6  H   UNL     1     -41.160 -55.112  13.513  1.00  0.00     0.172 HD
ENDROOT
BRANCH   1   7
HETATM    7  C   UNL     1     -45.044 -52.967  14.243  1.00  0.00     0.096 C 
HETATM    8  C   UNL     1     -45.664 -51.634  13.753  1.00  0.00     0.036 C 
HETATM    9  C   UNL     1     -46.075 -50.930  15.075  1.00  0.00    -0.006 C 
HETATM   10  C   UNL     1     -47.254 -51.638  15.759  1.00  0.00     0.005 C 
HETATM   11  C   UNL     1     -44.928 -51.339  16.002  1.00  0.00     0.012 C 
HETATM   12  C   UNL     1     -46.648 -52.985  16.175  1.00  0.00     0.007 C 
HETATM   13  C   UNL     1     -45.167 -52.836  15.782  1.00  0.00     0.009 C 
BRANCH   8  14
HETATM   14  C   UNL     1     -46.784 -51.856  12.742  1.00  0.00     0.171 C 
BRANCH  14  15
HETATM   15  O   UNL     1     -46.439 -52.922  11.867  1.00  0.00    -0.400 OA
HETATM   16  H   UNL     1     -46.322 -53.711  12.424  1.00  0.00     0.209 HD
ENDBRANCH  14  15
ENDBRANCH   8  14
ENDBRANCH   1   7
BRANCH   4  17
HETATM   17  C   UNL     1     -41.022 -53.127  12.999  1.00  0.00     0.168 A 
HETATM   18  N   UNL     1     -40.979 -52.737  11.748  1.00  0.00    -0.279 N 
HETATM   19  N   UNL     1     -40.227 -51.591  11.595  1.00  0.00    -0.303 N 
ATOM     20  HN  UNL     1     -41.445 -53.221  10.981  1.00  0.00     0.189 HD
HETATM   21  C   UNL     1     -39.734 -51.180  12.743  1.00  0.00     0.160 A 
ATOM     22  HN  UNL     1     -40.073 -51.122  10.703  1.00  0.00     0.186 HD
HETATM   23  S   UNL     1     -40.181 -52.137  14.100  1.00  0.00    -0.046 SA
ENDBRANCH   4  17
TORSDOF 4
ENDMDL
MODEL 5
REMARK VINA RESULT:      -5.3      5.406      7.947
REMARK  4 active torsions:
REMARK  status: ('A' for Active; 'I' for Inactive)
REMARK    1  A    between atoms: O_1  and  C_2 
REMARK    2  A    between atoms: C_2  and  C_3 
REMARK    3  A    between atoms: C_4  and  N_5 
REMARK       I    between atoms: N_5  and  C_6 
REMARK       I    between atoms: C_6  and  N_8 
REMARK    4  A    between atoms: N_8  and  C_9 
ROOT
HETATM    1  N   UNL     1     -40.882 -47.058  11.788  1.00  0.00    -0.337 N 
HETATM    2  C   UNL     1     -41.514 -47.539  10.681  1.00  0.00     0.322 C 
HETATM    3  O   UNL     1     -42.241 -46.851   9.966  1.00  0.00    -0.247 OA
HETATM    4  N   UNL     1     -41.244 -48.826  10.327  1.00  0.00    -0.288 N 
HETATM    5  H   UNL     1     -40.492 -47.749  12.424  1.00  0.00     0.164 HD
HETATM    6  H   UNL     1     -41.600 -49.126   9.432  1.00  0.00     0.172 HD
ENDROOT
BRANCH   1   7
HETATM    7  C   UNL     1     -40.966 -45.686  12.258  1.00  0.00     0.096 C 
HETATM    8  C   UNL     1     -39.841 -44.789  11.683  1.00  0.00     0.036 C 
HETATM    9  C   UNL     1     -39.076 -44.327  12.952  1.00  0.00    -0.006 C 
HETATM   10  C   UNL     1     -39.907 -43.352  13.800  1.00  0.00     0.005 C 
HETATM   11  C   UNL     1     -39.149 -45.585  13.821  1.00  0.00     0.012 C 
HETATM   12  C   UNL     1     -41.057 -44.234  14.305  1.00  0.00     0.007 C 
HETATM   13  C   UNL     1     -40.680 -45.631  13.779  1.00  0.00     0.009 C 
BRANCH   8  14
HETATM   14  C   UNL     1     -40.388 -43.676  10.794  1.00  0.00     0.171 C 
BRANCH  14  15
HETATM   15  O   UNL     1     -41.785 -43.859  10.599  1.00  0.00    -0.400 OA
HETATM   16  H   UNL     1     -42.184 -43.913  11.485  1.00  0.00     0.209 HD
ENDBRANCH  14  15
ENDBRANCH   8  14
ENDBRANCH   1   7
BRANCH   4  17
HETATM   17  C   UNL     1     -40.492 -49.699  11.064  1.00  0.00     0.168 A 
HETATM   18  N   UNL     1     -39.200 -49.918  10.997  1.00  0.00    -0.279 N 
HETATM   19  N   UNL     1     -38.801 -50.898  11.881  1.00  0.00    -0.303 N 
ATOM     20  HN  UNL     1     -38.569 -49.423  10.368  1.00  0.00     0.189 HD
HETATM   21  C   UNL     1     -39.818 -51.375  12.566  1.00  0.00     0.160 A 
ATOM     22  HN  UNL     1     -37.837 -51.213  11.989  1.00  0.00     0.186 HD
HETATM   23  S   UNL     1     -41.330 -50.636  12.212  1.00  0.00    -0.046 SA
ENDBRANCH   4  17
TORSDOF 4
ENDMDL
MODEL 6
REMARK VINA RESULT:      -5.3      2.094      2.705
REMARK  4 active torsions:
REMARK  status: ('A' for Active; 'I' for Inactive)
REMARK    1  A    between atoms: O_1  and  C_2 
REMARK    2  A    between atoms: C_2  and  C_3 
REMARK    3  A    between atoms: C_4  and  N_5 
REMARK       I    between atoms: N_5  and  C_6 
REMARK       I    between atoms: C_6  and  N_8 
REMARK    4  A    between atoms: N_8  and  C_9 
ROOT
HETATM    1  N   UNL     1     -42.089 -50.643  12.440  1.00  0.00    -0.337 N 
HETATM    2  C   UNL     1     -40.912 -50.954  11.827  1.00  0.00     0.322 C 
HETATM    3  O   UNL     1     -40.302 -52.003  12.030  1.00  0.00    -0.247 OA
HETATM    4  N   UNL     1     -40.455 -50.079  10.889  1.00  0.00    -0.288 N 
HETATM    5  H   UNL     1     -42.391 -49.675  12.376  1.00  0.00     0.164 HD
HETATM    6  H   UNL     1     -39.666 -50.386  10.341  1.00  0.00     0.172 HD
ENDROOT
BRANCH   1   7
HETATM    7  C   UNL     1     -42.780 -51.500  13.388  1.00  0.00     0.096 C 
HETATM    8  C   UNL     1     -43.542 -52.659  12.697  1.00  0.00     0.036 C 
HETATM    9  C   UNL     1     -45.020 -52.392  13.092  1.00  0.00    -0.006 C 
HETATM   10  C   UNL     1     -45.269 -52.646  14.586  1.00  0.00     0.005 C 
HETATM   11  C   UNL     1     -45.068 -50.863  13.056  1.00  0.00     0.012 C 
HETATM   12  C   UNL     1     -44.451 -51.536  15.261  1.00  0.00     0.007 C 
HETATM   13  C   UNL     1     -43.928 -50.715  14.068  1.00  0.00     0.009 C 
BRANCH   8  14
HETATM   14  C   UNL     1     -42.987 -54.026  13.084  1.00  0.00     0.171 C 
BRANCH  14  15
HETATM   15  O   UNL     1     -41.710 -53.873  13.689  1.00  0.00    -0.400 OA
HETATM   16  H   UNL     1     -41.480 -52.931  13.617  1.00  0.00     0.209 HD
ENDBRANCH  14  15
ENDBRANCH   8  14
ENDBRANCH   1   7
BRANCH   4  17
HETATM   17  C   UNL     1     -41.019 -48.864  10.612  1.00  0.00     0.168 A 
HETATM   18  N   UNL     1     -41.905 -48.570   9.690  1.00  0.00    -0.279 N 
HETATM   19  N   UNL     1     -42.217 -47.227   9.690  1.00  0.00    -0.303 N 
ATOM     20  HN  UNL     1     -42.313 -49.252   9.051  1.00  0.00     0.189 HD
HETATM   21  C   UNL     1     -41.542 -46.574  10.611  1.00  0.00     0.160 A 
ATOM     22  HN  UNL     1     -42.888 -46.794   9.055  1.00  0.00     0.186 HD
HETATM   23  S   UNL     1     -40.505 -47.555  11.571  1.00  0.00    -0.046 SA
ENDBRANCH   4  17
TORSDOF 4
ENDMDL
MODEL 7
REMARK VINA RESULT:      -5.2      6.440      8.883
REMARK  4 active torsions:
REMARK  status: ('A' for Active; 'I' for Inactive)
REMARK    1  A    between atoms: O_1  and  C_2 
REMARK    2  A    between atoms: C_2  and  C_3 
REMARK    3  A    between atoms: C_4  and  N_5 
REMARK       I    between atoms: N_5  and  C_6 
REMARK       I    between atoms: C_6  and  N_8 
REMARK    4  A    between atoms: N_8  and  C_9 
ROOT
HETATM    1  N   UNL     1     -42.504 -45.655  11.735  1.00  0.00    -0.337 N 
HETATM    2  C   UNL     1     -42.940 -46.755  12.411  1.00  0.00     0.322 C 
HETATM    3  O   UNL     1     -42.962 -46.829  13.638  1.00  0.00    -0.247 OA
HETATM    4  N   UNL     1     -43.448 -47.775  11.664  1.00  0.00    -0.288 N 
HETATM    5  H   UNL     1     -42.319 -45.775  10.743  1.00  0.00     0.164 HD
HETATM    6  H   UNL     1     -43.899 -48.519  12.175  1.00  0.00     0.172 HD
ENDROOT
BRANCH   1   7
HETATM    7  C   UNL     1     -42.026 -44.435  12.363  1.00  0.00     0.096 C 
HETATM    8  C   UNL     1     -42.309 -43.174  11.506  1.00  0.00     0.036 C 
HETATM    9  C   UNL     1     -40.887 -42.623  11.212  1.00  0.00    -0.006 C 
HETATM   10  C   UNL     1     -40.221 -42.052  12.473  1.00  0.00     0.005 C 
HETATM   11  C   UNL     1     -40.093 -43.920  11.039  1.00  0.00     0.012 C 
HETATM   12  C   UNL     1     -40.012 -43.299  13.343  1.00  0.00     0.007 C 
HETATM   13  C   UNL     1     -40.479 -44.445  12.426  1.00  0.00     0.009 C 
BRANCH   8  14
HETATM   14  C   UNL     1     -43.266 -42.209  12.199  1.00  0.00     0.171 C 
BRANCH  14  15
HETATM   15  O   UNL     1     -43.489 -42.631  13.538  1.00  0.00    -0.400 OA
HETATM   16  H   UNL     1     -44.101 -43.386  13.493  1.00  0.00     0.209 HD
ENDBRANCH  14  15
ENDBRANCH   8  14
ENDBRANCH   1   7
BRANCH   4  17
HETATM   17  C   UNL     1     -43.436 -47.826  10.298  1.00  0.00     0.168 A 
HETATM   18  N   UNL     1     -42.446 -48.160   9.504  1.00  0.00    -0.279 N 
HETATM   19  N   UNL     1     -42.801 -48.063   8.175  1.00  0.00    -0.303 N 
ATOM     20  HN  UNL     1     -41.527 -48.456   9.831  1.00  0.00     0.189 HD
HETATM   21  C   UNL     1     -44.042 -47.651   8.035  1.00  0.00     0.160 A 
ATOM     22  HN  UNL     1     -42.178 -48.283   7.398  1.00  0.00     0.186 HD
HETATM   23  S   UNL     1     -44.882 -47.390   9.512  1.00  0.00    -0.046 SA
ENDBRANCH   4  17
TORSDOF 4
ENDMDL
MODEL 8
REMARK VINA RESULT:      -5.1      3.785      6.356
REMARK  4 active torsions:
REMARK  status: ('A' for Active; 'I' for Inactive)
REMARK    1  A    between atoms: O_1  and  C_2 
REMARK    2  A    between atoms: C_2  and  C_3 
REMARK    3  A    between atoms: C_4  and  N_5 
REMARK       I    between atoms: N_5  and  C_6 
REMARK       I    between atoms: C_6  and  N_8 
REMARK    4  A    between atoms: N_8  and  C_9 
ROOT
HETATM    1  N   UNL     1     -40.686 -49.059  11.800  1.00  0.00    -0.337 N 
HETATM    2  C   UNL     1     -39.528 -49.776  11.821  1.00  0.00     0.322 C 
HETATM    3  O   UNL     1     -38.415 -49.265  11.711  1.00  0.00    -0.247 OA
HETATM    4  N   UNL     1     -39.636 -51.113  12.058  1.00  0.00    -0.288 N 
HETATM    5  H   UNL     1     -41.546 -49.587  11.674  1.00  0.00     0.164 HD
HETATM    6  H   UNL     1     -38.772 -51.609  12.215  1.00  0.00     0.172 HD
ENDROOT
BRANCH   1   7
HETATM    7  C   UNL     1     -40.761 -47.614  11.663  1.00  0.00     0.096 C 
HETATM    8  C   UNL     1     -41.271 -46.919  12.952  1.00  0.00     0.036 C 
HETATM    9  C   UNL     1     -42.578 -46.224  12.482  1.00  0.00    -0.006 C 
HETATM   10  C   UNL     1     -42.294 -45.048  11.535  1.00  0.00     0.005 C 
HETATM   11  C   UNL     1     -43.127 -47.254  11.492  1.00  0.00     0.012 C 
HETATM   12  C   UNL     1     -41.722 -45.743  10.292  1.00  0.00     0.007 C 
HETATM   13  C   UNL     1     -41.857 -47.238  10.635  1.00  0.00     0.009 C 
BRANCH   8  14
HETATM   14  C   UNL     1     -40.218 -46.006  13.570  1.00  0.00     0.171 C 
BRANCH  14  15
HETATM   15  O   UNL     1     -38.926 -46.573  13.393  1.00  0.00    -0.400 OA
HETATM   16  H   UNL     1     -38.961 -47.468  13.773  1.00  0.00     0.209 HD
ENDBRANCH  14  15
ENDBRANCH   8  14
ENDBRANCH   1   7
BRANCH   4  17
HETATM   17  C   UNL     1     -40.817 -51.799  12.150  1.00  0.00     0.168 A 
HETATM   18  N   UNL     1     -41.561 -52.273  11.179  1.00  0.00    -0.279 N 
HETATM   19  N   UNL     1     -42.700 -52.883  11.659  1.00  0.00    -0.303 N 
ATOM     20  HN  UNL     1     -41.324 -52.200  10.190  1.00  0.00     0.189 HD
HETATM   21  C   UNL     1     -42.761 -52.829  12.972  1.00  0.00     0.160 A 
ATOM     22  HN  UNL     1     -43.408 -53.320  11.069  1.00  0.00     0.186 HD
HETATM   23  S   UNL     1     -41.414 -52.067  13.722  1.00  0.00    -0.046 SA
ENDBRANCH   4  17
TORSDOF 4
ENDMDL
MODEL 9
REMARK VINA RESULT:      -5.1      3.767      5.093
REMARK  4 active torsions:
REMARK  status: ('A' for Active; 'I' for Inactive)
REMARK    1  A    between atoms: O_1  and  C_2 
REMARK    2  A    between atoms: C_2  and  C_3 
REMARK    3  A    between atoms: C_4  and  N_5 
REMARK       I    between atoms: N_5  and  C_6 
REMARK       I    between atoms: C_6  and  N_8 
REMARK    4  A    between atoms: N_8  and  C_9 
ROOT
HETATM    1  N   UNL     1     -40.311 -50.081  12.268  1.00  0.00    -0.337 N 
HETATM    2  C   UNL     1     -39.453 -49.101  11.868  1.00  0.00     0.322 C 
HETATM    3  O   UNL     1     -38.252 -49.106  12.131  1.00  0.00    -0.247 OA
HETATM    4  N   UNL     1     -39.964 -48.123  11.070  1.00  0.00    -0.288 N 
HETATM    5  H   UNL     1     -41.303 -49.874  12.193  1.00  0.00     0.164 HD
HETATM    6  H   UNL     1     -39.296 -47.487  10.662  1.00  0.00     0.172 HD
ENDROOT
BRANCH   1   7
HETATM    7  C   UNL     1     -39.926 -51.254  13.035  1.00  0.00     0.096 C 
HETATM    8  C   UNL     1     -41.126 -52.187  13.339  1.00  0.00     0.036 C 
HETATM    9  C   UNL     1     -41.187 -52.187  14.891  1.00  0.00    -0.006 C 
HETATM   10  C   UNL     1     -39.994 -52.931  15.511  1.00  0.00     0.005 C 
HETATM   11  C   UNL     1     -40.807 -50.738  15.206  1.00  0.00     0.012 C 
HETATM   12  C   UNL     1     -38.804 -52.035  15.141  1.00  0.00     0.007 C 
HETATM   13  C   UNL     1     -39.475 -50.831  14.455  1.00  0.00     0.009 C 
BRANCH   8  14
HETATM   14  C   UNL     1     -40.976 -53.554  12.679  1.00  0.00     0.171 C 
BRANCH  14  15
HETATM   15  O   UNL     1     -40.485 -53.397  11.354  1.00  0.00    -0.400 OA
HETATM   16  H   UNL     1     -41.248 -53.508  10.761  1.00  0.00     0.209 HD
ENDBRANCH  14  15
ENDBRANCH   8  14
ENDBRANCH   1   7
BRANCH   4  17
HETATM   17  C   UNL     1     -41.287 -47.987  10.748  1.00  0.00     0.168 A 
HETATM   18  N   UNL     1     -41.923 -48.460   9.703  1.00  0.00    -0.279 N 
HETATM   19  N   UNL     1     -43.252 -48.091   9.702  1.00  0.00    -0.303 N 
ATOM     20  HN  UNL     1     -41.488 -49.031   8.978  1.00  0.00     0.189 HD
HETATM   21  C   UNL     1     -43.548 -47.350  10.748  1.00  0.00     0.160 A 
ATOM     22  HN  UNL     1     -43.921 -48.360   8.981  1.00  0.00     0.186 HD
HETATM   23  S   UNL     1     -42.238 -47.080  11.830  1.00  0.00    -0.046 SA
ENDBRANCH   4  17
TORSDOF 4
ENDMDL
