MODEL 1
REMARK VINA RESULT:      -6.5      0.000      0.000
REMARK  4 active torsions:
REMARK  status: ('A' for Active; 'I' for Inactive)
REMARK    1  A    between atoms: C_2  and  N_3 
REMARK    2  A    between atoms: C_2  and  C_14 
REMARK       I    between atoms: N_3  and  C_4 
REMARK       I    between atoms: C_4  and  N_6 
REMARK    3  A    between atoms: N_6  and  C_7 
REMARK       I    between atoms: C_14  and  N_16 
REMARK    4  A    between atoms: N_16  and  C_17 
ROOT
HETATM    1  N   UNL     1     -40.623 -50.091  11.138  1.00  0.00    -0.330 N 
HETATM    2  C   UNL     1     -41.593 -49.115  11.137  1.00  0.00     0.322 C 
HETATM    3  O   UNL     1     -42.234 -48.863  12.152  1.00  0.00    -0.247 OA
HETATM    4  N   UNL     1     -41.742 -48.533   9.906  1.00  0.00    -0.288 N 
HETATM    5  H   UNL     1     -39.969 -50.135  10.371  1.00  0.00     0.165 HD
HETATM    6  H   UNL     1     -41.514 -49.085   9.092  1.00  0.00     0.172 HD
ENDROOT
BRANCH   1   7
HETATM    7  C   UNL     1     -40.289 -50.792  12.376  1.00  0.00     0.174 C 
HETATM    8  C   UNL     1     -38.782 -50.945  12.535  1.00  0.00     0.042 C 
BRANCH   7   9
HETATM    9  C   UNL     1     -40.973 -52.177  12.392  1.00  0.00     0.240 C 
HETATM   10  O   UNL     1     -40.399 -53.208  12.050  1.00  0.00    -0.271 OA
HETATM   11  N   UNL     1     -42.299 -52.143  12.782  1.00  0.00    -0.355 N 
HETATM   12  H   UNL     1     -42.768 -51.238  12.707  1.00  0.00     0.162 HD
BRANCH  11  13
HETATM   13  C   UNL     1     -43.105 -53.345  12.831  1.00  0.00     0.084 C 
HETATM   14  C   UNL     1     -44.585 -53.095  12.525  1.00  0.00     0.025 C 
HETATM   15  C   UNL     1     -45.372 -54.036  13.440  1.00  0.00     0.002 C 
HETATM   16  C   UNL     1     -44.337 -54.882  14.169  1.00  0.00     0.002 C 
HETATM   17  C   UNL     1     -43.102 -53.998  14.209  1.00  0.00     0.025 C 
ENDBRANCH  11  13
ENDBRANCH   7   9
ENDBRANCH   1   7
BRANCH   4  18
HETATM   18  C   UNL     1     -42.564 -47.462   9.646  1.00  0.00     0.168 A 
HETATM   19  N   UNL     1     -42.609 -46.388  10.403  1.00  0.00    -0.279 N 
HETATM   20  N   UNL     1     -43.506 -45.451   9.922  1.00  0.00    -0.303 N 
ATOM     21  HN  UNL     1     -42.048 -46.260  11.245  1.00  0.00     0.189 HD
HETATM   22  C   UNL     1     -44.137 -45.887   8.854  1.00  0.00     0.160 A 
ATOM     23  HN  UNL     1     -43.658 -44.534  10.343  1.00  0.00     0.186 HD
HETATM   24  S   UNL     1     -43.698 -47.469   8.367  1.00  0.00    -0.046 SA
ENDBRANCH   4  18
TORSDOF 4
ENDMDL
MODEL 2
REMARK VINA RESULT:      -6.2      1.631      2.018
REMARK  4 active torsions:
REMARK  status: ('A' for Active; 'I' for Inactive)
REMARK    1  A    between atoms: C_2  and  N_3 
REMARK    2  A    between atoms: C_2  and  C_14 
REMARK       I    between atoms: N_3  and  C_4 
REMARK       I    between atoms: C_4  and  N_6 
REMARK    3  A    between atoms: N_6  and  C_7 
REMARK       I    between atoms: C_14  and  N_16 
REMARK    4  A    between atoms: N_16  and  C_17 
ROOT
HETATM    1  N   UNL     1     -39.886 -49.758  10.928  1.00  0.00    -0.330 N 
HETATM    2  C   UNL     1     -40.662 -48.623  10.956  1.00  0.00     0.322 C 
HETATM    3  O   UNL     1     -40.451 -47.736  11.776  1.00  0.00    -0.247 OA
HETATM    4  N   UNL     1     -41.656 -48.651  10.015  1.00  0.00    -0.288 N 
HETATM    5  H   UNL     1     -39.934 -50.367  10.124  1.00  0.00     0.165 HD
HETATM    6  H   UNL     1     -42.007 -49.552   9.724  1.00  0.00     0.172 HD
ENDROOT
BRANCH   1   7
HETATM    7  C   UNL     1     -38.744 -49.889  11.831  1.00  0.00     0.174 C 
HETATM    8  C   UNL     1     -37.428 -49.870  11.064  1.00  0.00     0.042 C 
BRANCH   7   9
HETATM    9  C   UNL     1     -38.870 -51.194  12.647  1.00  0.00     0.240 C 
HETATM   10  O   UNL     1     -37.896 -51.832  13.039  1.00  0.00    -0.271 OA
HETATM   11  N   UNL     1     -40.175 -51.602  12.855  1.00  0.00    -0.355 N 
HETATM   12  H   UNL     1     -40.874 -51.218  12.216  1.00  0.00     0.162 HD
BRANCH  11  13
HETATM   13  C   UNL     1     -40.482 -52.818  13.577  1.00  0.00     0.084 C 
HETATM   14  C   UNL     1     -41.500 -53.709  12.858  1.00  0.00     0.025 C 
HETATM   15  C   UNL     1     -42.373 -54.325  13.954  1.00  0.00     0.002 C 
HETATM   16  C   UNL     1     -41.776 -53.868  15.278  1.00  0.00     0.002 C 
HETATM   17  C   UNL     1     -41.105 -52.547  14.943  1.00  0.00     0.025 C 
ENDBRANCH  11  13
ENDBRANCH   7   9
ENDBRANCH   1   7
BRANCH   4  18
HETATM   18  C   UNL     1     -42.510 -47.606   9.754  1.00  0.00     0.168 A 
HETATM   19  N   UNL     1     -42.727 -46.624  10.601  1.00  0.00    -0.279 N 
HETATM   20  N   UNL     1     -43.617 -45.691  10.098  1.00  0.00    -0.303 N 
ATOM     21  HN  UNL     1     -42.291 -46.558  11.520  1.00  0.00     0.189 HD
HETATM   22  C   UNL     1     -44.073 -46.043   8.916  1.00  0.00     0.160 A 
ATOM     23  HN  UNL     1     -43.887 -44.836  10.585  1.00  0.00     0.186 HD
HETATM   24  S   UNL     1     -43.466 -47.536   8.337  1.00  0.00    -0.046 SA
ENDBRANCH   4  18
TORSDOF 4
ENDMDL
MODEL 3
REMARK VINA RESULT:      -6.1      4.038      7.904
REMARK  4 active torsions:
REMARK  status: ('A' for Active; 'I' for Inactive)
REMARK    1  A    between atoms: C_2  and  N_3 
REMARK    2  A    between atoms: C_2  and  C_14 
REMARK       I    between atoms: N_3  and  C_4 
REMARK       I    between atoms: C_4  and  N_6 
REMARK    3  A    between atoms: N_6  and  C_7 
REMARK       I    between atoms: C_14  and  N_16 
REMARK    4  A    between atoms: N_16  and  C_17 
ROOT
HETATM    1  N   UNL     1     -42.616 -48.268  10.061  1.00  0.00    -0.330 N 
HETATM    2  C   UNL     1     -41.594 -48.486  10.956  1.00  0.00     0.322 C 
HETATM    3  O   UNL     1     -41.500 -47.816  11.979  1.00  0.00    -0.247 OA
HETATM    4  N   UNL     1     -40.742 -49.473  10.540  1.00  0.00    -0.288 N 
HETATM    5  H   UNL     1     -42.801 -48.959   9.348  1.00  0.00     0.165 HD
HETATM    6  H   UNL     1     -40.648 -49.629   9.546  1.00  0.00     0.172 HD
ENDROOT
BRANCH   1   7
HETATM    7  C   UNL     1     -43.653 -47.282  10.358  1.00  0.00     0.174 C 
HETATM    8  C   UNL     1     -44.933 -47.577   9.586  1.00  0.00     0.042 C 
BRANCH   7   9
HETATM    9  C   UNL     1     -43.138 -45.865  10.020  1.00  0.00     0.240 C 
HETATM   10  O   UNL     1     -42.997 -45.465   8.866  1.00  0.00    -0.271 OA
HETATM   11  N   UNL     1     -42.809 -45.109  11.129  1.00  0.00    -0.355 N 
HETATM   12  H   UNL     1     -42.630 -45.627  11.991  1.00  0.00     0.162 HD
BRANCH  11  13
HETATM   13  C   UNL     1     -42.285 -43.765  11.001  1.00  0.00     0.084 C 
HETATM   14  C   UNL     1     -40.767 -43.687  11.187  1.00  0.00     0.025 C 
HETATM   15  C   UNL     1     -40.497 -42.375  11.927  1.00  0.00     0.002 C 
HETATM   16  C   UNL     1     -41.844 -41.675  12.053  1.00  0.00     0.002 C 
HETATM   17  C   UNL     1     -42.850 -42.813  12.049  1.00  0.00     0.025 C 
ENDBRANCH  11  13
ENDBRANCH   7   9
ENDBRANCH   1   7
BRANCH   4  18
HETATM   18  C   UNL     1     -39.697 -49.965  11.286  1.00  0.00     0.168 A 
HETATM   19  N   UNL     1     -38.436 -49.818  10.945  1.00  0.00    -0.279 N 
HETATM   20  N   UNL     1     -37.578 -50.392  11.867  1.00  0.00    -0.303 N 
ATOM     21  HN  UNL     1     -38.126 -49.338  10.100  1.00  0.00     0.189 HD
HETATM   22  C   UNL     1     -38.237 -50.994  12.833  1.00  0.00     0.160 A 
ATOM     23  HN  UNL     1     -36.561 -50.353  11.805  1.00  0.00     0.186 HD
HETATM   24  S   UNL     1     -39.941 -50.919  12.684  1.00  0.00    -0.046 SA
ENDBRANCH   4  18
TORSDOF 4
ENDMDL
MODEL 4
REMARK VINA RESULT:      -5.9      2.390      2.819
REMARK  4 active torsions:
REMARK  status: ('A' for Active; 'I' for Inactive)
REMARK    1  A    between atoms: C_2  and  N_3 
REMARK    2  A    between atoms: C_2  and  C_14 
REMARK       I    between atoms: N_3  and  C_4 
REMARK       I    between atoms: C_4  and  N_6 
REMARK    3  A    between atoms: N_6  and  C_7 
REMARK       I    between atoms: C_14  and  N_16 
REMARK    4  A    between atoms: N_16  and  C_17 
ROOT
HETATM    1  N   UNL     1     -42.094 -51.106  11.781  1.00  0.00    -0.330 N 
HETATM    2  C   UNL     1     -41.654 -49.811  11.928  1.00  0.00     0.322 C 
HETATM    3  O   UNL     1     -41.164 -49.429  12.986  1.00  0.00    -0.247 OA
HETATM    4  N   UNL     1     -41.862 -49.060  10.802  1.00  0.00    -0.288 N 
HETATM    5  H   UNL     1     -42.290 -51.456  10.854  1.00  0.00     0.165 HD
HETATM    6  H   UNL     1     -42.630 -49.316  10.198  1.00  0.00     0.172 HD
ENDROOT
BRANCH   1   7
HETATM    7  C   UNL     1     -41.914 -52.070  12.864  1.00  0.00     0.174 C 
HETATM    8  C   UNL     1     -40.969 -53.191  12.454  1.00  0.00     0.042 C 
BRANCH   7   9
HETATM    9  C   UNL     1     -43.284 -52.649  13.280  1.00  0.00     0.240 C 
HETATM   10  O   UNL     1     -43.846 -53.547  12.657  1.00  0.00    -0.271 OA
HETATM   11  N   UNL     1     -43.840 -52.036  14.388  1.00  0.00    -0.355 N 
HETATM   12  H   UNL     1     -43.484 -51.105  14.613  1.00  0.00     0.162 HD
BRANCH  11  13
HETATM   13  C   UNL     1     -45.133 -52.432  14.904  1.00  0.00     0.084 C 
HETATM   14  C   UNL     1     -46.283 -51.557  14.394  1.00  0.00     0.025 C 
HETATM   15  C   UNL     1     -47.258 -51.414  15.565  1.00  0.00     0.002 C 
HETATM   16  C   UNL     1     -46.712 -52.293  16.681  1.00  0.00     0.002 C 
HETATM   17  C   UNL     1     -45.215 -52.327  16.423  1.00  0.00     0.025 C 
ENDBRANCH  11  13
ENDBRANCH   7   9
ENDBRANCH   1   7
BRANCH   4  18
HETATM   18  C   UNL     1     -41.425 -47.767  10.637  1.00  0.00     0.168 A 
HETATM   19  N   UNL     1     -40.155 -47.428  10.652  1.00  0.00    -0.279 N 
HETATM   20  N   UNL     1     -39.977 -46.070  10.453  1.00  0.00    -0.303 N 
ATOM     21  HN  UNL     1     -39.390 -48.088  10.794  1.00  0.00     0.189 HD
HETATM   22  C   UNL     1     -41.128 -45.440  10.351  1.00  0.00     0.160 A 
ATOM     23  HN  UNL     1     -39.067 -45.615  10.391  1.00  0.00     0.186 HD
HETATM   24  S   UNL     1     -42.504 -46.447  10.506  1.00  0.00    -0.046 SA
ENDBRANCH   4  18
TORSDOF 4
ENDMDL
MODEL 5
REMARK VINA RESULT:      -5.7      3.049      6.588
REMARK  4 active torsions:
REMARK  status: ('A' for Active; 'I' for Inactive)
REMARK    1  A    between atoms: C_2  and  N_3 
REMARK    2  A    between atoms: C_2  and  C_14 
REMARK       I    between atoms: N_3  and  C_4 
REMARK       I    between atoms: C_4  and  N_6 
REMARK    3  A    between atoms: N_6  and  C_7 
REMARK       I    between atoms: C_14  and  N_16 
REMARK    4  A    between atoms: N_16  and  C_17 
ROOT
HETATM    1  N   UNL     1     -42.410 -48.077  11.959  1.00  0.00    -0.330 N 
HETATM    2  C   UNL     1     -41.798 -49.266  11.636  1.00  0.00     0.322 C 
HETATM    3  O   UNL     1     -40.990 -49.329  10.715  1.00  0.00    -0.247 OA
HETATM    4  N   UNL     1     -42.226 -50.301  12.425  1.00  0.00    -0.288 N 
HETATM    5  H   UNL     1     -42.898 -47.998  12.840  1.00  0.00     0.165 HD
HETATM    6  H   UNL     1     -43.157 -50.247  12.812  1.00  0.00     0.172 HD
ENDROOT
BRANCH   1   7
HETATM    7  C   UNL     1     -42.046 -46.849  11.255  1.00  0.00     0.174 C 
HETATM    8  C   UNL     1     -42.075 -45.647  12.189  1.00  0.00     0.042 C 
BRANCH   7   9
HETATM    9  C   UNL     1     -43.006 -46.626  10.065  1.00  0.00     0.240 C 
HETATM   10  O   UNL     1     -43.093 -45.554   9.470  1.00  0.00    -0.271 OA
HETATM   11  N   UNL     1     -43.789 -47.725   9.762  1.00  0.00    -0.355 N 
HETATM   12  H   UNL     1     -43.897 -48.419  10.504  1.00  0.00     0.162 HD
BRANCH  11  13
HETATM   13  C   UNL     1     -44.764 -47.688   8.693  1.00  0.00     0.084 C 
HETATM   14  C   UNL     1     -46.133 -48.242   9.102  1.00  0.00     0.025 C 
HETATM   15  C   UNL     1     -46.673 -48.984   7.877  1.00  0.00     0.002 C 
HETATM   16  C   UNL     1     -45.664 -48.750   6.761  1.00  0.00     0.002 C 
HETATM   17  C   UNL     1     -44.351 -48.532   7.493  1.00  0.00     0.025 C 
ENDBRANCH  11  13
ENDBRANCH   7   9
ENDBRANCH   1   7
BRANCH   4  18
HETATM   18  C   UNL     1     -41.706 -51.573  12.389  1.00  0.00     0.168 A 
HETATM   19  N   UNL     1     -41.297 -52.153  11.282  1.00  0.00    -0.279 N 
HETATM   20  N   UNL     1     -40.806 -53.425  11.513  1.00  0.00    -0.303 N 
ATOM     21  HN  UNL     1     -41.337 -51.716  10.361  1.00  0.00     0.189 HD
HETATM   22  C   UNL     1     -40.918 -53.766  12.779  1.00  0.00     0.160 A 
ATOM     23  HN  UNL     1     -40.405 -54.025  10.792  1.00  0.00     0.186 HD
HETATM   24  S   UNL     1     -41.642 -52.575  13.773  1.00  0.00    -0.046 SA
ENDBRANCH   4  18
TORSDOF 4
ENDMDL
MODEL 6
REMARK VINA RESULT:      -5.5      3.434      5.103
REMARK  4 active torsions:
REMARK  status: ('A' for Active; 'I' for Inactive)
REMARK    1  A    between atoms: C_2  and  N_3 
REMARK    2  A    between atoms: C_2  and  C_14 
REMARK       I    between atoms: N_3  and  C_4 
REMARK       I    between atoms: C_4  and  N_6 
REMARK    3  A    between atoms: N_6  and  C_7 
REMARK       I    between atoms: C_14  and  N_16 
REMARK    4  A    between atoms: N_16  and  C_17 
ROOT
HETATM    1  N   UNL     1     -41.343 -54.243  14.488  1.00  0.00    -0.330 N 
HETATM    2  C   UNL     1     -41.314 -52.966  13.976  1.00  0.00     0.322 C 
HETATM    3  O   UNL     1     -41.941 -52.059  14.511  1.00  0.00    -0.247 OA
HETATM    4  N   UNL     1     -40.555 -52.881  12.839  1.00  0.00    -0.288 N 
HETATM    5  H   UNL     1     -40.662 -54.916  14.169  1.00  0.00     0.165 HD
HETATM    6  H   UNL     1     -40.468 -53.707  12.265  1.00  0.00     0.172 HD
ENDROOT
BRANCH   1   7
HETATM    7  C   UNL     1     -42.065 -54.520  15.728  1.00  0.00     0.174 C 
HETATM    8  C   UNL     1     -41.707 -55.894  16.280  1.00  0.00     0.042 C 
BRANCH   7   9
HETATM    9  C   UNL     1     -43.587 -54.422  15.478  1.00  0.00     0.240 C 
HETATM   10  O   UNL     1     -44.219 -55.282  14.869  1.00  0.00    -0.271 OA
HETATM   11  N   UNL     1     -44.161 -53.261  15.962  1.00  0.00    -0.355 N 
HETATM   12  H   UNL     1     -43.524 -52.479  16.129  1.00  0.00     0.162 HD
BRANCH  11  13
HETATM   13  C   UNL     1     -45.573 -52.988  15.795  1.00  0.00     0.084 C 
HETATM   14  C   UNL     1     -45.915 -52.381  14.431  1.00  0.00     0.025 C 
HETATM   15  C   UNL     1     -47.031 -51.364  14.688  1.00  0.00     0.002 C 
HETATM   16  C   UNL     1     -47.383 -51.485  16.164  1.00  0.00     0.002 C 
HETATM   17  C   UNL     1     -46.098 -51.978  16.809  1.00  0.00     0.025 C 
ENDBRANCH  11  13
ENDBRANCH   7   9
ENDBRANCH   1   7
BRANCH   4  18
HETATM   18  C   UNL     1     -40.270 -51.708  12.180  1.00  0.00     0.168 A 
HETATM   19  N   UNL     1     -40.852 -51.353  11.055  1.00  0.00    -0.279 N 
HETATM   20  N   UNL     1     -40.401 -50.126  10.602  1.00  0.00    -0.303 N 
ATOM     21  HN  UNL     1     -41.553 -51.916  10.574  1.00  0.00     0.189 HD
HETATM   22  C   UNL     1     -39.458 -49.638  11.379  1.00  0.00     0.160 A 
ATOM     23  HN  UNL     1     -40.756 -49.658   9.768  1.00  0.00     0.186 HD
HETATM   24  S   UNL     1     -39.043 -50.639  12.704  1.00  0.00    -0.046 SA
ENDBRANCH   4  18
TORSDOF 4
ENDMDL
MODEL 7
REMARK VINA RESULT:      -5.3      3.684      5.349
REMARK  4 active torsions:
REMARK  status: ('A' for Active; 'I' for Inactive)
REMARK    1  A    between atoms: C_2  and  N_3 
REMARK    2  A    between atoms: C_2  and  C_14 
REMARK       I    between atoms: N_3  and  C_4 
REMARK       I    between atoms: C_4  and  N_6 
REMARK    3  A    between atoms: N_6  and  C_7 
REMARK       I    between atoms: C_14  and  N_16 
REMARK    4  A    between atoms: N_16  and  C_17 
ROOT
HETATM    1  N   UNL     1     -42.558 -52.218  13.637  1.00  0.00    -0.330 N 
HETATM    2  C   UNL     1     -41.362 -52.190  12.957  1.00  0.00     0.322 C 
HETATM    3  O   UNL     1     -40.924 -53.198  12.412  1.00  0.00    -0.247 OA
HETATM    4  N   UNL     1     -40.765 -50.959  13.008  1.00  0.00    -0.288 N 
HETATM    5  H   UNL     1     -43.001 -51.346  13.889  1.00  0.00     0.165 HD
HETATM    6  H   UNL     1     -40.959 -50.371  13.806  1.00  0.00     0.172 HD
ENDROOT
BRANCH   1   7
HETATM    7  C   UNL     1     -43.364 -53.437  13.655  1.00  0.00     0.174 C 
HETATM    8  C   UNL     1     -44.189 -53.572  12.381  1.00  0.00     0.042 C 
BRANCH   7   9
HETATM    9  C   UNL     1     -44.287 -53.434  14.893  1.00  0.00     0.240 C 
HETATM   10  O   UNL     1     -44.561 -54.454  15.522  1.00  0.00    -0.271 OA
HETATM   11  N   UNL     1     -44.810 -52.192  15.201  1.00  0.00    -0.355 N 
HETATM   12  H   UNL     1     -44.811 -51.504  14.445  1.00  0.00     0.162 HD
BRANCH  11  13
HETATM   13  C   UNL     1     -45.716 -52.006  16.314  1.00  0.00     0.084 C 
HETATM   14  C   UNL     1     -47.193 -52.086  15.914  1.00  0.00     0.025 C 
HETATM   15  C   UNL     1     -47.921 -51.049  16.773  1.00  0.00     0.002 C 
HETATM   16  C   UNL     1     -46.878 -50.477  17.722  1.00  0.00     0.002 C 
HETATM   17  C   UNL     1     -45.568 -50.637  16.969  1.00  0.00     0.025 C 
ENDBRANCH  11  13
ENDBRANCH   7   9
ENDBRANCH   1   7
BRANCH   4  18
HETATM   18  C   UNL     1     -39.618 -50.622  12.329  1.00  0.00     0.168 A 
HETATM   19  N   UNL     1     -39.605 -50.282  11.059  1.00  0.00    -0.279 N 
HETATM   20  N   UNL     1     -38.330 -49.979  10.616  1.00  0.00    -0.303 N 
ATOM     21  HN  UNL     1     -40.437 -50.246  10.470  1.00  0.00     0.189 HD
HETATM   22  C   UNL     1     -37.432 -50.158  11.560  1.00  0.00     0.160 A 
ATOM     23  HN  UNL     1     -38.113 -49.655   9.673  1.00  0.00     0.186 HD
HETATM   24  S   UNL     1     -38.069 -50.722  13.046  1.00  0.00    -0.046 SA
ENDBRANCH   4  18
TORSDOF 4
ENDMDL
MODEL 8
REMARK VINA RESULT:      -5.3      3.282      5.389
REMARK  4 active torsions:
REMARK  status: ('A' for Active; 'I' for Inactive)
REMARK    1  A    between atoms: C_2  and  N_3 
REMARK    2  A    between atoms: C_2  and  C_14 
REMARK       I    between atoms: N_3  and  C_4 
REMARK       I    between atoms: C_4  and  N_6 
REMARK    3  A    between atoms: N_6  and  C_7 
REMARK       I    between atoms: C_14  and  N_16 
REMARK    4  A    between atoms: N_16  and  C_17 
ROOT
HETATM    1  N   UNL     1     -43.592 -53.104  13.629  1.00  0.00    -0.330 N 
HETATM    2  C   UNL     1     -42.456 -52.611  13.030  1.00  0.00     0.322 C 
HETATM    3  O   UNL     1     -41.519 -53.352  12.751  1.00  0.00    -0.247 OA
HETATM    4  N   UNL     1     -42.517 -51.257  12.836  1.00  0.00    -0.288 N 
HETATM    5  H   UNL     1     -44.424 -52.531  13.652  1.00  0.00     0.165 HD
HETATM    6  H   UNL     1     -43.087 -50.714  13.469  1.00  0.00     0.172 HD
ENDROOT
BRANCH   1   7
HETATM    7  C   UNL     1     -43.730 -54.538  13.874  1.00  0.00     0.174 C 
HETATM    8  C   UNL     1     -45.189 -54.970  13.818  1.00  0.00     0.042 C 
BRANCH   7   9
HETATM    9  C   UNL     1     -43.118 -54.894  15.247  1.00  0.00     0.240 C 
HETATM   10  O   UNL     1     -43.783 -54.950  16.279  1.00  0.00    -0.271 OA
HETATM   11  N   UNL     1     -41.751 -55.097  15.216  1.00  0.00    -0.355 N 
HETATM   12  H   UNL     1     -41.254 -54.696  14.418  1.00  0.00     0.162 HD
BRANCH  11  13
HETATM   13  C   UNL     1     -41.005 -55.414  16.415  1.00  0.00     0.084 C 
HETATM   14  C   UNL     1     -39.522 -55.039  16.324  1.00  0.00     0.025 C 
HETATM   15  C   UNL     1     -38.760 -56.139  17.068  1.00  0.00     0.002 C 
HETATM   16  C   UNL     1     -39.818 -57.058  17.664  1.00  0.00     0.002 C 
HETATM   17  C   UNL     1     -41.006 -56.906  16.729  1.00  0.00     0.025 C 
ENDBRANCH  11  13
ENDBRANCH   7   9
ENDBRANCH   1   7
BRANCH   4  18
HETATM   18  C   UNL     1     -41.567 -50.523  12.166  1.00  0.00     0.168 A 
HETATM   19  N   UNL     1     -40.946 -50.959  11.092  1.00  0.00    -0.279 N 
HETATM   20  N   UNL     1     -40.046 -50.029  10.600  1.00  0.00    -0.303 N 
ATOM     21  HN  UNL     1     -41.108 -51.873  10.671  1.00  0.00     0.189 HD
HETATM   22  C   UNL     1     -39.991 -48.958  11.360  1.00  0.00     0.160 A 
ATOM     23  HN  UNL     1     -39.494 -50.159   9.752  1.00  0.00     0.186 HD
HETATM   24  S   UNL     1     -41.014 -49.008  12.732  1.00  0.00    -0.046 SA
ENDBRANCH   4  18
TORSDOF 4
ENDMDL
MODEL 9
REMARK VINA RESULT:      -5.2      4.108      6.820
REMARK  4 active torsions:
REMARK  status: ('A' for Active; 'I' for Inactive)
REMARK    1  A    between atoms: C_2  and  N_3 
REMARK    2  A    between atoms: C_2  and  C_14 
REMARK       I    between atoms: N_3  and  C_4 
REMARK       I    between atoms: C_4  and  N_6 
REMARK    3  A    between atoms: N_6  and  C_7 
REMARK       I    between atoms: C_14  and  N_16 
REMARK    4  A    between atoms: N_16  and  C_17 
ROOT
HETATM    1  N   UNL     1     -38.986 -51.120  12.672  1.00  0.00    -0.330 N 
HETATM    2  C   UNL     1     -40.351 -51.284  12.619  1.00  0.00     0.322 C 
HETATM    3  O   UNL     1     -41.093 -50.327  12.423  1.00  0.00    -0.247 OA
HETATM    4  N   UNL     1     -40.726 -52.583  12.836  1.00  0.00    -0.288 N 
HETATM    5  H   UNL     1     -38.390 -51.933  12.618  1.00  0.00     0.165 HD
HETATM    6  H   UNL     1     -40.123 -53.161  13.403  1.00  0.00     0.172 HD
ENDROOT
BRANCH   1   7
HETATM    7  C   UNL     1     -38.394 -49.808  12.419  1.00  0.00     0.174 C 
HETATM    8  C   UNL     1     -37.268 -49.898  11.397  1.00  0.00     0.042 C 
BRANCH   7   9
HETATM    9  C   UNL     1     -37.870 -49.207  13.742  1.00  0.00     0.240 C 
HETATM   10  O   UNL     1     -37.638 -48.008  13.884  1.00  0.00    -0.271 OA
HETATM   11  N   UNL     1     -37.644 -50.144  14.733  1.00  0.00    -0.355 N 
HETATM   12  H   UNL     1     -37.530 -51.111  14.422  1.00  0.00     0.162 HD
BRANCH  11  13
HETATM   13  C   UNL     1     -37.128 -49.764  16.031  1.00  0.00     0.084 C 
HETATM   14  C   UNL     1     -35.622 -50.004  16.178  1.00  0.00     0.025 C 
HETATM   15  C   UNL     1     -35.406 -50.466  17.622  1.00  0.00     0.002 C 
HETATM   16  C   UNL     1     -36.764 -50.376  18.303  1.00  0.00     0.002 C 
HETATM   17  C   UNL     1     -37.758 -50.560  17.168  1.00  0.00     0.025 C 
ENDBRANCH  11  13
ENDBRANCH   7   9
ENDBRANCH   1   7
BRANCH   4  18
HETATM   18  C   UNL     1     -42.016 -53.047  12.736  1.00  0.00     0.168 A 
HETATM   19  N   UNL     1     -42.848 -52.667  11.791  1.00  0.00    -0.279 N 
HETATM   20  N   UNL     1     -44.080 -53.286  11.903  1.00  0.00    -0.303 N 
ATOM     21  HN  UNL     1     -42.612 -51.995  11.061  1.00  0.00     0.189 HD
HETATM   22  C   UNL     1     -44.137 -54.063  12.963  1.00  0.00     0.160 A 
ATOM     23  HN  UNL     1     -44.849 -53.156  11.246  1.00  0.00     0.186 HD
HETATM   24  S   UNL     1     -42.708 -54.086  13.905  1.00  0.00    -0.046 SA
ENDBRANCH   4  18
TORSDOF 4
ENDMDL
