MODEL 1
REMARK VINA RESULT:      -6.5      0.000      0.000
REMARK  5 active torsions:
REMARK  status: ('A' for Active; 'I' for Inactive)
REMARK    1  A    between atoms: C_2  and  C_4 
REMARK    2  A    between atoms: C_4  and  N_5 
REMARK       I    between atoms: N_5  and  C_6 
REMARK       I    between atoms: C_6  and  N_8 
REMARK    3  A    between atoms: N_8  and  C_9 
REMARK    4  A    between atoms: C_9  and  C_10 
REMARK    5  A    between atoms: C_15  and  N_17 
ROOT
HETATM    1  C   UNL     1     -40.380 -50.529  11.797  1.00  0.00    -0.035 A 
HETATM    2  C   UNL     1     -39.097 -50.090  12.098  1.00  0.00     0.026 A 
HETATM    3  C   UNL     1     -38.800 -48.760  11.865  1.00  0.00     0.090 A 
HETATM    4  N   UNL     1     -39.680 -47.863  11.364  1.00  0.00    -0.352 N 
ATOM      5  HN  UNL     1     -39.405 -46.890  11.225  1.00  0.00     0.166 HD
HETATM    6  C   UNL     1     -40.929 -48.272  11.051  1.00  0.00     0.103 A 
HETATM    7  C   UNL     1     -41.282 -49.611  11.238  1.00  0.00     0.057 A 
ENDROOT
BRANCH   1   8
HETATM    8  C   UNL     1     -40.839 -51.916  12.149  1.00  0.00     0.163 C 
BRANCH   8   9
HETATM    9  N   UNL     1     -42.191 -52.200  11.724  1.00  0.00    -0.339 N 
HETATM   10  C   UNL     1     -43.062 -52.678  12.674  1.00  0.00     0.316 C 
HETATM   11  N   UNL     1     -44.325 -52.839  12.170  1.00  0.00    -0.343 N 
HETATM   12  O   UNL     1     -42.745 -52.926  13.830  1.00  0.00    -0.247 OA
HETATM   13  H   UNL     1     -44.395 -52.947  11.169  1.00  0.00     0.164 HD
HETATM   14  H   UNL     1     -42.597 -51.577  11.045  1.00  0.00     0.164 HD
BRANCH  11  15
HETATM   15  C   UNL     1     -45.403 -53.375  12.986  1.00  0.00     0.128 C 
BRANCH  15  16
HETATM   16  C   UNL     1     -46.540 -52.363  13.200  1.00  0.00    -0.005 C 
HETATM   17  C   UNL     1     -46.184 -51.342  14.283  1.00  0.00     0.011 C 
HETATM   18  C   UNL     1     -46.858 -51.635  11.892  1.00  0.00     0.011 C 
ENDBRANCH  15  16
ENDBRANCH  11  15
ENDBRANCH   8   9
ENDBRANCH   1   8
BRANCH   6  19
HETATM   19  N   UNL     1     -41.861 -47.332  10.678  1.00  0.00    -0.363 N 
HETATM   20  C   UNL     1     -42.868 -47.673   9.663  1.00  0.00     0.150 C 
HETATM   21  C   UNL     1     -43.124 -46.423   8.799  1.00  0.00     0.187 C 
HETATM   22  O   UNL     1     -43.515 -45.289   9.596  1.00  0.00    -0.388 OA
HETATM   23  C   UNL     1     -42.499 -44.984  10.568  1.00  0.00     0.187 C 
HETATM   24  C   UNL     1     -42.235 -46.179  11.499  1.00  0.00     0.150 C 
ENDBRANCH   6  19
TORSDOF 5
ENDMDL
MODEL 2
REMARK VINA RESULT:      -6.3      0.961      1.392
REMARK  5 active torsions:
REMARK  status: ('A' for Active; 'I' for Inactive)
REMARK    1  A    between atoms: C_2  and  C_4 
REMARK    2  A    between atoms: C_4  and  N_5 
REMARK       I    between atoms: N_5  and  C_6 
REMARK       I    between atoms: C_6  and  N_8 
REMARK    3  A    between atoms: N_8  and  C_9 
REMARK    4  A    between atoms: C_9  and  C_10 
REMARK    5  A    between atoms: C_15  and  N_17 
ROOT
HETATM    1  C   UNL     1     -40.099 -51.181  12.123  1.00  0.00    -0.035 A 
HETATM    2  C   UNL     1     -38.988 -50.926  12.918  1.00  0.00     0.026 A 
HETATM    3  C   UNL     1     -38.550 -49.619  13.012  1.00  0.00     0.090 A 
HETATM    4  N   UNL     1     -39.134 -48.575  12.380  1.00  0.00    -0.352 N 
ATOM      5  HN  UNL     1     -38.771 -47.629  12.498  1.00  0.00     0.166 HD
HETATM    6  C   UNL     1     -40.206 -48.804  11.590  1.00  0.00     0.103 A 
HETATM    7  C   UNL     1     -40.681 -50.108  11.433  1.00  0.00     0.057 A 
ENDROOT
BRANCH   1   8
HETATM    8  C   UNL     1     -40.735 -52.542  12.074  1.00  0.00     0.163 C 
BRANCH   8   9
HETATM    9  N   UNL     1     -42.133 -52.511  11.710  1.00  0.00    -0.339 N 
HETATM   10  C   UNL     1     -43.031 -53.020  12.616  1.00  0.00     0.316 C 
HETATM   11  N   UNL     1     -44.324 -52.869  12.192  1.00  0.00    -0.343 N 
HETATM   12  O   UNL     1     -42.712 -53.544  13.676  1.00  0.00    -0.247 OA
HETATM   13  H   UNL     1     -44.456 -52.762  11.197  1.00  0.00     0.164 HD
HETATM   14  H   UNL     1     -42.454 -51.706  11.196  1.00  0.00     0.164 HD
BRANCH  11  15
HETATM   15  C   UNL     1     -45.441 -53.374  12.973  1.00  0.00     0.128 C 
BRANCH  15  16
HETATM   16  C   UNL     1     -46.505 -52.299  13.245  1.00  0.00    -0.005 C 
HETATM   17  C   UNL     1     -46.032 -51.300  14.303  1.00  0.00     0.011 C 
HETATM   18  C   UNL     1     -46.853 -51.554  11.954  1.00  0.00     0.011 C 
ENDBRANCH  15  16
ENDBRANCH  11  15
ENDBRANCH   8   9
ENDBRANCH   1   8
BRANCH   6  19
HETATM   19  N   UNL     1     -40.883 -47.728  11.063  1.00  0.00    -0.363 N 
HETATM   20  C   UNL     1     -40.202 -46.430  10.946  1.00  0.00     0.150 C 
HETATM   21  C   UNL     1     -41.228 -45.319  11.239  1.00  0.00     0.187 C 
HETATM   22  O   UNL     1     -42.380 -45.411  10.378  1.00  0.00    -0.388 OA
HETATM   23  C   UNL     1     -43.021 -46.690  10.531  1.00  0.00     0.187 C 
HETATM   24  C   UNL     1     -42.060 -47.843  10.200  1.00  0.00     0.150 C 
ENDBRANCH   6  19
TORSDOF 5
ENDMDL
MODEL 3
REMARK VINA RESULT:      -6.2      2.052      6.388
REMARK  5 active torsions:
REMARK  status: ('A' for Active; 'I' for Inactive)
REMARK    1  A    between atoms: C_2  and  C_4 
REMARK    2  A    between atoms: C_4  and  N_5 
REMARK       I    between atoms: N_5  and  C_6 
REMARK       I    between atoms: C_6  and  N_8 
REMARK    3  A    between atoms: N_8  and  C_9 
REMARK    4  A    between atoms: C_9  and  C_10 
REMARK    5  A    between atoms: C_15  and  N_17 
ROOT
HETATM    1  C   UNL     1     -40.970 -51.933  12.741  1.00  0.00    -0.035 A 
HETATM    2  C   UNL     1     -40.419 -53.208  12.695  1.00  0.00     0.026 A 
HETATM    3  C   UNL     1     -41.239 -54.276  13.009  1.00  0.00     0.090 A 
HETATM    4  N   UNL     1     -42.541 -54.156  13.356  1.00  0.00    -0.352 N 
ATOM      5  HN  UNL     1     -43.099 -54.984  13.565  1.00  0.00     0.166 HD
HETATM    6  C   UNL     1     -43.093 -52.924  13.421  1.00  0.00     0.103 A 
HETATM    7  C   UNL     1     -42.308 -51.803  13.142  1.00  0.00     0.057 A 
ENDROOT
BRANCH   1   8
HETATM    8  C   UNL     1     -40.202 -50.727  12.278  1.00  0.00     0.163 C 
BRANCH   8   9
HETATM    9  N   UNL     1     -40.696 -50.170  11.039  1.00  0.00    -0.339 N 
HETATM   10  C   UNL     1     -41.341 -48.959  11.107  1.00  0.00     0.316 C 
HETATM   11  N   UNL     1     -41.697 -48.502   9.867  1.00  0.00    -0.343 N 
HETATM   12  O   UNL     1     -41.568 -48.361  12.152  1.00  0.00    -0.247 OA
HETATM   13  H   UNL     1     -41.785 -49.200   9.144  1.00  0.00     0.164 HD
HETATM   14  H   UNL     1     -40.129 -50.307  10.218  1.00  0.00     0.164 HD
BRANCH  11  15
HETATM   15  C   UNL     1     -42.431 -47.258   9.700  1.00  0.00     0.128 C 
BRANCH  15  16
HETATM   16  C   UNL     1     -43.770 -47.455   8.971  1.00  0.00    -0.005 C 
HETATM   17  C   UNL     1     -44.564 -46.149   8.897  1.00  0.00     0.011 C 
HETATM   18  C   UNL     1     -43.534 -47.994   7.559  1.00  0.00     0.011 C 
ENDBRANCH  15  16
ENDBRANCH  11  15
ENDBRANCH   8   9
ENDBRANCH   1   8
BRANCH   6  19
HETATM   19  N   UNL     1     -44.447 -52.815  13.634  1.00  0.00    -0.363 N 
HETATM   20  C   UNL     1     -45.105 -51.511  13.466  1.00  0.00     0.150 C 
HETATM   21  C   UNL     1     -46.208 -51.386  14.533  1.00  0.00     0.187 C 
HETATM   22  O   UNL     1     -47.143 -52.480  14.473  1.00  0.00    -0.388 OA
HETATM   23  C   UNL     1     -46.460 -53.734  14.652  1.00  0.00     0.187 C 
HETATM   24  C   UNL     1     -45.379 -53.944  13.579  1.00  0.00     0.150 C 
ENDBRANCH   6  19
TORSDOF 5
ENDMDL
MODEL 4
REMARK VINA RESULT:      -5.5      2.858      4.593
REMARK  5 active torsions:
REMARK  status: ('A' for Active; 'I' for Inactive)
REMARK    1  A    between atoms: C_2  and  C_4 
REMARK    2  A    between atoms: C_4  and  N_5 
REMARK       I    between atoms: N_5  and  C_6 
REMARK       I    between atoms: C_6  and  N_8 
REMARK    3  A    between atoms: N_8  and  C_9 
REMARK    4  A    between atoms: C_9  and  C_10 
REMARK    5  A    between atoms: C_15  and  N_17 
ROOT
HETATM    1  C   UNL     1     -40.442 -50.899  12.295  1.00  0.00    -0.035 A 
HETATM    2  C   UNL     1     -40.561 -49.886  11.351  1.00  0.00     0.026 A 
HETATM    3  C   UNL     1     -40.034 -48.647  11.665  1.00  0.00     0.090 A 
HETATM    4  N   UNL     1     -39.411 -48.362  12.832  1.00  0.00    -0.352 N 
ATOM      5  HN  UNL     1     -39.032 -47.430  13.001  1.00  0.00     0.166 HD
HETATM    6  C   UNL     1     -39.298 -49.328  13.770  1.00  0.00     0.103 A 
HETATM    7  C   UNL     1     -39.835 -50.594  13.522  1.00  0.00     0.057 A 
ENDROOT
BRANCH   1   8
HETATM    8  C   UNL     1     -40.853 -52.312  11.989  1.00  0.00     0.163 C 
BRANCH   8   9
HETATM    9  N   UNL     1     -42.255 -52.447  11.668  1.00  0.00    -0.339 N 
HETATM   10  C   UNL     1     -43.090 -52.889  12.667  1.00  0.00     0.316 C 
HETATM   11  N   UNL     1     -44.398 -52.906  12.266  1.00  0.00    -0.343 N 
HETATM   12  O   UNL     1     -42.706 -53.224  13.780  1.00  0.00    -0.247 OA
HETATM   13  H   UNL     1     -44.559 -52.956  11.271  1.00  0.00     0.164 HD
HETATM   14  H   UNL     1     -42.653 -51.754  11.054  1.00  0.00     0.164 HD
BRANCH  11  15
HETATM   15  C   UNL     1     -45.454 -53.380  13.147  1.00  0.00     0.128 C 
BRANCH  15  16
HETATM   16  C   UNL     1     -46.573 -52.343  13.338  1.00  0.00    -0.005 C 
HETATM   17  C   UNL     1     -46.233 -51.354  14.455  1.00  0.00     0.011 C 
HETATM   18  C   UNL     1     -46.821 -51.581  12.035  1.00  0.00     0.011 C 
ENDBRANCH  15  16
ENDBRANCH  11  15
ENDBRANCH   8   9
ENDBRANCH   1   8
BRANCH   6  19
HETATM   19  N   UNL     1     -38.543 -49.078  14.891  1.00  0.00    -0.363 N 
HETATM   20  C   UNL     1     -39.116 -48.287  15.990  1.00  0.00     0.150 C 
HETATM   21  C   UNL     1     -37.999 -47.412  16.589  1.00  0.00     0.187 C 
HETATM   22  O   UNL     1     -36.870 -48.199  17.015  1.00  0.00    -0.388 OA
HETATM   23  C   UNL     1     -36.334 -48.948  15.910  1.00  0.00     0.187 C 
HETATM   24  C   UNL     1     -37.390 -49.884  15.300  1.00  0.00     0.150 C 
ENDBRANCH   6  19
TORSDOF 5
ENDMDL
MODEL 5
REMARK VINA RESULT:      -5.5      2.467      3.891
REMARK  5 active torsions:
REMARK  status: ('A' for Active; 'I' for Inactive)
REMARK    1  A    between atoms: C_2  and  C_4 
REMARK    2  A    between atoms: C_4  and  N_5 
REMARK       I    between atoms: N_5  and  C_6 
REMARK       I    between atoms: C_6  and  N_8 
REMARK    3  A    between atoms: N_8  and  C_9 
REMARK    4  A    between atoms: C_9  and  C_10 
REMARK    5  A    between atoms: C_15  and  N_17 
ROOT
HETATM    1  C   UNL     1     -42.379 -47.526  10.928  1.00  0.00    -0.035 A 
HETATM    2  C   UNL     1     -43.277 -47.615   9.872  1.00  0.00     0.026 A 
HETATM    3  C   UNL     1     -43.773 -46.435   9.347  1.00  0.00     0.090 A 
HETATM    4  N   UNL     1     -43.437 -45.205   9.798  1.00  0.00    -0.352 N 
ATOM      5  HN  UNL     1     -43.827 -44.370   9.361  1.00  0.00     0.166 HD
HETATM    6  C   UNL     1     -42.576 -45.097  10.834  1.00  0.00     0.103 A 
HETATM    7  C   UNL     1     -42.062 -46.253  11.425  1.00  0.00     0.057 A 
ENDROOT
BRANCH   1   8
HETATM    8  C   UNL     1     -41.678 -48.742  11.468  1.00  0.00     0.163 C 
BRANCH   8   9
HETATM    9  N   UNL     1     -42.566 -49.852  11.724  1.00  0.00    -0.339 N 
HETATM   10  C   UNL     1     -43.301 -49.815  12.884  1.00  0.00     0.316 C 
HETATM   11  N   UNL     1     -44.155 -50.881  12.980  1.00  0.00    -0.343 N 
HETATM   12  O   UNL     1     -43.204 -48.934  13.729  1.00  0.00    -0.247 OA
HETATM   13  H   UNL     1     -43.912 -51.697  12.438  1.00  0.00     0.164 HD
HETATM   14  H   UNL     1     -43.040 -50.251  10.930  1.00  0.00     0.164 HD
BRANCH  11  15
HETATM   15  C   UNL     1     -45.002 -51.071  14.147  1.00  0.00     0.128 C 
BRANCH  15  16
HETATM   16  C   UNL     1     -46.338 -51.749  13.803  1.00  0.00    -0.005 C 
HETATM   17  C   UNL     1     -46.695 -51.565  12.327  1.00  0.00     0.011 C 
HETATM   18  C   UNL     1     -46.278 -53.242  14.135  1.00  0.00     0.011 C 
ENDBRANCH  15  16
ENDBRANCH  11  15
ENDBRANCH   8   9
ENDBRANCH   1   8
BRANCH   6  19
HETATM   19  N   UNL     1     -42.128 -43.848  11.196  1.00  0.00    -0.363 N 
HETATM   20  C   UNL     1     -40.706 -43.512  11.032  1.00  0.00     0.150 C 
HETATM   21  C   UNL     1     -40.284 -42.617  12.212  1.00  0.00     0.187 C 
HETATM   22  O   UNL     1     -41.112 -41.443  12.321  1.00  0.00    -0.388 OA
HETATM   23  C   UNL     1     -42.491 -41.817  12.490  1.00  0.00     0.187 C 
HETATM   24  C   UNL     1     -42.991 -42.670  11.313  1.00  0.00     0.150 C 
ENDBRANCH   6  19
TORSDOF 5
ENDMDL
MODEL 6
REMARK VINA RESULT:      -5.5      2.097      2.824
REMARK  5 active torsions:
REMARK  status: ('A' for Active; 'I' for Inactive)
REMARK    1  A    between atoms: C_2  and  C_4 
REMARK    2  A    between atoms: C_4  and  N_5 
REMARK       I    between atoms: N_5  and  C_6 
REMARK       I    between atoms: C_6  and  N_8 
REMARK    3  A    between atoms: N_8  and  C_9 
REMARK    4  A    between atoms: C_9  and  C_10 
REMARK    5  A    between atoms: C_15  and  N_17 
ROOT
HETATM    1  C   UNL     1     -38.697 -51.030  13.088  1.00  0.00    -0.035 A 
HETATM    2  C   UNL     1     -37.502 -50.946  12.384  1.00  0.00     0.026 A 
HETATM    3  C   UNL     1     -37.404 -49.988  11.392  1.00  0.00     0.090 A 
HETATM    4  N   UNL     1     -38.397 -49.129  11.067  1.00  0.00    -0.352 N 
ATOM      5  HN  UNL     1     -38.261 -48.434  10.333  1.00  0.00     0.166 HD
HETATM    6  C   UNL     1     -39.573 -49.203  11.730  1.00  0.00     0.103 A 
HETATM    7  C   UNL     1     -39.743 -50.169  12.724  1.00  0.00     0.057 A 
ENDROOT
BRANCH   1   8
HETATM    8  C   UNL     1     -38.848 -51.938  14.276  1.00  0.00     0.163 C 
BRANCH   8   9
HETATM    9  N   UNL     1     -40.222 -52.146  14.670  1.00  0.00    -0.339 N 
HETATM   10  C   UNL     1     -40.811 -53.331  14.298  1.00  0.00     0.316 C 
HETATM   11  N   UNL     1     -42.084 -53.443  14.789  1.00  0.00    -0.343 N 
HETATM   12  O   UNL     1     -40.261 -54.183  13.612  1.00  0.00    -0.247 OA
HETATM   13  H   UNL     1     -42.549 -52.578  15.024  1.00  0.00     0.164 HD
HETATM   14  H   UNL     1     -40.496 -51.798  15.575  1.00  0.00     0.164 HD
BRANCH  11  15
HETATM   15  C   UNL     1     -42.915 -54.597  14.485  1.00  0.00     0.128 C 
BRANCH  15  16
HETATM   16  C   UNL     1     -44.037 -54.270  13.487  1.00  0.00    -0.005 C 
HETATM   17  C   UNL     1     -45.303 -55.076  13.785  1.00  0.00     0.011 C 
HETATM   18  C   UNL     1     -44.360 -52.774  13.520  1.00  0.00     0.011 C 
ENDBRANCH  15  16
ENDBRANCH  11  15
ENDBRANCH   8   9
ENDBRANCH   1   8
BRANCH   6  19
HETATM   19  N   UNL     1     -40.527 -48.240  11.497  1.00  0.00    -0.363 N 
HETATM   20  C   UNL     1     -40.228 -46.834  11.804  1.00  0.00     0.150 C 
HETATM   21  C   UNL     1     -41.512 -46.174  12.341  1.00  0.00     0.187 C 
HETATM   22  O   UNL     1     -42.612 -46.309  11.421  1.00  0.00    -0.388 OA
HETATM   23  C   UNL     1     -42.877 -47.698  11.155  1.00  0.00     0.187 C 
HETATM   24  C   UNL     1     -41.645 -48.403  10.565  1.00  0.00     0.150 C 
ENDBRANCH   6  19
TORSDOF 5
ENDMDL
MODEL 7
REMARK VINA RESULT:      -5.5      3.974      6.737
REMARK  5 active torsions:
REMARK  status: ('A' for Active; 'I' for Inactive)
REMARK    1  A    between atoms: C_2  and  C_4 
REMARK    2  A    between atoms: C_4  and  N_5 
REMARK       I    between atoms: N_5  and  C_6 
REMARK       I    between atoms: C_6  and  N_8 
REMARK    3  A    between atoms: N_8  and  C_9 
REMARK    4  A    between atoms: C_9  and  C_10 
REMARK    5  A    between atoms: C_15  and  N_17 
ROOT
HETATM    1  C   UNL     1     -39.863 -45.386  13.413  1.00  0.00    -0.035 A 
HETATM    2  C   UNL     1     -39.533 -45.147  14.741  1.00  0.00     0.026 A 
HETATM    3  C   UNL     1     -38.961 -46.181  15.459  1.00  0.00     0.090 A 
HETATM    4  N   UNL     1     -38.703 -47.407  14.948  1.00  0.00    -0.352 N 
ATOM      5  HN  UNL     1     -38.268 -48.126  15.525  1.00  0.00     0.166 HD
HETATM    6  C   UNL     1     -39.030 -47.665  13.662  1.00  0.00     0.103 A 
HETATM    7  C   UNL     1     -39.636 -46.669  12.893  1.00  0.00     0.057 A 
ENDROOT
BRANCH   1   8
HETATM    8  C   UNL     1     -40.354 -44.285  12.514  1.00  0.00     0.163 C 
BRANCH   8   9
HETATM    9  N   UNL     1     -41.723 -44.460  12.085  1.00  0.00    -0.339 N 
HETATM   10  C   UNL     1     -41.929 -44.871  10.790  1.00  0.00     0.316 C 
HETATM   11  N   UNL     1     -43.257 -45.070  10.525  1.00  0.00    -0.343 N 
HETATM   12  O   UNL     1     -41.031 -45.040   9.975  1.00  0.00    -0.247 OA
HETATM   13  H   UNL     1     -43.909 -44.580  11.120  1.00  0.00     0.164 HD
HETATM   14  H   UNL     1     -42.369 -44.833  12.761  1.00  0.00     0.164 HD
BRANCH  11  15
HETATM   15  C   UNL     1     -43.715 -45.467   9.204  1.00  0.00     0.128 C 
BRANCH  15  16
HETATM   16  C   UNL     1     -44.211 -46.921   9.162  1.00  0.00    -0.005 C 
HETATM   17  C   UNL     1     -43.600 -47.687   7.988  1.00  0.00     0.011 C 
HETATM   18  C   UNL     1     -43.876 -47.636  10.473  1.00  0.00     0.011 C 
ENDBRANCH  15  16
ENDBRANCH  11  15
ENDBRANCH   8   9
ENDBRANCH   1   8
BRANCH   6  19
HETATM   19  N   UNL     1     -38.639 -48.860  13.106  1.00  0.00    -0.363 N 
HETATM   20  C   UNL     1     -38.604 -50.071  13.940  1.00  0.00     0.150 C 
HETATM   21  C   UNL     1     -37.398 -50.924  13.501  1.00  0.00     0.187 C 
HETATM   22  O   UNL     1     -37.440 -51.231  12.094  1.00  0.00    -0.388 OA
HETATM   23  C   UNL     1     -37.464 -50.021  11.316  1.00  0.00     0.187 C 
HETATM   24  C   UNL     1     -38.678 -49.148  11.671  1.00  0.00     0.150 C 
ENDBRANCH   6  19
TORSDOF 5
ENDMDL
MODEL 8
REMARK VINA RESULT:      -5.4      2.837      6.972
REMARK  5 active torsions:
REMARK  status: ('A' for Active; 'I' for Inactive)
REMARK    1  A    between atoms: C_2  and  C_4 
REMARK    2  A    between atoms: C_4  and  N_5 
REMARK       I    between atoms: N_5  and  C_6 
REMARK       I    between atoms: C_6  and  N_8 
REMARK    3  A    between atoms: N_8  and  C_9 
REMARK    4  A    between atoms: C_9  and  C_10 
REMARK    5  A    between atoms: C_15  and  N_17 
ROOT
HETATM    1  C   UNL     1     -41.923 -54.183  14.232  1.00  0.00    -0.035 A 
HETATM    2  C   UNL     1     -41.437 -54.939  15.291  1.00  0.00     0.026 A 
HETATM    3  C   UNL     1     -42.203 -55.006  16.440  1.00  0.00     0.090 A 
HETATM    4  N   UNL     1     -43.394 -54.382  16.595  1.00  0.00    -0.352 N 
ATOM      5  HN  UNL     1     -43.919 -54.478  17.464  1.00  0.00     0.166 HD
HETATM    6  C   UNL     1     -43.877 -53.629  15.582  1.00  0.00     0.103 A 
HETATM    7  C   UNL     1     -43.136 -53.500  14.405  1.00  0.00     0.057 A 
ENDROOT
BRANCH   1   8
HETATM    8  C   UNL     1     -41.235 -54.168  12.895  1.00  0.00     0.163 C 
BRANCH   8   9
HETATM    9  N   UNL     1     -41.535 -52.995  12.107  1.00  0.00    -0.339 N 
HETATM   10  C   UNL     1     -40.609 -51.979  12.114  1.00  0.00     0.316 C 
HETATM   11  N   UNL     1     -40.969 -50.957  11.277  1.00  0.00    -0.343 N 
HETATM   12  O   UNL     1     -39.586 -51.989  12.787  1.00  0.00    -0.247 OA
HETATM   13  H   UNL     1     -41.951 -50.885  11.058  1.00  0.00     0.164 HD
HETATM   14  H   UNL     1     -42.001 -53.142  11.227  1.00  0.00     0.164 HD
BRANCH  11  15
HETATM   15  C   UNL     1     -40.159 -49.756  11.157  1.00  0.00     0.128 C 
BRANCH  15  16
HETATM   16  C   UNL     1     -40.964 -48.472  11.420  1.00  0.00    -0.005 C 
HETATM   17  C   UNL     1     -41.893 -48.145  10.249  1.00  0.00     0.011 C 
HETATM   18  C   UNL     1     -41.784 -48.612  12.704  1.00  0.00     0.011 C 
ENDBRANCH  15  16
ENDBRANCH  11  15
ENDBRANCH   8   9
ENDBRANCH   1   8
BRANCH   6  19
HETATM   19  N   UNL     1     -45.148 -53.114  15.688  1.00  0.00    -0.363 N 
HETATM   20  C   UNL     1     -45.877 -52.727  14.471  1.00  0.00     0.150 C 
HETATM   21  C   UNL     1     -46.706 -51.467  14.785  1.00  0.00     0.187 C 
HETATM   22  O   UNL     1     -47.586 -51.668  15.908  1.00  0.00    -0.388 OA
HETATM   23  C   UNL     1     -46.833 -52.035  17.077  1.00  0.00     0.187 C 
HETATM   24  C   UNL     1     -46.023 -53.321  16.844  1.00  0.00     0.150 C 
ENDBRANCH   6  19
TORSDOF 5
ENDMDL
MODEL 9
REMARK VINA RESULT:      -5.4      2.475      4.237
REMARK  5 active torsions:
REMARK  status: ('A' for Active; 'I' for Inactive)
REMARK    1  A    between atoms: C_2  and  C_4 
REMARK    2  A    between atoms: C_4  and  N_5 
REMARK       I    between atoms: N_5  and  C_6 
REMARK       I    between atoms: C_6  and  N_8 
REMARK    3  A    between atoms: N_8  and  C_9 
REMARK    4  A    between atoms: C_9  and  C_10 
REMARK    5  A    between atoms: C_15  and  N_17 
ROOT
HETATM    1  C   UNL     1     -41.874 -47.493  10.669  1.00  0.00    -0.035 A 
HETATM    2  C   UNL     1     -42.808 -47.674   9.657  1.00  0.00     0.026 A 
HETATM    3  C   UNL     1     -43.582 -46.587   9.293  1.00  0.00     0.090 A 
HETATM    4  N   UNL     1     -43.484 -45.363   9.860  1.00  0.00    -0.352 N 
ATOM      5  HN  UNL     1     -44.076 -44.596   9.540  1.00  0.00     0.166 HD
HETATM    6  C   UNL     1     -42.592 -45.170  10.856  1.00  0.00     0.103 A 
HETATM    7  C   UNL     1     -41.800 -46.236  11.287  1.00  0.00     0.057 A 
ENDROOT
BRANCH   1   8
HETATM    8  C   UNL     1     -40.891 -48.571  11.033  1.00  0.00     0.163 C 
BRANCH   8   9
HETATM    9  N   UNL     1     -41.465 -49.897  11.036  1.00  0.00    -0.339 N 
HETATM   10  C   UNL     1     -41.863 -50.408  12.248  1.00  0.00     0.316 C 
HETATM   11  N   UNL     1     -42.455 -51.634  12.114  1.00  0.00    -0.343 N 
HETATM   12  O   UNL     1     -41.706 -49.832  13.318  1.00  0.00    -0.247 OA
HETATM   13  H   UNL     1     -42.220 -52.153  11.281  1.00  0.00     0.164 HD
HETATM   14  H   UNL     1     -42.052 -50.143  10.255  1.00  0.00     0.164 HD
BRANCH  11  15
HETATM   15  C   UNL     1     -42.915 -52.384  13.271  1.00  0.00     0.128 C 
BRANCH  15  16
HETATM   16  C   UNL     1     -42.591 -53.883  13.171  1.00  0.00    -0.005 C 
HETATM   17  C   UNL     1     -41.081 -54.127  13.129  1.00  0.00     0.011 C 
HETATM   18  C   UNL     1     -43.202 -54.641  14.352  1.00  0.00     0.011 C 
ENDBRANCH  15  16
ENDBRANCH  11  15
ENDBRANCH   8   9
ENDBRANCH   1   8
BRANCH   6  19
HETATM   19  N   UNL     1     -42.395 -43.894  11.331  1.00  0.00    -0.363 N 
HETATM   20  C   UNL     1     -41.086 -43.521  11.886  1.00  0.00     0.150 C 
HETATM   21  C   UNL     1     -41.319 -42.567  13.072  1.00  0.00     0.187 C 
HETATM   22  O   UNL     1     -42.099 -41.416  12.693  1.00  0.00    -0.388 OA
HETATM   23  C   UNL     1     -43.373 -41.826  12.165  1.00  0.00     0.187 C 
HETATM   24  C   UNL     1     -43.208 -42.740  10.941  1.00  0.00     0.150 C 
ENDBRANCH   6  19
TORSDOF 5
ENDMDL
