MODEL 1
REMARK VINA RESULT:      -5.2      0.000      0.000
REMARK  4 active torsions:
REMARK  status: ('A' for Active; 'I' for Inactive)
REMARK    1  A    between atoms: O_1  and  C_2 
REMARK    2  A    between atoms: C_2  and  C_4 
REMARK    3  A    between atoms: C_4  and  C_5 
REMARK    4  A    between atoms: C_8  and  N_11 
ROOT
HETATM    1  C   UNL     1     -40.634 -45.969  11.333  1.00  0.00     0.027 C 
HETATM    2  C   UNL     1     -40.368 -47.322  11.312  1.00  0.00     0.078 C 
HETATM    3  S   UNL     1     -41.691 -48.162  10.633  1.00  0.00    -0.064 SA
HETATM    4  C   UNL     1     -42.516 -46.685  10.395  1.00  0.00     0.155 C 
HETATM    5  N   UNL     1     -41.910 -45.619  10.888  1.00  0.00    -0.339 N 
ATOM      6  HN  UNL     1     -42.313 -44.684  10.936  1.00  0.00     0.168 HD
ENDROOT
BRANCH   4   7
HETATM    7  N   UNL     1     -43.734 -46.633   9.748  1.00  0.00    -0.278 N 
HETATM    8  C   UNL     1     -44.660 -47.738   9.664  1.00  0.00     0.155 C 
HETATM    9  C   UNL     1     -45.961 -47.113   9.181  1.00  0.00     0.145 C 
HETATM   10  N   UNL     1     -45.578 -45.804   8.750  1.00  0.00    -0.341 N 
HETATM   11  C   UNL     1     -44.299 -45.481   9.191  1.00  0.00     0.324 C 
HETATM   12  H   UNL     1     -46.209 -45.049   8.506  1.00  0.00     0.164 HD
HETATM   13  O   UNL     1     -43.870 -44.344   9.106  1.00  0.00    -0.247 OA
ENDBRANCH   4   7
BRANCH   1  14
HETATM   14  C   UNL     1     -39.703 -44.882  11.761  1.00  0.00     0.167 C 
BRANCH  14  15
HETATM   15  C   UNL     1     -40.231 -43.491  11.503  1.00  0.00     0.145 C 
HETATM   16  O   UNL     1     -40.411 -42.675  12.400  1.00  0.00    -0.650 OA
BRANCH  15  17
HETATM   17  O   UNL     1     -40.411 -43.173  10.199  1.00  0.00    -0.776 OA
HETATM   18  H   UNL     1     -41.336 -43.340   9.902  1.00  0.00     0.167 HD
ENDBRANCH  15  17
ENDBRANCH  14  15
ENDBRANCH   1  14
TORSDOF 4
ENDMDL
MODEL 2
REMARK VINA RESULT:      -5.1      3.620      6.056
REMARK  4 active torsions:
REMARK  status: ('A' for Active; 'I' for Inactive)
REMARK    1  A    between atoms: O_1  and  C_2 
REMARK    2  A    between atoms: C_2  and  C_4 
REMARK    3  A    between atoms: C_4  and  C_5 
REMARK    4  A    between atoms: C_8  and  N_11 
ROOT
HETATM    1  C   UNL     1     -43.202 -47.382  10.270  1.00  0.00     0.027 C 
HETATM    2  C   UNL     1     -42.383 -46.282  10.424  1.00  0.00     0.078 C 
HETATM    3  S   UNL     1     -40.868 -46.769  11.044  1.00  0.00    -0.064 SA
HETATM    4  C   UNL     1     -41.386 -48.398  11.049  1.00  0.00     0.155 C 
HETATM    5  N   UNL     1     -42.652 -48.583  10.719  1.00  0.00    -0.339 N 
ATOM      6  HN  UNL     1     -43.151 -49.470  10.782  1.00  0.00     0.168 HD
ENDROOT
BRANCH   4   7
HETATM    7  N   UNL     1     -40.533 -49.427  11.394  1.00  0.00    -0.278 N 
HETATM    8  C   UNL     1     -39.093 -49.317  11.422  1.00  0.00     0.155 C 
HETATM    9  C   UNL     1     -38.629 -50.555  12.177  1.00  0.00     0.145 C 
HETATM   10  N   UNL     1     -39.793 -51.384  12.234  1.00  0.00    -0.341 N 
HETATM   11  C   UNL     1     -40.936 -50.675  11.881  1.00  0.00     0.324 C 
HETATM   12  H   UNL     1     -39.899 -52.223  12.792  1.00  0.00     0.164 HD
HETATM   13  O   UNL     1     -42.048 -51.138  12.062  1.00  0.00    -0.247 OA
ENDBRANCH   4   7
BRANCH   1  14
HETATM   14  C   UNL     1     -44.570 -47.400   9.672  1.00  0.00     0.167 C 
BRANCH  14  15
HETATM   15  C   UNL     1     -44.599 -47.853   8.232  1.00  0.00     0.145 C 
HETATM   16  O   UNL     1     -43.580 -48.051   7.580  1.00  0.00    -0.650 OA
BRANCH  15  17
HETATM   17  O   UNL     1     -45.830 -48.116   7.733  1.00  0.00    -0.776 OA
HETATM   18  H   UNL     1     -45.812 -48.247   6.755  1.00  0.00     0.167 HD
ENDBRANCH  15  17
ENDBRANCH  14  15
ENDBRANCH   1  14
TORSDOF 4
ENDMDL
MODEL 3
REMARK VINA RESULT:      -4.9      6.131      6.947
REMARK  4 active torsions:
REMARK  status: ('A' for Active; 'I' for Inactive)
REMARK    1  A    between atoms: O_1  and  C_2 
REMARK    2  A    between atoms: C_2  and  C_4 
REMARK    3  A    between atoms: C_4  and  C_5 
REMARK    4  A    between atoms: C_8  and  N_11 
ROOT
HETATM    1  C   UNL     1     -39.606 -49.500  11.830  1.00  0.00     0.027 C 
HETATM    2  C   UNL     1     -40.634 -48.581  11.848  1.00  0.00     0.078 C 
HETATM    3  S   UNL     1     -42.117 -49.374  12.144  1.00  0.00    -0.064 SA
HETATM    4  C   UNL     1     -41.302 -50.873  12.247  1.00  0.00     0.155 C 
HETATM    5  N   UNL     1     -40.011 -50.828  11.969  1.00  0.00    -0.339 N 
ATOM      6  HN  UNL     1     -39.403 -51.641  11.871  1.00  0.00     0.168 HD
ENDROOT
BRANCH   4   7
HETATM    7  N   UNL     1     -41.967 -52.035  12.581  1.00  0.00    -0.278 N 
HETATM    8  C   UNL     1     -43.403 -52.152  12.687  1.00  0.00     0.155 C 
HETATM    9  C   UNL     1     -43.664 -53.651  12.726  1.00  0.00     0.145 C 
HETATM   10  N   UNL     1     -42.372 -54.224  12.945  1.00  0.00    -0.341 N 
HETATM   11  C   UNL     1     -41.363 -53.287  12.742  1.00  0.00     0.324 C 
HETATM   12  H   UNL     1     -42.137 -55.207  12.878  1.00  0.00     0.164 HD
HETATM   13  O   UNL     1     -40.194 -53.622  12.678  1.00  0.00    -0.247 OA
ENDBRANCH   4   7
BRANCH   1  14
HETATM   14  C   UNL     1     -38.148 -49.207  11.695  1.00  0.00     0.167 C 
BRANCH  14  15
HETATM   15  C   UNL     1     -37.344 -50.359  11.142  1.00  0.00     0.145 C 
HETATM   16  O   UNL     1     -37.070 -51.354  11.803  1.00  0.00    -0.650 OA
BRANCH  15  17
HETATM   17  O   UNL     1     -37.019 -50.261   9.830  1.00  0.00    -0.776 OA
HETATM   18  H   UNL     1     -37.358 -49.427   9.427  1.00  0.00     0.167 HD
ENDBRANCH  15  17
ENDBRANCH  14  15
ENDBRANCH   1  14
TORSDOF 4
ENDMDL
MODEL 4
REMARK VINA RESULT:      -4.8      8.315      9.049
REMARK  4 active torsions:
REMARK  status: ('A' for Active; 'I' for Inactive)
REMARK    1  A    between atoms: O_1  and  C_2 
REMARK    2  A    between atoms: C_2  and  C_4 
REMARK    3  A    between atoms: C_4  and  C_5 
REMARK    4  A    between atoms: C_8  and  N_11 
ROOT
HETATM    1  C   UNL     1     -41.118 -53.818  14.550  1.00  0.00     0.027 C 
HETATM    2  C   UNL     1     -41.057 -54.755  15.560  1.00  0.00     0.078 C 
HETATM    3  S   UNL     1     -42.634 -55.138  16.092  1.00  0.00    -0.064 SA
HETATM    4  C   UNL     1     -43.292 -54.058  14.942  1.00  0.00     0.155 C 
HETATM    5  N   UNL     1     -42.402 -53.354  14.263  1.00  0.00    -0.339 N 
ATOM      6  HN  UNL     1     -42.622 -52.589  13.626  1.00  0.00     0.168 HD
ENDROOT
BRANCH   4   7
HETATM    7  N   UNL     1     -44.654 -53.933  14.764  1.00  0.00    -0.278 N 
HETATM    8  C   UNL     1     -45.575 -53.509  15.793  1.00  0.00     0.155 C 
HETATM    9  C   UNL     1     -46.865 -53.196  15.047  1.00  0.00     0.145 C 
HETATM   10  N   UNL     1     -46.658 -53.751  13.745  1.00  0.00    -0.341 N 
HETATM   11  C   UNL     1     -45.321 -54.078  13.542  1.00  0.00     0.324 C 
HETATM   12  H   UNL     1     -47.246 -53.603  12.934  1.00  0.00     0.164 HD
HETATM   13  O   UNL     1     -44.903 -54.371  12.436  1.00  0.00    -0.247 OA
ENDBRANCH   4   7
BRANCH   1  14
HETATM   14  C   UNL     1     -39.971 -53.287  13.753  1.00  0.00     0.167 C 
BRANCH  14  15
HETATM   15  C   UNL     1     -40.388 -52.540  12.509  1.00  0.00     0.145 C 
HETATM   16  O   UNL     1     -40.447 -51.317  12.460  1.00  0.00    -0.650 OA
BRANCH  15  17
HETATM   17  O   UNL     1     -40.609 -53.312  11.418  1.00  0.00    -0.776 OA
HETATM   18  H   UNL     1     -40.610 -54.273  11.639  1.00  0.00     0.167 HD
ENDBRANCH  15  17
ENDBRANCH  14  15
ENDBRANCH   1  14
TORSDOF 4
ENDMDL
MODEL 5
REMARK VINA RESULT:      -4.8      6.020      7.920
REMARK  4 active torsions:
REMARK  status: ('A' for Active; 'I' for Inactive)
REMARK    1  A    between atoms: O_1  and  C_2 
REMARK    2  A    between atoms: C_2  and  C_4 
REMARK    3  A    between atoms: C_4  and  C_5 
REMARK    4  A    between atoms: C_8  and  N_11 
ROOT
HETATM    1  C   UNL     1     -44.786 -51.016  13.844  1.00  0.00     0.027 C 
HETATM    2  C   UNL     1     -44.424 -50.457  15.052  1.00  0.00     0.078 C 
HETATM    3  S   UNL     1     -42.819 -49.881  14.967  1.00  0.00    -0.064 SA
HETATM    4  C   UNL     1     -42.715 -50.389  13.338  1.00  0.00     0.155 C 
HETATM    5  N   UNL     1     -43.766 -51.055  12.892  1.00  0.00    -0.339 N 
ATOM      6  HN  UNL     1     -43.822 -51.526  11.989  1.00  0.00     0.168 HD
ENDROOT
BRANCH   4   7
HETATM    7  N   UNL     1     -41.600 -50.127  12.569  1.00  0.00    -0.278 N 
HETATM    8  C   UNL     1     -40.916 -48.855  12.529  1.00  0.00     0.155 C 
HETATM    9  C   UNL     1     -39.591 -49.153  11.842  1.00  0.00     0.145 C 
HETATM   10  N   UNL     1     -39.771 -50.462  11.293  1.00  0.00    -0.341 N 
HETATM   11  C   UNL     1     -40.901 -51.079  11.819  1.00  0.00     0.324 C 
HETATM   12  H   UNL     1     -39.045 -51.045  10.894  1.00  0.00     0.164 HD
HETATM   13  O   UNL     1     -41.115 -52.265  11.638  1.00  0.00    -0.247 OA
ENDBRANCH   4   7
BRANCH   1  14
HETATM   14  C   UNL     1     -46.131 -51.549  13.473  1.00  0.00     0.167 C 
BRANCH  14  15
HETATM   15  C   UNL     1     -46.091 -52.609  12.400  1.00  0.00     0.145 C 
HETATM   16  O   UNL     1     -45.455 -53.651  12.521  1.00  0.00    -0.650 OA
BRANCH  15  17
HETATM   17  O   UNL     1     -46.880 -52.374  11.323  1.00  0.00    -0.776 OA
HETATM   18  H   UNL     1     -46.501 -52.756  10.497  1.00  0.00     0.167 HD
ENDBRANCH  15  17
ENDBRANCH  14  15
ENDBRANCH   1  14
TORSDOF 4
ENDMDL
MODEL 6
REMARK VINA RESULT:      -4.8      7.349      8.706
REMARK  4 active torsions:
REMARK  status: ('A' for Active; 'I' for Inactive)
REMARK    1  A    between atoms: O_1  and  C_2 
REMARK    2  A    between atoms: C_2  and  C_4 
REMARK    3  A    between atoms: C_4  and  C_5 
REMARK    4  A    between atoms: C_8  and  N_11 
ROOT
HETATM    1  C   UNL     1     -40.849 -53.442  14.102  1.00  0.00     0.027 C 
HETATM    2  C   UNL     1     -42.002 -53.554  13.354  1.00  0.00     0.078 C 
HETATM    3  S   UNL     1     -42.108 -52.253  12.253  1.00  0.00    -0.064 SA
HETATM    4  C   UNL     1     -40.618 -51.640  12.823  1.00  0.00     0.155 C 
HETATM    5  N   UNL     1     -40.104 -52.288  13.854  1.00  0.00    -0.339 N 
ATOM      6  HN  UNL     1     -39.287 -51.990  14.387  1.00  0.00     0.168 HD
ENDROOT
BRANCH   4   7
HETATM    7  N   UNL     1     -40.022 -50.538  12.246  1.00  0.00    -0.278 N 
HETATM    8  C   UNL     1     -40.702 -49.295  11.968  1.00  0.00     0.155 C 
HETATM    9  C   UNL     1     -39.586 -48.303  11.673  1.00  0.00     0.145 C 
HETATM   10  N   UNL     1     -38.425 -49.124  11.511  1.00  0.00    -0.341 N 
HETATM   11  C   UNL     1     -38.656 -50.420  11.963  1.00  0.00     0.324 C 
HETATM   12  H   UNL     1     -37.468 -48.798  11.452  1.00  0.00     0.164 HD
HETATM   13  O   UNL     1     -37.742 -51.213  12.101  1.00  0.00    -0.247 OA
ENDBRANCH   4   7
BRANCH   1  14
HETATM   14  C   UNL     1     -40.337 -54.421  15.108  1.00  0.00     0.167 C 
BRANCH  14  15
HETATM   15  C   UNL     1     -39.018 -55.049  14.729  1.00  0.00     0.145 C 
HETATM   16  O   UNL     1     -38.375 -55.755  15.498  1.00  0.00    -0.650 OA
BRANCH  15  17
HETATM   17  O   UNL     1     -38.631 -54.854  13.446  1.00  0.00    -0.776 OA
HETATM   18  H   UNL     1     -38.521 -53.897  13.235  1.00  0.00     0.167 HD
ENDBRANCH  15  17
ENDBRANCH  14  15
ENDBRANCH   1  14
TORSDOF 4
ENDMDL
MODEL 7
REMARK VINA RESULT:      -4.7      2.325      5.305
REMARK  4 active torsions:
REMARK  status: ('A' for Active; 'I' for Inactive)
REMARK    1  A    between atoms: O_1  and  C_2 
REMARK    2  A    between atoms: C_2  and  C_4 
REMARK    3  A    between atoms: C_4  and  C_5 
REMARK    4  A    between atoms: C_8  and  N_11 
ROOT
HETATM    1  C   UNL     1     -43.785 -47.172   9.750  1.00  0.00     0.027 C 
HETATM    2  C   UNL     1     -43.534 -47.888  10.901  1.00  0.00     0.078 C 
HETATM    3  S   UNL     1     -42.631 -46.935  11.993  1.00  0.00    -0.064 SA
HETATM    4  C   UNL     1     -42.648 -45.635  10.882  1.00  0.00     0.155 C 
HETATM    5  N   UNL     1     -43.193 -45.909   9.710  1.00  0.00    -0.339 N 
ATOM      6  HN  UNL     1     -43.182 -45.290   8.899  1.00  0.00     0.168 HD
ENDROOT
BRANCH   4   7
HETATM    7  N   UNL     1     -42.110 -44.405  11.202  1.00  0.00    -0.278 N 
HETATM    8  C   UNL     1     -40.823 -44.216  11.829  1.00  0.00     0.155 C 
HETATM    9  C   UNL     1     -40.527 -42.733  11.658  1.00  0.00     0.145 C 
HETATM   10  N   UNL     1     -41.776 -42.176  11.237  1.00  0.00    -0.341 N 
HETATM   11  C   UNL     1     -42.670 -43.171  10.857  1.00  0.00     0.324 C 
HETATM   12  H   UNL     1     -41.921 -41.237  10.885  1.00  0.00     0.164 HD
HETATM   13  O   UNL     1     -43.708 -42.900  10.278  1.00  0.00    -0.247 OA
ENDBRANCH   4   7
BRANCH   1  14
HETATM   14  C   UNL     1     -44.619 -47.608   8.590  1.00  0.00     0.167 C 
BRANCH  14  15
HETATM   15  C   UNL     1     -46.086 -47.754   8.916  1.00  0.00     0.145 C 
HETATM   16  O   UNL     1     -46.881 -46.825   8.825  1.00  0.00    -0.650 OA
BRANCH  15  17
HETATM   17  O   UNL     1     -46.486 -49.009   9.233  1.00  0.00    -0.776 OA
HETATM   18  H   UNL     1     -47.388 -49.207   8.888  1.00  0.00     0.167 HD
ENDBRANCH  15  17
ENDBRANCH  14  15
ENDBRANCH   1  14
TORSDOF 4
ENDMDL
MODEL 8
REMARK VINA RESULT:      -4.7      7.196      8.699
REMARK  4 active torsions:
REMARK  status: ('A' for Active; 'I' for Inactive)
REMARK    1  A    between atoms: O_1  and  C_2 
REMARK    2  A    between atoms: C_2  and  C_4 
REMARK    3  A    between atoms: C_4  and  C_5 
REMARK    4  A    between atoms: C_8  and  N_11 
ROOT
HETATM    1  C   UNL     1     -43.858 -52.897  14.566  1.00  0.00     0.027 C 
HETATM    2  C   UNL     1     -44.391 -51.781  15.176  1.00  0.00     0.078 C 
HETATM    3  S   UNL     1     -43.720 -50.369  14.489  1.00  0.00    -0.064 SA
HETATM    4  C   UNL     1     -42.788 -51.323  13.421  1.00  0.00     0.155 C 
HETATM    5  N   UNL     1     -42.869 -52.627  13.620  1.00  0.00    -0.339 N 
ATOM      6  HN  UNL     1     -42.295 -53.329  13.153  1.00  0.00     0.168 HD
ENDROOT
BRANCH   4   7
HETATM    7  N   UNL     1     -42.002 -50.752  12.441  1.00  0.00    -0.278 N 
HETATM    8  C   UNL     1     -42.156 -49.400  11.956  1.00  0.00     0.155 C 
HETATM    9  C   UNL     1     -40.883 -49.128  11.168  1.00  0.00     0.145 C 
HETATM   10  N   UNL     1     -40.282 -50.417  11.022  1.00  0.00    -0.341 N 
HETATM   11  C   UNL     1     -40.874 -51.350  11.867  1.00  0.00     0.324 C 
HETATM   12  H   UNL     1     -39.346 -50.603  10.680  1.00  0.00     0.164 HD
HETATM   13  O   UNL     1     -40.378 -52.448  12.043  1.00  0.00    -0.247 OA
ENDBRANCH   4   7
BRANCH   1  14
HETATM   14  C   UNL     1     -44.246 -54.319  14.809  1.00  0.00     0.167 C 
BRANCH  14  15
HETATM   15  C   UNL     1     -45.095 -54.915  13.712  1.00  0.00     0.145 C 
HETATM   16  O   UNL     1     -45.921 -55.797  13.918  1.00  0.00    -0.650 OA
BRANCH  15  17
HETATM   17  O   UNL     1     -44.946 -54.345  12.492  1.00  0.00    -0.776 OA
HETATM   18  H   UNL     1     -45.683 -53.724  12.282  1.00  0.00     0.167 HD
ENDBRANCH  15  17
ENDBRANCH  14  15
ENDBRANCH   1  14
TORSDOF 4
ENDMDL
MODEL 9
REMARK VINA RESULT:      -4.7      4.986      6.260
REMARK  4 active torsions:
REMARK  status: ('A' for Active; 'I' for Inactive)
REMARK    1  A    between atoms: O_1  and  C_2 
REMARK    2  A    between atoms: C_2  and  C_4 
REMARK    3  A    between atoms: C_4  and  C_5 
REMARK    4  A    between atoms: C_8  and  N_11 
ROOT
HETATM    1  C   UNL     1     -41.184 -50.935  12.112  1.00  0.00     0.027 C 
HETATM    2  C   UNL     1     -39.886 -50.824  12.564  1.00  0.00     0.078 C 
HETATM    3  S   UNL     1     -39.276 -49.271  12.202  1.00  0.00    -0.064 SA
HETATM    4  C   UNL     1     -40.770 -48.841  11.493  1.00  0.00     0.155 C 
HETATM    5  N   UNL     1     -41.654 -49.820  11.416  1.00  0.00    -0.339 N 
ATOM      6  HN  UNL     1     -42.545 -49.769  10.922  1.00  0.00     0.168 HD
ENDROOT
BRANCH   4   7
HETATM    7  N   UNL     1     -41.008 -47.565  11.026  1.00  0.00    -0.278 N 
HETATM    8  C   UNL     1     -40.153 -46.430  11.283  1.00  0.00     0.155 C 
HETATM    9  C   UNL     1     -40.622 -45.365  10.301  1.00  0.00     0.145 C 
HETATM   10  N   UNL     1     -41.866 -45.872   9.808  1.00  0.00    -0.341 N 
HETATM   11  C   UNL     1     -42.034 -47.212  10.142  1.00  0.00     0.324 C 
HETATM   12  H   UNL     1     -42.392 -45.501   9.026  1.00  0.00     0.164 HD
HETATM   13  O   UNL     1     -42.923 -47.880   9.645  1.00  0.00    -0.247 OA
ENDBRANCH   4   7
BRANCH   1  14
HETATM   14  C   UNL     1     -42.104 -52.095  12.311  1.00  0.00     0.167 C 
BRANCH  14  15
HETATM   15  C   UNL     1     -41.390 -53.398  12.580  1.00  0.00     0.145 C 
HETATM   16  O   UNL     1     -41.531 -54.026  13.623  1.00  0.00    -0.650 OA
BRANCH  15  17
HETATM   17  O   UNL     1     -40.649 -53.875  11.552  1.00  0.00    -0.776 OA
HETATM   18  H   UNL     1     -41.209 -54.149  10.788  1.00  0.00     0.167 HD
ENDBRANCH  15  17
ENDBRANCH  14  15
ENDBRANCH   1  14
TORSDOF 4
ENDMDL
