MODEL 1
REMARK VINA RESULT:      -6.3      0.000      0.000
REMARK  8 active torsions:
REMARK  status: ('A' for Active; 'I' for Inactive)
REMARK    1  A    between atoms: O_2  and  C_3 
REMARK    2  A    between atoms: C_3  and  C_4 
REMARK    3  A    between atoms: C_4  and  N_5 
REMARK    4  A    between atoms: N_8  and  C_9 
REMARK    5  A    between atoms: C_9  and  C_10 
REMARK    6  A    between atoms: C_10  and  O_11 
REMARK    7  A    between atoms: C_10  and  C_12 
REMARK    8  A    between atoms: C_12  and  N_13 
ROOT
HETATM    1  C   UNL     1     -41.554 -52.193  11.872  1.00  0.00     0.164 C 
ENDROOT
BRANCH   1   2
HETATM    2  C   UNL     1     -40.807 -50.828  11.800  1.00  0.00     0.305 C 
BRANCH   2   3
HETATM    3  N   UNL     1     -41.435 -49.690  12.511  1.00  0.00     0.094 N 
HETATM    4  C   UNL     1     -42.377 -48.907  11.683  1.00  0.00     0.302 C 
HETATM    5  C   UNL     1     -41.690 -48.118  10.540  1.00  0.00     0.302 C 
HETATM    6  N   UNL     1     -40.660 -47.165  11.015  1.00  0.00     0.093 N 
HETATM    7  C   UNL     1     -39.736 -47.861  11.930  1.00  0.00     0.302 C 
HETATM    8  C   UNL     1     -40.406 -48.745  13.017  1.00  0.00     0.302 C 
BRANCH   6   9
HETATM    9  C   UNL     1     -41.315 -45.974  11.596  1.00  0.00     0.298 C 
BRANCH   9  10
HETATM   10  C   UNL     1     -42.282 -45.187  10.695  1.00  0.00     0.197 C 
BRANCH  10  11
HETATM   11  O   UNL     1     -42.033 -43.784  10.769  1.00  0.00    -0.394 OA
HETATM   12  C   UNL     1     -40.686 -43.521  11.138  1.00  0.00     0.201 C 
ENDBRANCH  10  11
ENDBRANCH   9  10
ENDBRANCH   6   9
ENDBRANCH   2   3
ENDBRANCH   1   2
BRANCH   1  13
HETATM   13  O   UNL     1     -40.680 -53.282  11.552  1.00  0.00    -0.392 OA
HETATM   14  H   UNL     1     -40.033 -52.982  10.893  1.00  0.00     0.210 HD
ENDBRANCH   1  13
BRANCH   1  15
HETATM   15  C   UNL     1     -42.089 -52.426  13.293  1.00  0.00     0.163 C 
BRANCH  15  16
HETATM   16  N   UNL     1     -43.530 -52.584  13.332  1.00  0.00    -0.339 N 
HETATM   17  C   UNL     1     -44.255 -53.384  12.490  1.00  0.00     0.184 A 
HETATM   18  N   UNL     1     -45.530 -53.394  12.803  1.00  0.00    -0.350 N 
HETATM   19  C   UNL     1     -45.634 -52.565  13.890  1.00  0.00     0.060 A 
ATOM     20  HN  UNL     1     -46.280 -53.905  12.338  1.00  0.00     0.166 HD
HETATM   21  C   UNL     1     -46.765 -52.226  14.644  1.00  0.00     0.039 A 
HETATM   22  C   UNL     1     -44.396 -52.036  14.243  1.00  0.00     0.062 A 
HETATM   23  C   UNL     1     -46.631 -51.382  15.765  1.00  0.00    -0.054 A 
HETATM   24  C   UNL     1     -47.861 -51.082  16.577  1.00  0.00     0.049 C 
HETATM   25  C   UNL     1     -45.364 -50.862  16.105  1.00  0.00    -0.054 A 
HETATM   26  C   UNL     1     -45.134 -50.008  17.326  1.00  0.00     0.049 C 
HETATM   27  C   UNL     1     -44.229 -51.169  15.325  1.00  0.00     0.039 A 
ENDBRANCH  15  16
ENDBRANCH   1  15
TORSDOF 8
ENDMDL
MODEL 2
REMARK VINA RESULT:      -6.0      1.616      2.273
REMARK  8 active torsions:
REMARK  status: ('A' for Active; 'I' for Inactive)
REMARK    1  A    between atoms: O_2  and  C_3 
REMARK    2  A    between atoms: C_3  and  C_4 
REMARK    3  A    between atoms: C_4  and  N_5 
REMARK    4  A    between atoms: N_8  and  C_9 
REMARK    5  A    between atoms: C_9  and  C_10 
REMARK    6  A    between atoms: C_10  and  O_11 
REMARK    7  A    between atoms: C_10  and  C_12 
REMARK    8  A    between atoms: C_12  and  N_13 
ROOT
HETATM    1  C   UNL     1     -41.234 -52.780  12.422  1.00  0.00     0.164 C 
ENDROOT
BRANCH   1   2
HETATM    2  C   UNL     1     -40.347 -51.723  13.146  1.00  0.00     0.305 C 
BRANCH   2   3
HETATM    3  N   UNL     1     -40.987 -50.426  13.464  1.00  0.00     0.094 N 
HETATM    4  C   UNL     1     -41.719 -49.821  12.330  1.00  0.00     0.302 C 
HETATM    5  C   UNL     1     -40.797 -49.350  11.177  1.00  0.00     0.302 C 
HETATM    6  N   UNL     1     -39.784 -48.355  11.599  1.00  0.00     0.093 N 
HETATM    7  C   UNL     1     -39.076 -48.855  12.793  1.00  0.00     0.302 C 
HETATM    8  C   UNL     1     -39.980 -49.432  13.917  1.00  0.00     0.302 C 
BRANCH   6   9
HETATM    9  C   UNL     1     -40.425 -47.035  11.776  1.00  0.00     0.298 C 
BRANCH   9  10
HETATM   10  C   UNL     1     -41.317 -46.522  10.631  1.00  0.00     0.197 C 
BRANCH  10  11
HETATM   11  O   UNL     1     -41.021 -45.163  10.315  1.00  0.00    -0.394 OA
HETATM   12  C   UNL     1     -39.621 -44.960  10.183  1.00  0.00     0.201 C 
ENDBRANCH  10  11
ENDBRANCH   9  10
ENDBRANCH   6   9
ENDBRANCH   2   3
ENDBRANCH   1   2
BRANCH   1  13
HETATM   13  O   UNL     1     -40.597 -53.267  11.234  1.00  0.00    -0.392 OA
HETATM   14  H   UNL     1     -40.697 -54.232  11.198  1.00  0.00     0.210 HD
ENDBRANCH   1  13
BRANCH   1  15
HETATM   15  C   UNL     1     -41.479 -53.982  13.346  1.00  0.00     0.163 C 
BRANCH  15  16
HETATM   16  N   UNL     1     -42.288 -53.646  14.502  1.00  0.00    -0.339 N 
HETATM   17  C   UNL     1     -41.879 -53.754  15.805  1.00  0.00     0.184 A 
HETATM   18  N   UNL     1     -42.788 -53.308  16.640  1.00  0.00    -0.350 N 
HETATM   19  C   UNL     1     -43.828 -52.896  15.845  1.00  0.00     0.060 A 
ATOM     20  HN  UNL     1     -42.733 -53.275  17.657  1.00  0.00     0.166 HD
HETATM   21  C   UNL     1     -45.050 -52.318  16.211  1.00  0.00     0.039 A 
HETATM   22  C   UNL     1     -43.546 -53.101  14.498  1.00  0.00     0.062 A 
HETATM   23  C   UNL     1     -45.963 -51.924  15.213  1.00  0.00    -0.054 A 
HETATM   24  C   UNL     1     -47.243 -51.262  15.645  1.00  0.00     0.049 C 
HETATM   25  C   UNL     1     -45.654 -52.138  13.852  1.00  0.00    -0.054 A 
HETATM   26  C   UNL     1     -46.551 -51.684  12.730  1.00  0.00     0.049 C 
HETATM   27  C   UNL     1     -44.441 -52.757  13.482  1.00  0.00     0.039 A 
ENDBRANCH  15  16
ENDBRANCH   1  15
TORSDOF 8
ENDMDL
MODEL 3
REMARK VINA RESULT:      -5.9      2.876      3.525
REMARK  8 active torsions:
REMARK  status: ('A' for Active; 'I' for Inactive)
REMARK    1  A    between atoms: O_2  and  C_3 
REMARK    2  A    between atoms: C_3  and  C_4 
REMARK    3  A    between atoms: C_4  and  N_5 
REMARK    4  A    between atoms: N_8  and  C_9 
REMARK    5  A    between atoms: C_9  and  C_10 
REMARK    6  A    between atoms: C_10  and  O_11 
REMARK    7  A    between atoms: C_10  and  C_12 
REMARK    8  A    between atoms: C_12  and  N_13 
ROOT
HETATM    1  C   UNL     1     -38.387 -51.119  12.944  1.00  0.00     0.164 C 
ENDROOT
BRANCH   1   2
HETATM    2  C   UNL     1     -38.300 -49.826  13.809  1.00  0.00     0.305 C 
BRANCH   2   3
HETATM    3  N   UNL     1     -38.196 -48.543  13.075  1.00  0.00     0.094 N 
HETATM    4  C   UNL     1     -38.576 -47.359  13.875  1.00  0.00     0.302 C 
HETATM    5  C   UNL     1     -40.083 -47.305  14.227  1.00  0.00     0.302 C 
HETATM    6  N   UNL     1     -40.969 -47.308  13.040  1.00  0.00     0.093 N 
HETATM    7  C   UNL     1     -40.580 -48.414  12.143  1.00  0.00     0.302 C 
HETATM    8  C   UNL     1     -39.058 -48.550  11.866  1.00  0.00     0.302 C 
BRANCH   6   9
HETATM    9  C   UNL     1     -40.954 -45.973  12.404  1.00  0.00     0.298 C 
BRANCH   9  10
HETATM   10  C   UNL     1     -41.613 -45.841  11.020  1.00  0.00     0.197 C 
BRANCH  10  11
HETATM   11  O   UNL     1     -40.946 -44.865  10.221  1.00  0.00    -0.394 OA
HETATM   12  C   UNL     1     -39.554 -44.833  10.506  1.00  0.00     0.201 C 
ENDBRANCH  10  11
ENDBRANCH   9  10
ENDBRANCH   6   9
ENDBRANCH   2   3
ENDBRANCH   1   2
BRANCH   1  13
HETATM   13  O   UNL     1     -37.088 -51.678  12.712  1.00  0.00    -0.392 OA
HETATM   14  H   UNL     1     -37.121 -52.223  11.908  1.00  0.00     0.210 HD
ENDBRANCH   1  13
BRANCH   1  15
HETATM   15  C   UNL     1     -39.229 -52.180  13.669  1.00  0.00     0.163 C 
BRANCH  15  16
HETATM   16  N   UNL     1     -40.532 -52.374  13.062  1.00  0.00    -0.339 N 
HETATM   17  C   UNL     1     -40.907 -51.890  11.837  1.00  0.00     0.184 A 
HETATM   18  N   UNL     1     -42.116 -52.282  11.507  1.00  0.00    -0.350 N 
HETATM   19  C   UNL     1     -42.540 -53.049  12.563  1.00  0.00     0.060 A 
ATOM     20  HN  UNL     1     -42.628 -52.064  10.653  1.00  0.00     0.166 HD
HETATM   21  C   UNL     1     -43.749 -53.733  12.733  1.00  0.00     0.039 A 
HETATM   22  C   UNL     1     -41.570 -53.120  13.558  1.00  0.00     0.062 A 
HETATM   23  C   UNL     1     -43.957 -54.509  13.891  1.00  0.00    -0.054 A 
HETATM   24  C   UNL     1     -45.249 -55.269  14.014  1.00  0.00     0.049 C 
HETATM   25  C   UNL     1     -42.956 -54.569  14.885  1.00  0.00    -0.054 A 
HETATM   26  C   UNL     1     -43.080 -55.428  16.117  1.00  0.00     0.049 C 
HETATM   27  C   UNL     1     -41.752 -53.849  14.735  1.00  0.00     0.039 A 
ENDBRANCH  15  16
ENDBRANCH   1  15
TORSDOF 8
ENDMDL
MODEL 4
REMARK VINA RESULT:      -5.6      3.438      8.156
REMARK  8 active torsions:
REMARK  status: ('A' for Active; 'I' for Inactive)
REMARK    1  A    between atoms: O_2  and  C_3 
REMARK    2  A    between atoms: C_3  and  C_4 
REMARK    3  A    between atoms: C_4  and  N_5 
REMARK    4  A    between atoms: N_8  and  C_9 
REMARK    5  A    between atoms: C_9  and  C_10 
REMARK    6  A    between atoms: C_10  and  O_11 
REMARK    7  A    between atoms: C_10  and  C_12 
REMARK    8  A    between atoms: C_12  and  N_13 
ROOT
HETATM    1  C   UNL     1     -40.395 -50.063  11.555  1.00  0.00     0.164 C 
ENDROOT
BRANCH   1   2
HETATM    2  C   UNL     1     -40.526 -51.508  12.121  1.00  0.00     0.305 C 
BRANCH   2   3
HETATM    3  N   UNL     1     -40.992 -51.632  13.522  1.00  0.00     0.094 N 
HETATM    4  C   UNL     1     -39.910 -51.892  14.496  1.00  0.00     0.302 C 
HETATM    5  C   UNL     1     -39.259 -53.289  14.343  1.00  0.00     0.302 C 
HETATM    6  N   UNL     1     -40.220 -54.408  14.479  1.00  0.00     0.093 N 
HETATM    7  C   UNL     1     -41.380 -54.165  13.600  1.00  0.00     0.302 C 
HETATM    8  C   UNL     1     -41.979 -52.733  13.660  1.00  0.00     0.302 C 
BRANCH   6   9
HETATM    9  C   UNL     1     -40.563 -54.599  15.904  1.00  0.00     0.298 C 
BRANCH   9  10
HETATM   10  C   UNL     1     -40.060 -55.884  16.587  1.00  0.00     0.197 C 
BRANCH  10  11
HETATM   11  O   UNL     1     -38.843 -56.338  15.999  1.00  0.00    -0.394 OA
HETATM   12  C   UNL     1     -37.714 -55.839  16.703  1.00  0.00     0.201 C 
ENDBRANCH  10  11
ENDBRANCH   9  10
ENDBRANCH   6   9
ENDBRANCH   2   3
ENDBRANCH   1   2
BRANCH   1  13
HETATM   13  O   UNL     1     -40.043 -50.080  10.166  1.00  0.00    -0.392 OA
HETATM   14  H   UNL     1     -39.803 -49.179   9.893  1.00  0.00     0.210 HD
ENDBRANCH   1  13
BRANCH   1  15
HETATM   15  C   UNL     1     -41.733 -49.322  11.689  1.00  0.00     0.163 C 
BRANCH  15  16
HETATM   16  N   UNL     1     -41.699 -47.993  11.111  1.00  0.00    -0.339 N 
HETATM   17  C   UNL     1     -42.320 -47.626   9.947  1.00  0.00     0.184 A 
HETATM   18  N   UNL     1     -42.185 -46.343   9.705  1.00  0.00    -0.350 N 
HETATM   19  C   UNL     1     -41.445 -45.860  10.754  1.00  0.00     0.060 A 
ATOM     20  HN  UNL     1     -42.550 -45.819   8.910  1.00  0.00     0.166 HD
HETATM   21  C   UNL     1     -41.024 -44.551  11.015  1.00  0.00     0.039 A 
HETATM   22  C   UNL     1     -41.120 -46.873  11.651  1.00  0.00     0.062 A 
HETATM   23  C   UNL     1     -40.304 -44.270  12.194  1.00  0.00    -0.054 A 
HETATM   24  C   UNL     1     -39.912 -42.843  12.462  1.00  0.00     0.049 C 
HETATM   25  C   UNL     1     -39.989 -45.314  13.091  1.00  0.00    -0.054 A 
HETATM   26  C   UNL     1     -39.281 -45.078  14.401  1.00  0.00     0.049 C 
HETATM   27  C   UNL     1     -40.378 -46.641  12.811  1.00  0.00     0.039 A 
ENDBRANCH  15  16
ENDBRANCH   1  15
TORSDOF 8
ENDMDL
MODEL 5
REMARK VINA RESULT:      -5.6      2.885      3.619
REMARK  8 active torsions:
REMARK  status: ('A' for Active; 'I' for Inactive)
REMARK    1  A    between atoms: O_2  and  C_3 
REMARK    2  A    between atoms: C_3  and  C_4 
REMARK    3  A    between atoms: C_4  and  N_5 
REMARK    4  A    between atoms: N_8  and  C_9 
REMARK    5  A    between atoms: C_9  and  C_10 
REMARK    6  A    between atoms: C_10  and  O_11 
REMARK    7  A    between atoms: C_10  and  C_12 
REMARK    8  A    between atoms: C_12  and  N_13 
ROOT
HETATM    1  C   UNL     1     -39.648 -50.432  13.621  1.00  0.00     0.164 C 
ENDROOT
BRANCH   1   2
HETATM    2  C   UNL     1     -39.585 -49.044  12.917  1.00  0.00     0.305 C 
BRANCH   2   3
HETATM    3  N   UNL     1     -40.775 -48.174  13.058  1.00  0.00     0.094 N 
HETATM    4  C   UNL     1     -41.940 -48.612  12.259  1.00  0.00     0.302 C 
HETATM    5  C   UNL     1     -41.732 -48.475  10.731  1.00  0.00     0.302 C 
HETATM    6  N   UNL     1     -41.424 -47.093  10.296  1.00  0.00     0.093 N 
HETATM    7  C   UNL     1     -40.326 -46.554  11.122  1.00  0.00     0.302 C 
HETATM    8  C   UNL     1     -40.466 -46.778  12.652  1.00  0.00     0.302 C 
BRANCH   6   9
HETATM    9  C   UNL     1     -42.659 -46.279  10.314  1.00  0.00     0.298 C 
BRANCH   9  10
HETATM   10  C   UNL     1     -43.429 -46.132   8.990  1.00  0.00     0.197 C 
BRANCH  10  11
HETATM   11  O   UNL     1     -44.162 -47.317   8.684  1.00  0.00    -0.394 OA
HETATM   12  C   UNL     1     -43.611 -47.985   7.557  1.00  0.00     0.201 C 
ENDBRANCH  10  11
ENDBRANCH   9  10
ENDBRANCH   6   9
ENDBRANCH   2   3
ENDBRANCH   1   2
BRANCH   1  13
HETATM   13  O   UNL     1     -40.598 -50.428  14.693  1.00  0.00    -0.392 OA
HETATM   14  H   UNL     1     -41.362 -50.971  14.437  1.00  0.00     0.210 HD
ENDBRANCH   1  13
BRANCH   1  15
HETATM   15  C   UNL     1     -40.081 -51.511  12.617  1.00  0.00     0.163 C 
BRANCH  15  16
HETATM   16  N   UNL     1     -40.641 -52.684  13.261  1.00  0.00    -0.339 N 
HETATM   17  C   UNL     1     -39.941 -53.553  14.056  1.00  0.00     0.184 A 
HETATM   18  N   UNL     1     -40.717 -54.480  14.567  1.00  0.00    -0.350 N 
HETATM   19  C   UNL     1     -41.969 -54.202  14.081  1.00  0.00     0.060 A 
ATOM     20  HN  UNL     1     -40.448 -55.242  15.189  1.00  0.00     0.166 HD
HETATM   21  C   UNL     1     -43.181 -54.860  14.320  1.00  0.00     0.039 A 
HETATM   22  C   UNL     1     -41.952 -53.083  13.253  1.00  0.00     0.062 A 
HETATM   23  C   UNL     1     -44.370 -54.367  13.747  1.00  0.00    -0.054 A 
HETATM   24  C   UNL     1     -45.659 -55.074  14.068  1.00  0.00     0.049 C 
HETATM   25  C   UNL     1     -44.329 -53.228  12.913  1.00  0.00    -0.054 A 
HETATM   26  C   UNL     1     -45.567 -52.606  12.320  1.00  0.00     0.049 C 
HETATM   27  C   UNL     1     -43.103 -52.585  12.638  1.00  0.00     0.039 A 
ENDBRANCH  15  16
ENDBRANCH   1  15
TORSDOF 8
ENDMDL
MODEL 6
REMARK VINA RESULT:      -5.6      1.963      3.192
REMARK  8 active torsions:
REMARK  status: ('A' for Active; 'I' for Inactive)
REMARK    1  A    between atoms: O_2  and  C_3 
REMARK    2  A    between atoms: C_3  and  C_4 
REMARK    3  A    between atoms: C_4  and  N_5 
REMARK    4  A    between atoms: N_8  and  C_9 
REMARK    5  A    between atoms: C_9  and  C_10 
REMARK    6  A    between atoms: C_10  and  O_11 
REMARK    7  A    between atoms: C_10  and  C_12 
REMARK    8  A    between atoms: C_12  and  N_13 
ROOT
HETATM    1  C   UNL     1     -41.367 -49.397  11.171  1.00  0.00     0.164 C 
ENDROOT
BRANCH   1   2
HETATM    2  C   UNL     1     -41.145 -47.859  11.269  1.00  0.00     0.305 C 
BRANCH   2   3
HETATM    3  N   UNL     1     -42.355 -47.007  11.196  1.00  0.00     0.094 N 
HETATM    4  C   UNL     1     -42.186 -45.790  10.373  1.00  0.00     0.302 C 
HETATM    5  C   UNL     1     -41.210 -44.756  10.987  1.00  0.00     0.302 C 
HETATM    6  N   UNL     1     -41.608 -44.295  12.337  1.00  0.00     0.093 N 
HETATM    7  C   UNL     1     -41.888 -45.465  13.190  1.00  0.00     0.302 C 
HETATM    8  C   UNL     1     -42.778 -46.565  12.549  1.00  0.00     0.302 C 
BRANCH   6   9
HETATM    9  C   UNL     1     -42.730 -43.338  12.225  1.00  0.00     0.298 C 
BRANCH   9  10
HETATM   10  C   UNL     1     -42.735 -42.392  11.011  1.00  0.00     0.197 C 
BRANCH  10  11
HETATM   11  O   UNL     1     -42.645 -41.028  11.418  1.00  0.00    -0.394 OA
HETATM   12  C   UNL     1     -41.323 -40.700  11.824  1.00  0.00     0.201 C 
ENDBRANCH  10  11
ENDBRANCH   9  10
ENDBRANCH   6   9
ENDBRANCH   2   3
ENDBRANCH   1   2
BRANCH   1  13
HETATM   13  O   UNL     1     -40.463 -49.995  10.234  1.00  0.00    -0.392 OA
HETATM   14  H   UNL     1     -40.385 -49.415   9.459  1.00  0.00     0.210 HD
ENDBRANCH   1  13
BRANCH   1  15
HETATM   15  C   UNL     1     -41.123 -50.052  12.539  1.00  0.00     0.163 C 
BRANCH  15  16
HETATM   16  N   UNL     1     -41.569 -51.431  12.589  1.00  0.00    -0.339 N 
HETATM   17  C   UNL     1     -40.791 -52.520  12.298  1.00  0.00     0.184 A 
HETATM   18  N   UNL     1     -41.432 -53.646  12.501  1.00  0.00    -0.350 N 
HETATM   19  C   UNL     1     -42.677 -53.272  12.940  1.00  0.00     0.060 A 
ATOM     20  HN  UNL     1     -41.082 -54.594  12.363  1.00  0.00     0.166 HD
HETATM   21  C   UNL     1     -43.760 -54.071  13.324  1.00  0.00     0.039 A 
HETATM   22  C   UNL     1     -42.795 -51.887  13.000  1.00  0.00     0.062 A 
HETATM   23  C   UNL     1     -44.943 -53.466  13.793  1.00  0.00    -0.054 A 
HETATM   24  C   UNL     1     -46.067 -54.359  14.242  1.00  0.00     0.049 C 
HETATM   25  C   UNL     1     -45.039 -52.058  13.849  1.00  0.00    -0.054 A 
HETATM   26  C   UNL     1     -46.246 -51.343  14.400  1.00  0.00     0.049 C 
HETATM   27  C   UNL     1     -43.963 -51.250  13.426  1.00  0.00     0.039 A 
ENDBRANCH  15  16
ENDBRANCH   1  15
TORSDOF 8
ENDMDL
MODEL 7
REMARK VINA RESULT:      -5.6      3.292      4.187
REMARK  8 active torsions:
REMARK  status: ('A' for Active; 'I' for Inactive)
REMARK    1  A    between atoms: O_2  and  C_3 
REMARK    2  A    between atoms: C_3  and  C_4 
REMARK    3  A    between atoms: C_4  and  N_5 
REMARK    4  A    between atoms: N_8  and  C_9 
REMARK    5  A    between atoms: C_9  and  C_10 
REMARK    6  A    between atoms: C_10  and  O_11 
REMARK    7  A    between atoms: C_10  and  C_12 
REMARK    8  A    between atoms: C_12  and  N_13 
ROOT
HETATM    1  C   UNL     1     -41.882 -51.941  12.285  1.00  0.00     0.164 C 
ENDROOT
BRANCH   1   2
HETATM    2  C   UNL     1     -40.744 -51.019  12.816  1.00  0.00     0.305 C 
BRANCH   2   3
HETATM    3  N   UNL     1     -40.087 -51.434  14.077  1.00  0.00     0.094 N 
HETATM    4  C   UNL     1     -39.977 -50.356  15.083  1.00  0.00     0.302 C 
HETATM    5  C   UNL     1     -39.003 -49.223  14.675  1.00  0.00     0.302 C 
HETATM    6  N   UNL     1     -37.623 -49.694  14.416  1.00  0.00     0.093 N 
HETATM    7  C   UNL     1     -37.664 -50.840  13.488  1.00  0.00     0.302 C 
HETATM    8  C   UNL     1     -38.713 -51.936  13.821  1.00  0.00     0.302 C 
BRANCH   6   9
HETATM    9  C   UNL     1     -36.942 -49.970  15.699  1.00  0.00     0.298 C 
BRANCH   9  10
HETATM   10  C   UNL     1     -37.097 -48.928  16.821  1.00  0.00     0.197 C 
BRANCH  10  11
HETATM   11  O   UNL     1     -35.900 -48.815  17.589  1.00  0.00    -0.394 OA
HETATM   12  C   UNL     1     -35.327 -47.522  17.459  1.00  0.00     0.201 C 
ENDBRANCH  10  11
ENDBRANCH   9  10
ENDBRANCH   6   9
ENDBRANCH   2   3
ENDBRANCH   1   2
BRANCH   1  13
HETATM   13  O   UNL     1     -41.459 -52.678  11.132  1.00  0.00    -0.392 OA
HETATM   14  H   UNL     1     -41.891 -53.547  11.139  1.00  0.00     0.210 HD
ENDBRANCH   1  13
BRANCH   1  15
HETATM   15  C   UNL     1     -42.283 -52.956  13.366  1.00  0.00     0.163 C 
BRANCH  15  16
HETATM   16  N   UNL     1     -43.720 -53.084  13.511  1.00  0.00    -0.339 N 
HETATM   17  C   UNL     1     -44.499 -53.994  12.847  1.00  0.00     0.184 A 
HETATM   18  N   UNL     1     -45.753 -53.935  13.229  1.00  0.00    -0.350 N 
HETATM   19  C   UNL     1     -45.788 -52.944  14.178  1.00  0.00     0.060 A 
ATOM     20  HN  UNL     1     -46.532 -54.501  12.894  1.00  0.00     0.166 HD
HETATM   21  C   UNL     1     -46.870 -52.475  14.931  1.00  0.00     0.039 A 
HETATM   22  C   UNL     1     -44.528 -52.387  14.372  1.00  0.00     0.062 A 
HETATM   23  C   UNL     1     -46.666 -51.468  15.896  1.00  0.00    -0.054 A 
HETATM   24  C   UNL     1     -47.844 -51.026  16.720  1.00  0.00     0.049 C 
HETATM   25  C   UNL     1     -45.378 -50.920  16.079  1.00  0.00    -0.054 A 
HETATM   26  C   UNL     1     -45.071 -49.890  17.135  1.00  0.00     0.049 C 
HETATM   27  C   UNL     1     -44.293 -51.363  15.293  1.00  0.00     0.039 A 
ENDBRANCH  15  16
ENDBRANCH   1  15
TORSDOF 8
ENDMDL
MODEL 8
REMARK VINA RESULT:      -5.5      3.014      7.479
REMARK  8 active torsions:
REMARK  status: ('A' for Active; 'I' for Inactive)
REMARK    1  A    between atoms: O_2  and  C_3 
REMARK    2  A    between atoms: C_3  and  C_4 
REMARK    3  A    between atoms: C_4  and  N_5 
REMARK    4  A    between atoms: N_8  and  C_9 
REMARK    5  A    between atoms: C_9  and  C_10 
REMARK    6  A    between atoms: C_10  and  O_11 
REMARK    7  A    between atoms: C_10  and  C_12 
REMARK    8  A    between atoms: C_12  and  N_13 
ROOT
HETATM    1  C   UNL     1     -38.577 -50.583  12.398  1.00  0.00     0.164 C 
ENDROOT
BRANCH   1   2
HETATM    2  C   UNL     1     -39.481 -51.555  13.213  1.00  0.00     0.305 C 
BRANCH   2   3
HETATM    3  N   UNL     1     -40.933 -51.515  12.919  1.00  0.00     0.094 N 
HETATM    4  C   UNL     1     -41.772 -51.137  14.077  1.00  0.00     0.302 C 
HETATM    5  C   UNL     1     -41.792 -52.201  15.203  1.00  0.00     0.302 C 
HETATM    6  N   UNL     1     -42.272 -53.528  14.754  1.00  0.00     0.093 N 
HETATM    7  C   UNL     1     -41.540 -53.928  13.537  1.00  0.00     0.302 C 
HETATM    8  C   UNL     1     -41.416 -52.836  12.440  1.00  0.00     0.302 C 
BRANCH   6   9
HETATM    9  C   UNL     1     -43.743 -53.500  14.601  1.00  0.00     0.298 C 
BRANCH   9  10
HETATM   10  C   UNL     1     -44.408 -54.720  13.939  1.00  0.00     0.197 C 
BRANCH  10  11
HETATM   11  O   UNL     1     -45.269 -54.323  12.873  1.00  0.00    -0.394 OA
HETATM   12  C   UNL     1     -45.158 -52.931  12.614  1.00  0.00     0.201 C 
ENDBRANCH  10  11
ENDBRANCH   9  10
ENDBRANCH   6   9
ENDBRANCH   2   3
ENDBRANCH   1   2
BRANCH   1  13
HETATM   13  O   UNL     1     -37.673 -51.302  11.550  1.00  0.00    -0.392 OA
HETATM   14  H   UNL     1     -38.187 -51.787  10.884  1.00  0.00     0.210 HD
ENDBRANCH   1  13
BRANCH   1  15
HETATM   15  C   UNL     1     -39.444 -49.686  11.502  1.00  0.00     0.163 C 
BRANCH  15  16
HETATM   16  N   UNL     1     -39.662 -48.369  12.069  1.00  0.00    -0.339 N 
HETATM   17  C   UNL     1     -38.948 -47.833  13.108  1.00  0.00     0.184 A 
HETATM   18  N   UNL     1     -39.309 -46.598  13.362  1.00  0.00    -0.350 N 
HETATM   19  C   UNL     1     -40.298 -46.323  12.452  1.00  0.00     0.060 A 
ATOM     20  HN  UNL     1     -38.937 -45.977  14.080  1.00  0.00     0.166 HD
HETATM   21  C   UNL     1     -41.023 -45.141  12.259  1.00  0.00     0.039 A 
HETATM   22  C   UNL     1     -40.546 -47.418  11.629  1.00  0.00     0.062 A 
HETATM   23  C   UNL     1     -41.971 -45.065  11.218  1.00  0.00    -0.054 A 
HETATM   24  C   UNL     1     -42.695 -43.762  11.013  1.00  0.00     0.049 C 
HETATM   25  C   UNL     1     -42.203 -46.188  10.395  1.00  0.00    -0.054 A 
HETATM   26  C   UNL     1     -43.152 -46.159   9.224  1.00  0.00     0.049 C 
HETATM   27  C   UNL     1     -41.502 -47.392  10.612  1.00  0.00     0.039 A 
ENDBRANCH  15  16
ENDBRANCH   1  15
TORSDOF 8
ENDMDL
MODEL 9
REMARK VINA RESULT:      -5.5      2.901      7.431
REMARK  8 active torsions:
REMARK  status: ('A' for Active; 'I' for Inactive)
REMARK    1  A    between atoms: O_2  and  C_3 
REMARK    2  A    between atoms: C_3  and  C_4 
REMARK    3  A    between atoms: C_4  and  N_5 
REMARK    4  A    between atoms: N_8  and  C_9 
REMARK    5  A    between atoms: C_9  and  C_10 
REMARK    6  A    between atoms: C_10  and  O_11 
REMARK    7  A    between atoms: C_10  and  C_12 
REMARK    8  A    between atoms: C_12  and  N_13 
ROOT
HETATM    1  C   UNL     1     -39.721 -50.415  14.230  1.00  0.00     0.164 C 
ENDROOT
BRANCH   1   2
HETATM    2  C   UNL     1     -39.792 -51.960  14.411  1.00  0.00     0.305 C 
BRANCH   2   3
HETATM    3  N   UNL     1     -40.620 -52.706  13.434  1.00  0.00     0.094 N 
HETATM    4  C   UNL     1     -42.008 -52.208  13.317  1.00  0.00     0.302 C 
HETATM    5  C   UNL     1     -42.864 -52.455  14.584  1.00  0.00     0.302 C 
HETATM    6  N   UNL     1     -42.963 -53.883  14.964  1.00  0.00     0.093 N 
HETATM    7  C   UNL     1     -41.611 -54.472  15.006  1.00  0.00     0.302 C 
HETATM    8  C   UNL     1     -40.699 -54.145  13.792  1.00  0.00     0.302 C 
BRANCH   6   9
HETATM    9  C   UNL     1     -43.903 -54.575  14.057  1.00  0.00     0.298 C 
BRANCH   9  10
HETATM   10  C   UNL     1     -45.310 -53.971  13.901  1.00  0.00     0.197 C 
BRANCH  10  11
HETATM   11  O   UNL     1     -45.582 -53.638  12.541  1.00  0.00    -0.394 OA
HETATM   12  C   UNL     1     -46.184 -52.355  12.438  1.00  0.00     0.201 C 
ENDBRANCH  10  11
ENDBRANCH   9  10
ENDBRANCH   6   9
ENDBRANCH   2   3
ENDBRANCH   1   2
BRANCH   1  13
HETATM   13  O   UNL     1     -39.041 -49.793  15.327  1.00  0.00    -0.392 OA
HETATM   14  H   UNL     1     -39.625 -49.801  16.103  1.00  0.00     0.210 HD
ENDBRANCH   1  13
BRANCH   1  15
HETATM   15  C   UNL     1     -38.950 -50.071  12.947  1.00  0.00     0.163 C 
BRANCH  15  16
HETATM   16  N   UNL     1     -39.728 -49.269  12.022  1.00  0.00    -0.339 N 
HETATM   17  C   UNL     1     -40.513 -49.770  11.017  1.00  0.00     0.184 A 
HETATM   18  N   UNL     1     -41.162 -48.820  10.386  1.00  0.00    -0.350 N 
HETATM   19  C   UNL     1     -40.780 -47.657  11.005  1.00  0.00     0.060 A 
ATOM     20  HN  UNL     1     -41.809 -48.924   9.605  1.00  0.00     0.166 HD
HETATM   21  C   UNL     1     -41.182 -46.341  10.749  1.00  0.00     0.039 A 
HETATM   22  C   UNL     1     -39.875 -47.906  12.033  1.00  0.00     0.062 A 
HETATM   23  C   UNL     1     -40.692 -45.291  11.551  1.00  0.00    -0.054 A 
HETATM   24  C   UNL     1     -41.186 -43.898  11.275  1.00  0.00     0.049 C 
HETATM   25  C   UNL     1     -39.778 -45.569  12.591  1.00  0.00    -0.054 A 
HETATM   26  C   UNL     1     -39.263 -44.508  13.529  1.00  0.00     0.049 C 
HETATM   27  C   UNL     1     -39.340 -46.889  12.826  1.00  0.00     0.039 A 
ENDBRANCH  15  16
ENDBRANCH   1  15
TORSDOF 8
ENDMDL
