MODEL 1
REMARK VINA RESULT:      -6.6      0.000      0.000
REMARK  6 active torsions:
REMARK  status: ('A' for Active; 'I' for Inactive)
REMARK    1  A    between atoms: N_6  and  C_7 
REMARK    2  A    between atoms: C_7  and  C_8 
REMARK    3  A    between atoms: C_8  and  O_9 
REMARK    4  A    between atoms: C_8  and  C_10 
REMARK    5  A    between atoms: C_10  and  O_11 
REMARK    6  A    between atoms: O_11  and  C_12 
ROOT
HETATM    1  C   UNL     1     -40.745 -52.195  12.545  1.00  0.00     0.161 C 
ENDROOT
BRANCH   1   2
HETATM    2  C   UNL     1     -39.496 -51.298  12.584  1.00  0.00     0.166 C 
BRANCH   2   3
HETATM    3  N   UNL     1     -39.776 -49.914  12.227  1.00  0.00    -0.307 N 
HETATM    4  C   UNL     1     -40.486 -49.625  11.095  1.00  0.00     0.186 A 
HETATM    5  N   UNL     1     -40.755 -48.438  10.674  1.00  0.00    -0.355 N 
HETATM    6  C   UNL     1     -40.309 -47.384  11.431  1.00  0.00     0.017 A 
ATOM      7  HN  UNL     1     -41.279 -48.287   9.813  1.00  0.00     0.166 HD
HETATM    8  C   UNL     1     -40.623 -46.028  10.855  1.00  0.00     0.069 C 
HETATM    9  C   UNL     1     -39.646 -47.520  12.597  1.00  0.00     0.028 A 
HETATM   10  C   UNL     1     -39.366 -48.904  13.068  1.00  0.00     0.256 A 
HETATM   11  C   UNL     1     -39.167 -46.379  13.439  1.00  0.00     0.056 C 
HETATM   12  O   UNL     1     -38.789 -49.110  14.134  1.00  0.00    -0.267 OA
ENDBRANCH   2   3
ENDBRANCH   1   2
BRANCH   1  13
HETATM   13  O   UNL     1     -40.525 -53.248  11.593  1.00  0.00    -0.392 OA
HETATM   14  H   UNL     1     -39.723 -53.736  11.844  1.00  0.00     0.210 HD
ENDBRANCH   1  13
BRANCH   1  15
HETATM   15  C   UNL     1     -40.984 -52.758  13.957  1.00  0.00     0.209 C 
BRANCH  15  16
HETATM   16  O   UNL     1     -42.206 -52.272  14.500  1.00  0.00    -0.348 OA
BRANCH  16  17
HETATM   17  C   UNL     1     -43.348 -53.025  14.219  1.00  0.00     0.081 A 
HETATM   18  C   UNL     1     -43.184 -54.388  14.531  1.00  0.00     0.038 A 
HETATM   19  C   UNL     1     -44.207 -55.309  14.326  1.00  0.00     0.005 A 
HETATM   20  C   UNL     1     -45.431 -54.906  13.800  1.00  0.00     0.030 A 
HETATM   21  C   UNL     1     -45.597 -53.549  13.494  1.00  0.00     0.045 A 
HETATM   22  N   UNL     1     -46.703 -52.911  12.978  1.00  0.00    -0.365 N 
HETATM   23  C   UNL     1     -44.592 -52.589  13.683  1.00  0.00     0.025 A 
HETATM   24  C   UNL     1     -46.456 -51.578  12.831  1.00  0.00     0.089 A 
HETATM   25  H   UNL     1     -47.572 -53.373  12.746  1.00  0.00     0.165 HD
HETATM   26  C   UNL     1     -45.166 -51.350  13.248  1.00  0.00     0.033 A 
ENDBRANCH  16  17
ENDBRANCH  15  16
ENDBRANCH   1  15
TORSDOF 6
ENDMDL
MODEL 2
REMARK VINA RESULT:      -6.5      2.520      4.423
REMARK  6 active torsions:
REMARK  status: ('A' for Active; 'I' for Inactive)
REMARK    1  A    between atoms: N_6  and  C_7 
REMARK    2  A    between atoms: C_7  and  C_8 
REMARK    3  A    between atoms: C_8  and  O_9 
REMARK    4  A    between atoms: C_8  and  C_10 
REMARK    5  A    between atoms: C_10  and  O_11 
REMARK    6  A    between atoms: O_11  and  C_12 
ROOT
HETATM    1  C   UNL     1     -41.087 -51.061  11.882  1.00  0.00     0.161 C 
ENDROOT
BRANCH   1   2
HETATM    2  C   UNL     1     -41.569 -50.094  12.977  1.00  0.00     0.166 C 
BRANCH   2   3
HETATM    3  N   UNL     1     -42.814 -50.515  13.604  1.00  0.00    -0.307 N 
HETATM    4  C   UNL     1     -43.979 -50.513  12.888  1.00  0.00     0.186 A 
HETATM    5  N   UNL     1     -45.135 -50.833  13.358  1.00  0.00    -0.355 N 
HETATM    6  C   UNL     1     -45.196 -51.222  14.673  1.00  0.00     0.017 A 
ATOM      7  HN  UNL     1     -45.971 -50.799  12.777  1.00  0.00     0.166 HD
HETATM    8  C   UNL     1     -46.586 -51.538  15.162  1.00  0.00     0.069 C 
HETATM    9  C   UNL     1     -44.121 -51.324  15.480  1.00  0.00     0.028 A 
HETATM   10  C   UNL     1     -42.796 -50.967  14.904  1.00  0.00     0.256 A 
HETATM   11  C   UNL     1     -44.173 -51.761  16.910  1.00  0.00     0.056 C 
HETATM   12  O   UNL     1     -41.766 -51.059  15.569  1.00  0.00    -0.267 OA
ENDBRANCH   2   3
ENDBRANCH   1   2
BRANCH   1  13
HETATM   13  O   UNL     1     -40.455 -50.298  10.842  1.00  0.00    -0.392 OA
HETATM   14  H   UNL     1     -40.959 -49.480  10.700  1.00  0.00     0.210 HD
ENDBRANCH   1  13
BRANCH   1  15
HETATM   15  C   UNL     1     -40.106 -52.063  12.516  1.00  0.00     0.209 C 
BRANCH  15  16
HETATM   16  O   UNL     1     -40.566 -53.400  12.352  1.00  0.00    -0.348 OA
BRANCH  16  17
HETATM   17  C   UNL     1     -41.304 -53.932  13.412  1.00  0.00     0.081 A 
HETATM   18  C   UNL     1     -40.506 -54.208  14.539  1.00  0.00     0.038 A 
HETATM   19  C   UNL     1     -41.052 -54.743  15.702  1.00  0.00     0.005 A 
HETATM   20  C   UNL     1     -42.413 -55.024  15.785  1.00  0.00     0.030 A 
HETATM   21  C   UNL     1     -43.208 -54.745  14.666  1.00  0.00     0.045 A 
HETATM   22  N   UNL     1     -44.564 -54.924  14.506  1.00  0.00    -0.365 N 
HETATM   23  C   UNL     1     -42.699 -54.208  13.474  1.00  0.00     0.025 A 
HETATM   24  C   UNL     1     -44.952 -54.521  13.263  1.00  0.00     0.089 A 
HETATM   25  H   UNL     1     -45.177 -55.300  15.216  1.00  0.00     0.165 HD
HETATM   26  C   UNL     1     -43.829 -54.083  12.602  1.00  0.00     0.033 A 
ENDBRANCH  16  17
ENDBRANCH  15  16
ENDBRANCH   1  15
TORSDOF 6
ENDMDL
MODEL 3
REMARK VINA RESULT:      -6.4      4.378      6.380
REMARK  6 active torsions:
REMARK  status: ('A' for Active; 'I' for Inactive)
REMARK    1  A    between atoms: N_6  and  C_7 
REMARK    2  A    between atoms: C_7  and  C_8 
REMARK    3  A    between atoms: C_8  and  O_9 
REMARK    4  A    between atoms: C_8  and  C_10 
REMARK    5  A    between atoms: C_10  and  O_11 
REMARK    6  A    between atoms: O_11  and  C_12 
ROOT
HETATM    1  C   UNL     1     -46.064 -52.384  12.544  1.00  0.00     0.161 C 
ENDROOT
BRANCH   1   2
HETATM    2  C   UNL     1     -45.689 -53.700  13.248  1.00  0.00     0.166 C 
BRANCH   2   3
HETATM    3  N   UNL     1     -44.255 -53.852  13.448  1.00  0.00    -0.307 N 
HETATM    4  C   UNL     1     -43.376 -53.387  12.509  1.00  0.00     0.186 A 
HETATM    5  N   UNL     1     -42.095 -53.503  12.575  1.00  0.00    -0.355 N 
HETATM    6  C   UNL     1     -41.573 -54.125  13.682  1.00  0.00     0.017 A 
ATOM      7  HN  UNL     1     -41.492 -53.147  11.835  1.00  0.00     0.166 HD
HETATM    8  C   UNL     1     -40.073 -54.263  13.667  1.00  0.00     0.069 C 
HETATM    9  C   UNL     1     -42.316 -54.582  14.710  1.00  0.00     0.028 A 
HETATM   10  C   UNL     1     -43.792 -54.416  14.615  1.00  0.00     0.256 A 
HETATM   11  C   UNL     1     -41.759 -55.248  15.928  1.00  0.00     0.056 C 
HETATM   12  O   UNL     1     -44.535 -54.784  15.524  1.00  0.00    -0.267 OA
ENDBRANCH   2   3
ENDBRANCH   1   2
BRANCH   1  13
HETATM   13  O   UNL     1     -46.915 -52.687  11.427  1.00  0.00    -0.392 OA
HETATM   14  H   UNL     1     -46.765 -53.609  11.159  1.00  0.00     0.210 HD
ENDBRANCH   1  13
BRANCH   1  15
HETATM   15  C   UNL     1     -46.778 -51.475  13.561  1.00  0.00     0.209 C 
BRANCH  15  16
HETATM   16  O   UNL     1     -46.937 -52.135  14.811  1.00  0.00    -0.348 OA
BRANCH  16  17
HETATM   17  C   UNL     1     -46.716 -51.358  15.950  1.00  0.00     0.081 A 
HETATM   18  C   UNL     1     -47.888 -51.168  16.708  1.00  0.00     0.038 A 
HETATM   19  C   UNL     1     -47.881 -50.422  17.883  1.00  0.00     0.005 A 
HETATM   20  C   UNL     1     -46.706 -49.837  18.346  1.00  0.00     0.030 A 
HETATM   21  C   UNL     1     -45.539 -50.029  17.596  1.00  0.00     0.045 A 
HETATM   22  N   UNL     1     -44.268 -49.565  17.847  1.00  0.00    -0.365 N 
HETATM   23  C   UNL     1     -45.502 -50.771  16.406  1.00  0.00     0.025 A 
HETATM   24  C   UNL     1     -43.410 -49.980  16.872  1.00  0.00     0.089 A 
HETATM   25  H   UNL     1     -44.014 -48.998  18.645  1.00  0.00     0.165 HD
HETATM   26  C   UNL     1     -44.139 -50.717  15.969  1.00  0.00     0.033 A 
ENDBRANCH  16  17
ENDBRANCH  15  16
ENDBRANCH   1  15
TORSDOF 6
ENDMDL
MODEL 4
REMARK VINA RESULT:      -6.4      0.882      1.881
REMARK  6 active torsions:
REMARK  status: ('A' for Active; 'I' for Inactive)
REMARK    1  A    between atoms: N_6  and  C_7 
REMARK    2  A    between atoms: C_7  and  C_8 
REMARK    3  A    between atoms: C_8  and  O_9 
REMARK    4  A    between atoms: C_8  and  C_10 
REMARK    5  A    between atoms: C_10  and  O_11 
REMARK    6  A    between atoms: O_11  and  C_12 
ROOT
HETATM    1  C   UNL     1     -40.892 -52.616  12.489  1.00  0.00     0.161 C 
ENDROOT
BRANCH   1   2
HETATM    2  C   UNL     1     -39.704 -51.747  12.937  1.00  0.00     0.166 C 
BRANCH   2   3
HETATM    3  N   UNL     1     -39.828 -50.355  12.528  1.00  0.00    -0.307 N 
HETATM    4  C   UNL     1     -40.402 -50.040  11.328  1.00  0.00     0.186 A 
HETATM    5  N   UNL     1     -40.527 -48.846  10.860  1.00  0.00    -0.355 N 
HETATM    6  C   UNL     1     -40.064 -47.813  11.635  1.00  0.00     0.017 A 
ATOM      7  HN  UNL     1     -40.955 -48.675   9.950  1.00  0.00     0.166 HD
HETATM    8  C   UNL     1     -40.204 -46.452  11.004  1.00  0.00     0.069 C 
HETATM    9  C   UNL     1     -39.526 -47.972  12.861  1.00  0.00     0.028 A 
HETATM   10  C   UNL     1     -39.412 -49.361  13.383  1.00  0.00     0.256 A 
HETATM   11  C   UNL     1     -39.030 -46.853  13.721  1.00  0.00     0.056 C 
HETATM   12  O   UNL     1     -38.956 -49.585  14.503  1.00  0.00    -0.267 OA
ENDBRANCH   2   3
ENDBRANCH   1   2
BRANCH   1  13
HETATM   13  O   UNL     1     -40.501 -53.366  11.328  1.00  0.00    -0.392 OA
HETATM   14  H   UNL     1     -40.750 -52.868  10.532  1.00  0.00     0.210 HD
ENDBRANCH   1  13
BRANCH   1  15
HETATM   15  C   UNL     1     -41.279 -53.547  13.652  1.00  0.00     0.209 C 
BRANCH  15  16
HETATM   16  O   UNL     1     -41.887 -52.814  14.710  1.00  0.00    -0.348 OA
BRANCH  16  17
HETATM   17  C   UNL     1     -43.257 -52.573  14.585  1.00  0.00     0.081 A 
HETATM   18  C   UNL     1     -43.580 -51.212  14.738  1.00  0.00     0.038 A 
HETATM   19  C   UNL     1     -44.894 -50.762  14.648  1.00  0.00     0.005 A 
HETATM   20  C   UNL     1     -45.935 -51.654  14.404  1.00  0.00     0.030 A 
HETATM   21  C   UNL     1     -45.614 -53.008  14.247  1.00  0.00     0.045 A 
HETATM   22  N   UNL     1     -46.454 -54.069  13.993  1.00  0.00    -0.365 N 
HETATM   23  C   UNL     1     -44.305 -53.503  14.332  1.00  0.00     0.025 A 
HETATM   24  C   UNL     1     -45.741 -55.228  13.905  1.00  0.00     0.089 A 
HETATM   25  H   UNL     1     -47.457 -53.990  13.886  1.00  0.00     0.165 HD
HETATM   26  C   UNL     1     -44.419 -54.915  14.116  1.00  0.00     0.033 A 
ENDBRANCH  16  17
ENDBRANCH  15  16
ENDBRANCH   1  15
TORSDOF 6
ENDMDL
MODEL 5
REMARK VINA RESULT:      -6.3      1.980      7.231
REMARK  6 active torsions:
REMARK  status: ('A' for Active; 'I' for Inactive)
REMARK    1  A    between atoms: N_6  and  C_7 
REMARK    2  A    between atoms: C_7  and  C_8 
REMARK    3  A    between atoms: C_8  and  O_9 
REMARK    4  A    between atoms: C_8  and  C_10 
REMARK    5  A    between atoms: C_10  and  O_11 
REMARK    6  A    between atoms: O_11  and  C_12 
ROOT
HETATM    1  C   UNL     1     -40.964 -53.004  12.542  1.00  0.00     0.161 C 
ENDROOT
BRANCH   1   2
HETATM    2  C   UNL     1     -42.218 -52.161  12.250  1.00  0.00     0.166 C 
BRANCH   2   3
HETATM    3  N   UNL     1     -43.407 -52.652  12.933  1.00  0.00    -0.307 N 
HETATM    4  C   UNL     1     -43.550 -53.988  13.191  1.00  0.00     0.186 A 
HETATM    5  N   UNL     1     -44.575 -54.525  13.756  1.00  0.00    -0.355 N 
HETATM    6  C   UNL     1     -45.593 -53.689  14.143  1.00  0.00     0.017 A 
ATOM      7  HN  UNL     1     -44.629 -55.531  13.910  1.00  0.00     0.166 HD
HETATM    8  C   UNL     1     -46.775 -54.394  14.756  1.00  0.00     0.069 C 
HETATM    9  C   UNL     1     -45.563 -52.349  14.002  1.00  0.00     0.028 A 
HETATM   10  C   UNL     1     -44.357 -51.755  13.364  1.00  0.00     0.256 A 
HETATM   11  C   UNL     1     -46.659 -51.426  14.433  1.00  0.00     0.056 C 
HETATM   12  O   UNL     1     -44.244 -50.538  13.223  1.00  0.00    -0.267 OA
ENDBRANCH   2   3
ENDBRANCH   1   2
BRANCH   1  13
HETATM   13  O   UNL     1     -40.462 -53.524  11.300  1.00  0.00    -0.392 OA
HETATM   14  H   UNL     1     -40.193 -54.449  11.432  1.00  0.00     0.210 HD
ENDBRANCH   1  13
BRANCH   1  15
HETATM   15  C   UNL     1     -39.924 -52.105  13.233  1.00  0.00     0.209 C 
BRANCH  15  16
HETATM   16  O   UNL     1     -39.214 -51.321  12.280  1.00  0.00    -0.348 OA
BRANCH  16  17
HETATM   17  C   UNL     1     -39.228 -49.940  12.486  1.00  0.00     0.081 A 
HETATM   18  C   UNL     1     -40.101 -49.273  11.606  1.00  0.00     0.038 A 
HETATM   19  C   UNL     1     -40.260 -47.891  11.649  1.00  0.00     0.005 A 
HETATM   20  C   UNL     1     -39.553 -47.122  12.569  1.00  0.00     0.030 A 
HETATM   21  C   UNL     1     -38.688 -47.786  13.449  1.00  0.00     0.045 A 
HETATM   22  N   UNL     1     -37.895 -47.255  14.442  1.00  0.00    -0.365 N 
HETATM   23  C   UNL     1     -38.497 -49.175  13.439  1.00  0.00     0.025 A 
HETATM   24  C   UNL     1     -37.205 -48.244  15.077  1.00  0.00     0.089 A 
HETATM   25  H   UNL     1     -37.841 -46.270  14.664  1.00  0.00     0.165 HD
HETATM   26  C   UNL     1     -37.546 -49.434  14.479  1.00  0.00     0.033 A 
ENDBRANCH  16  17
ENDBRANCH  15  16
ENDBRANCH   1  15
TORSDOF 6
ENDMDL
MODEL 6
REMARK VINA RESULT:      -6.3      1.688      6.734
REMARK  6 active torsions:
REMARK  status: ('A' for Active; 'I' for Inactive)
REMARK    1  A    between atoms: N_6  and  C_7 
REMARK    2  A    between atoms: C_7  and  C_8 
REMARK    3  A    between atoms: C_8  and  O_9 
REMARK    4  A    between atoms: C_8  and  C_10 
REMARK    5  A    between atoms: C_10  and  O_11 
REMARK    6  A    between atoms: O_11  and  C_12 
ROOT
HETATM    1  C   UNL     1     -41.304 -53.476  12.552  1.00  0.00     0.161 C 
ENDROOT
BRANCH   1   2
HETATM    2  C   UNL     1     -42.470 -52.497  12.334  1.00  0.00     0.166 C 
BRANCH   2   3
HETATM    3  N   UNL     1     -43.688 -52.896  13.026  1.00  0.00    -0.307 N 
HETATM    4  C   UNL     1     -43.963 -54.221  13.225  1.00  0.00     0.186 A 
HETATM    5  N   UNL     1     -45.025 -54.677  13.793  1.00  0.00    -0.355 N 
HETATM    6  C   UNL     1     -45.941 -53.761  14.247  1.00  0.00     0.017 A 
ATOM      7  HN  UNL     1     -45.180 -55.679  13.901  1.00  0.00     0.166 HD
HETATM    8  C   UNL     1     -47.176 -54.370  14.859  1.00  0.00     0.069 C 
HETATM    9  C   UNL     1     -45.775 -52.426  14.167  1.00  0.00     0.028 A 
HETATM   10  C   UNL     1     -44.529 -51.928  13.524  1.00  0.00     0.256 A 
HETATM   11  C   UNL     1     -46.759 -51.418  14.671  1.00  0.00     0.056 C 
HETATM   12  O   UNL     1     -44.294 -50.724  13.437  1.00  0.00    -0.267 OA
ENDBRANCH   2   3
ENDBRANCH   1   2
BRANCH   1  13
HETATM   13  O   UNL     1     -40.500 -53.505  11.362  1.00  0.00    -0.392 OA
HETATM   14  H   UNL     1     -40.926 -54.084  10.707  1.00  0.00     0.210 HD
ENDBRANCH   1  13
BRANCH   1  15
HETATM   15  C   UNL     1     -40.488 -52.998  13.766  1.00  0.00     0.209 C 
BRANCH  15  16
HETATM   16  O   UNL     1     -40.613 -51.592  13.942  1.00  0.00    -0.348 OA
BRANCH  16  17
HETATM   17  C   UNL     1     -39.741 -50.797  13.196  1.00  0.00     0.081 A 
HETATM   18  C   UNL     1     -38.418 -51.278  13.222  1.00  0.00     0.038 A 
HETATM   19  C   UNL     1     -37.394 -50.629  12.539  1.00  0.00     0.005 A 
HETATM   20  C   UNL     1     -37.650 -49.474  11.805  1.00  0.00     0.030 A 
HETATM   21  C   UNL     1     -38.967 -48.997  11.774  1.00  0.00     0.045 A 
HETATM   22  N   UNL     1     -39.468 -47.893  11.121  1.00  0.00    -0.365 N 
HETATM   23  C   UNL     1     -40.027 -49.619  12.449  1.00  0.00     0.025 A 
HETATM   24  C   UNL     1     -40.809 -47.780  11.342  1.00  0.00     0.089 A 
HETATM   25  H   UNL     1     -38.914 -47.262  10.558  1.00  0.00     0.165 HD
HETATM   26  C   UNL     1     -41.181 -48.820  12.160  1.00  0.00     0.033 A 
ENDBRANCH  16  17
ENDBRANCH  15  16
ENDBRANCH   1  15
TORSDOF 6
ENDMDL
MODEL 7
REMARK VINA RESULT:      -6.3      1.361      1.596
REMARK  6 active torsions:
REMARK  status: ('A' for Active; 'I' for Inactive)
REMARK    1  A    between atoms: N_6  and  C_7 
REMARK    2  A    between atoms: C_7  and  C_8 
REMARK    3  A    between atoms: C_8  and  O_9 
REMARK    4  A    between atoms: C_8  and  C_10 
REMARK    5  A    between atoms: C_10  and  O_11 
REMARK    6  A    between atoms: O_11  and  C_12 
ROOT
HETATM    1  C   UNL     1     -40.682 -51.437  12.254  1.00  0.00     0.161 C 
ENDROOT
BRANCH   1   2
HETATM    2  C   UNL     1     -41.040 -50.175  13.059  1.00  0.00     0.166 C 
BRANCH   2   3
HETATM    3  N   UNL     1     -41.431 -49.053  12.217  1.00  0.00    -0.307 N 
HETATM    4  C   UNL     1     -42.719 -48.945  11.771  1.00  0.00     0.186 A 
HETATM    5  N   UNL     1     -43.156 -48.012  10.997  1.00  0.00    -0.355 N 
HETATM    6  C   UNL     1     -42.264 -47.047  10.605  1.00  0.00     0.017 A 
ATOM      7  HN  UNL     1     -44.128 -47.993  10.687  1.00  0.00     0.166 HD
HETATM    8  C   UNL     1     -42.836 -46.016   9.666  1.00  0.00     0.069 C 
HETATM    9  C   UNL     1     -40.980 -46.998  11.012  1.00  0.00     0.028 A 
HETATM   10  C   UNL     1     -40.508 -48.076  11.922  1.00  0.00     0.256 A 
HETATM   11  C   UNL     1     -40.001 -45.942  10.603  1.00  0.00     0.056 C 
HETATM   12  O   UNL     1     -39.357 -48.086  12.356  1.00  0.00    -0.267 OA
ENDBRANCH   2   3
ENDBRANCH   1   2
BRANCH   1  13
HETATM   13  O   UNL     1     -39.286 -51.387  11.919  1.00  0.00    -0.392 OA
HETATM   14  H   UNL     1     -39.135 -50.648  11.306  1.00  0.00     0.210 HD
ENDBRANCH   1  13
BRANCH   1  15
HETATM   15  C   UNL     1     -41.007 -52.670  13.114  1.00  0.00     0.209 C 
BRANCH  15  16
HETATM   16  O   UNL     1     -41.995 -52.364  14.092  1.00  0.00    -0.348 OA
BRANCH  16  17
HETATM   17  C   UNL     1     -43.188 -53.086  14.009  1.00  0.00     0.081 A 
HETATM   18  C   UNL     1     -43.024 -54.440  14.357  1.00  0.00     0.038 A 
HETATM   19  C   UNL     1     -44.093 -55.331  14.340  1.00  0.00     0.005 A 
HETATM   20  C   UNL     1     -45.367 -54.904  13.974  1.00  0.00     0.030 A 
HETATM   21  C   UNL     1     -45.532 -53.556  13.632  1.00  0.00     0.045 A 
HETATM   22  N   UNL     1     -46.680 -52.900  13.247  1.00  0.00    -0.365 N 
HETATM   23  C   UNL     1     -44.482 -52.627  13.634  1.00  0.00     0.025 A 
HETATM   24  C   UNL     1     -46.416 -51.584  13.006  1.00  0.00     0.089 A 
HETATM   25  H   UNL     1     -47.587 -53.338  13.161  1.00  0.00     0.165 HD
HETATM   26  C   UNL     1     -45.073 -51.386  13.227  1.00  0.00     0.033 A 
ENDBRANCH  16  17
ENDBRANCH  15  16
ENDBRANCH   1  15
TORSDOF 6
ENDMDL
MODEL 8
REMARK VINA RESULT:      -6.3      2.002      6.552
REMARK  6 active torsions:
REMARK  status: ('A' for Active; 'I' for Inactive)
REMARK    1  A    between atoms: N_6  and  C_7 
REMARK    2  A    between atoms: C_7  and  C_8 
REMARK    3  A    between atoms: C_8  and  O_9 
REMARK    4  A    between atoms: C_8  and  C_10 
REMARK    5  A    between atoms: C_10  and  O_11 
REMARK    6  A    between atoms: O_11  and  C_12 
ROOT
HETATM    1  C   UNL     1     -40.847 -53.977  15.125  1.00  0.00     0.161 C 
ENDROOT
BRANCH   1   2
HETATM    2  C   UNL     1     -41.455 -54.511  13.816  1.00  0.00     0.166 C 
BRANCH   2   3
HETATM    3  N   UNL     1     -42.782 -53.978  13.543  1.00  0.00    -0.307 N 
HETATM    4  C   UNL     1     -42.943 -52.963  12.641  1.00  0.00     0.186 A 
HETATM    5  N   UNL     1     -44.066 -52.401  12.355  1.00  0.00    -0.355 N 
HETATM    6  C   UNL     1     -45.187 -52.868  12.994  1.00  0.00     0.017 A 
ATOM      7  HN  UNL     1     -44.120 -51.638  11.681  1.00  0.00     0.166 HD
HETATM    8  C   UNL     1     -46.454 -52.133  12.642  1.00  0.00     0.069 C 
HETATM    9  C   UNL     1     -45.185 -53.898  13.864  1.00  0.00     0.028 A 
HETATM   10  C   UNL     1     -43.876 -54.541  14.160  1.00  0.00     0.256 A 
HETATM   11  C   UNL     1     -46.402 -54.426  14.556  1.00  0.00     0.056 C 
HETATM   12  O   UNL     1     -43.796 -55.502  14.923  1.00  0.00    -0.267 OA
ENDBRANCH   2   3
ENDBRANCH   1   2
BRANCH   1  13
HETATM   13  O   UNL     1     -40.419 -55.093  15.922  1.00  0.00    -0.392 OA
HETATM   14  H   UNL     1     -39.608 -54.847  16.397  1.00  0.00     0.210 HD
ENDBRANCH   1  13
BRANCH   1  15
HETATM   15  C   UNL     1     -39.667 -53.055  14.772  1.00  0.00     0.209 C 
BRANCH  15  16
HETATM   16  O   UNL     1     -40.104 -51.714  14.587  1.00  0.00    -0.348 OA
BRANCH  16  17
HETATM   17  C   UNL     1     -39.540 -51.025  13.511  1.00  0.00     0.081 A 
HETATM   18  C   UNL     1     -38.160 -51.268  13.380  1.00  0.00     0.038 A 
HETATM   19  C   UNL     1     -37.410 -50.675  12.369  1.00  0.00     0.005 A 
HETATM   20  C   UNL     1     -38.008 -49.816  11.451  1.00  0.00     0.030 A 
HETATM   21  C   UNL     1     -39.382 -49.577  11.578  1.00  0.00     0.045 A 
HETATM   22  N   UNL     1     -40.194 -48.783  10.798  1.00  0.00    -0.365 N 
HETATM   23  C   UNL     1     -40.174 -50.152  12.582  1.00  0.00     0.025 A 
HETATM   24  C   UNL     1     -41.478 -48.826  11.255  1.00  0.00     0.089 A 
HETATM   25  H   UNL     1     -39.876 -48.250  10.001  1.00  0.00     0.165 HD
HETATM   26  C   UNL     1     -41.498 -49.652  12.354  1.00  0.00     0.033 A 
ENDBRANCH  16  17
ENDBRANCH  15  16
ENDBRANCH   1  15
TORSDOF 6
ENDMDL
MODEL 9
REMARK VINA RESULT:      -6.2      2.411      6.908
REMARK  6 active torsions:
REMARK  status: ('A' for Active; 'I' for Inactive)
REMARK    1  A    between atoms: N_6  and  C_7 
REMARK    2  A    between atoms: C_7  and  C_8 
REMARK    3  A    between atoms: C_8  and  O_9 
REMARK    4  A    between atoms: C_8  and  C_10 
REMARK    5  A    between atoms: C_10  and  O_11 
REMARK    6  A    between atoms: O_11  and  C_12 
ROOT
HETATM    1  C   UNL     1     -40.385 -51.064  12.097  1.00  0.00     0.161 C 
ENDROOT
BRANCH   1   2
HETATM    2  C   UNL     1     -41.156 -50.930  13.422  1.00  0.00     0.166 C 
BRANCH   2   3
HETATM    3  N   UNL     1     -42.313 -51.811  13.501  1.00  0.00    -0.307 N 
HETATM    4  C   UNL     1     -42.157 -53.119  13.866  1.00  0.00     0.186 A 
HETATM    5  N   UNL     1     -43.109 -53.986  13.932  1.00  0.00    -0.355 N 
HETATM    6  C   UNL     1     -44.376 -53.556  13.629  1.00  0.00     0.017 A 
ATOM      7  HN  UNL     1     -42.927 -54.952  14.199  1.00  0.00     0.166 HD
HETATM    8  C   UNL     1     -45.427 -54.634  13.686  1.00  0.00     0.069 C 
HETATM    9  C   UNL     1     -44.684 -52.283  13.308  1.00  0.00     0.028 A 
HETATM   10  C   UNL     1     -43.568 -51.300  13.259  1.00  0.00     0.256 A 
HETATM   11  C   UNL     1     -46.064 -51.799  12.990  1.00  0.00     0.056 C 
HETATM   12  O   UNL     1     -43.772 -50.116  12.999  1.00  0.00    -0.267 OA
ENDBRANCH   2   3
ENDBRANCH   1   2
BRANCH   1  13
HETATM   13  O   UNL     1     -41.155 -51.877  11.198  1.00  0.00    -0.392 OA
HETATM   14  H   UNL     1     -40.651 -52.683  10.992  1.00  0.00     0.210 HD
ENDBRANCH   1  13
BRANCH   1  15
HETATM   15  C   UNL     1     -40.158 -49.655  11.522  1.00  0.00     0.209 C 
BRANCH  15  16
HETATM   16  O   UNL     1     -41.257 -49.251  10.715  1.00  0.00    -0.348 OA
BRANCH  16  17
HETATM   17  C   UNL     1     -41.515 -47.879  10.666  1.00  0.00     0.081 A 
HETATM   18  C   UNL     1     -40.520 -47.121  11.314  1.00  0.00     0.038 A 
HETATM   19  C   UNL     1     -40.590 -45.732  11.377  1.00  0.00     0.005 A 
HETATM   20  C   UNL     1     -41.656 -45.048  10.799  1.00  0.00     0.030 A 
HETATM   21  C   UNL     1     -42.643 -45.800  10.150  1.00  0.00     0.045 A 
HETATM   22  N   UNL     1     -43.776 -45.360   9.503  1.00  0.00    -0.365 N 
HETATM   23  C   UNL     1     -42.612 -47.200  10.065  1.00  0.00     0.025 A 
HETATM   24  C   UNL     1     -44.475 -46.417   8.999  1.00  0.00     0.089 A 
HETATM   25  H   UNL     1     -44.043 -44.389   9.417  1.00  0.00     0.165 HD
HETATM   26  C   UNL     1     -43.791 -47.561   9.334  1.00  0.00     0.033 A 
ENDBRANCH  16  17
ENDBRANCH  15  16
ENDBRANCH   1  15
TORSDOF 6
ENDMDL
