MODEL 1
REMARK VINA RESULT:      -7.0      0.000      0.000
REMARK  5 active torsions:
REMARK  status: ('A' for Active; 'I' for Inactive)
REMARK       I    between atoms: C_2  and  N_4 
REMARK    1  A    between atoms: N_7  and  C_8 
REMARK    2  A    between atoms: C_8  and  C_9 
REMARK    3  A    between atoms: C_9  and  O_10 
REMARK    4  A    between atoms: C_9  and  C_11 
REMARK    5  A    between atoms: C_11  and  N_12 
ROOT
HETATM    1  C   UNL     1     -41.346 -52.054  11.880  1.00  0.00     0.164 C 
ENDROOT
BRANCH   1   2
HETATM    2  C   UNL     1     -40.600 -50.701  11.788  1.00  0.00     0.305 C 
BRANCH   2   3
HETATM    3  N   UNL     1     -41.195 -49.610  12.586  1.00  0.00     0.094 N 
HETATM    4  C   UNL     1     -42.329 -48.974  11.870  1.00  0.00     0.292 C 
HETATM    5  C   UNL     1     -41.917 -48.127  10.648  1.00  0.00     0.156 C 
HETATM    6  N   UNL     1     -40.867 -47.162  10.985  1.00  0.00    -0.349 N 
HETATM    7  C   UNL     1     -40.946 -45.878  10.476  1.00  0.00     0.215 C 
HETATM    8  C   UNL     1     -39.737 -47.705  11.749  1.00  0.00     0.156 C 
HETATM    9  C   UNL     1     -39.797 -44.947  10.764  1.00  0.00     0.117 C 
HETATM   10  O   UNL     1     -41.903 -45.488   9.807  1.00  0.00    -0.274 OA
HETATM   11  C   UNL     1     -40.227 -48.547  12.945  1.00  0.00     0.292 C 
ENDBRANCH   2   3
ENDBRANCH   1   2
BRANCH   1  12
HETATM   12  O   UNL     1     -40.520 -53.122  11.404  1.00  0.00    -0.392 OA
HETATM   13  H   UNL     1     -39.598 -52.819  11.374  1.00  0.00     0.210 HD
ENDBRANCH   1  12
BRANCH   1  14
HETATM   14  C   UNL     1     -41.762 -52.328  13.330  1.00  0.00     0.163 C 
BRANCH  14  15
HETATM   15  N   UNL     1     -43.173 -52.651  13.428  1.00  0.00    -0.339 N 
HETATM   16  C   UNL     1     -43.843 -53.485  12.577  1.00  0.00     0.184 A 
HETATM   17  N   UNL     1     -45.122 -53.546  12.867  1.00  0.00    -0.350 N 
HETATM   18  C   UNL     1     -45.287 -52.695  13.931  1.00  0.00     0.060 A 
ATOM     19  HN  UNL     1     -45.838 -54.104  12.402  1.00  0.00     0.166 HD
HETATM   20  C   UNL     1     -46.459 -52.346  14.617  1.00  0.00     0.039 A 
HETATM   21  C   UNL     1     -44.076 -52.131  14.320  1.00  0.00     0.062 A 
HETATM   22  C   UNL     1     -46.398 -51.442  15.696  1.00  0.00    -0.054 A 
HETATM   23  C   UNL     1     -47.680 -51.092  16.398  1.00  0.00     0.049 C 
HETATM   24  C   UNL     1     -45.156 -50.893  16.084  1.00  0.00    -0.054 A 
HETATM   25  C   UNL     1     -45.019 -49.928  17.233  1.00  0.00     0.049 C 
HETATM   26  C   UNL     1     -43.975 -51.237  15.392  1.00  0.00     0.039 A 
ENDBRANCH  14  15
ENDBRANCH   1  14
TORSDOF 5
ENDMDL
MODEL 2
REMARK VINA RESULT:      -6.5      2.080      2.963
REMARK  5 active torsions:
REMARK  status: ('A' for Active; 'I' for Inactive)
REMARK       I    between atoms: C_2  and  N_4 
REMARK    1  A    between atoms: N_7  and  C_8 
REMARK    2  A    between atoms: C_8  and  C_9 
REMARK    3  A    between atoms: C_9  and  O_10 
REMARK    4  A    between atoms: C_9  and  C_11 
REMARK    5  A    between atoms: C_11  and  N_12 
ROOT
HETATM    1  C   UNL     1     -41.282 -49.725  11.331  1.00  0.00     0.164 C 
ENDROOT
BRANCH   1   2
HETATM    2  C   UNL     1     -41.375 -48.191  11.525  1.00  0.00     0.305 C 
BRANCH   2   3
HETATM    3  N   UNL     1     -42.745 -47.673  11.709  1.00  0.00     0.094 N 
HETATM    4  C   UNL     1     -43.210 -46.939  10.505  1.00  0.00     0.292 C 
HETATM    5  C   UNL     1     -42.512 -45.583  10.276  1.00  0.00     0.156 C 
HETATM    6  N   UNL     1     -42.542 -44.746  11.478  1.00  0.00    -0.349 N 
HETATM    7  C   UNL     1     -42.807 -43.394  11.348  1.00  0.00     0.215 C 
HETATM    8  C   UNL     1     -42.152 -45.420  12.722  1.00  0.00     0.156 C 
HETATM    9  C   UNL     1     -42.731 -42.551  12.595  1.00  0.00     0.117 C 
HETATM   10  O   UNL     1     -43.092 -42.875  10.269  1.00  0.00    -0.274 OA
HETATM   11  C   UNL     1     -42.882 -46.769  12.875  1.00  0.00     0.292 C 
ENDBRANCH   2   3
ENDBRANCH   1   2
BRANCH   1  12
HETATM   12  O   UNL     1     -40.345 -50.049  10.298  1.00  0.00    -0.392 OA
HETATM   13  H   UNL     1     -40.000 -50.943  10.453  1.00  0.00     0.210 HD
ENDBRANCH   1  12
BRANCH   1  14
HETATM   14  C   UNL     1     -40.857 -50.396  12.643  1.00  0.00     0.163 C 
BRANCH  14  15
HETATM   15  N   UNL     1     -41.398 -51.738  12.754  1.00  0.00    -0.339 N 
HETATM   16  C   UNL     1     -40.768 -52.871  12.322  1.00  0.00     0.184 A 
HETATM   17  N   UNL     1     -41.516 -53.936  12.495  1.00  0.00    -0.350 N 
HETATM   18  C   UNL     1     -42.687 -53.466  13.034  1.00  0.00     0.060 A 
ATOM     19  HN  UNL     1     -41.279 -54.903  12.275  1.00  0.00     0.166 HD
HETATM   20  C   UNL     1     -43.850 -54.166  13.380  1.00  0.00     0.039 A 
HETATM   21  C   UNL     1     -42.636 -52.089  13.227  1.00  0.00     0.062 A 
HETATM   22  C   UNL     1     -44.949 -53.475  13.928  1.00  0.00    -0.054 A 
HETATM   23  C   UNL     1     -46.178 -54.266  14.279  1.00  0.00     0.049 C 
HETATM   24  C   UNL     1     -44.871 -52.080  14.130  1.00  0.00    -0.054 A 
HETATM   25  C   UNL     1     -46.006 -51.281  14.720  1.00  0.00     0.049 C 
HETATM   26  C   UNL     1     -43.704 -51.369  13.777  1.00  0.00     0.039 A 
ENDBRANCH  14  15
ENDBRANCH   1  14
TORSDOF 5
ENDMDL
MODEL 3
REMARK VINA RESULT:      -6.4      1.941      2.313
REMARK  5 active torsions:
REMARK  status: ('A' for Active; 'I' for Inactive)
REMARK       I    between atoms: C_2  and  N_4 
REMARK    1  A    between atoms: N_7  and  C_8 
REMARK    2  A    between atoms: C_8  and  C_9 
REMARK    3  A    between atoms: C_9  and  O_10 
REMARK    4  A    between atoms: C_9  and  C_11 
REMARK    5  A    between atoms: C_11  and  N_12 
ROOT
HETATM    1  C   UNL     1     -42.124 -52.082  12.123  1.00  0.00     0.164 C 
ENDROOT
BRANCH   1   2
HETATM    2  C   UNL     1     -41.621 -50.693  12.587  1.00  0.00     0.305 C 
BRANCH   2   3
HETATM    3  N   UNL     1     -40.465 -50.169  11.833  1.00  0.00     0.094 N 
HETATM    4  C   UNL     1     -39.207 -50.305  12.609  1.00  0.00     0.292 C 
HETATM    5  C   UNL     1     -39.101 -49.357  13.822  1.00  0.00     0.156 C 
HETATM    6  N   UNL     1     -39.372 -47.966  13.450  1.00  0.00    -0.349 N 
HETATM    7  C   UNL     1     -38.580 -46.963  13.980  1.00  0.00     0.215 C 
HETATM    8  C   UNL     1     -40.570 -47.758  12.627  1.00  0.00     0.156 C 
HETATM    9  C   UNL     1     -38.954 -45.540  13.651  1.00  0.00     0.117 C 
HETATM   10  O   UNL     1     -37.608 -47.195  14.697  1.00  0.00    -0.274 OA
HETATM   11  C   UNL     1     -40.610 -48.747  11.444  1.00  0.00     0.292 C 
ENDBRANCH   2   3
ENDBRANCH   1   2
BRANCH   1  12
HETATM   12  O   UNL     1     -41.203 -52.672  11.199  1.00  0.00    -0.392 OA
HETATM   13  H   UNL     1     -40.657 -51.972  10.806  1.00  0.00     0.210 HD
ENDBRANCH   1  12
BRANCH   1  14
HETATM   14  C   UNL     1     -42.307 -53.006  13.332  1.00  0.00     0.163 C 
BRANCH  14  15
HETATM   15  N   UNL     1     -43.709 -53.280  13.587  1.00  0.00    -0.339 N 
HETATM   16  C   UNL     1     -44.455 -54.213  12.922  1.00  0.00     0.184 A 
HETATM   17  N   UNL     1     -45.707 -54.202  13.317  1.00  0.00    -0.350 N 
HETATM   18  C   UNL     1     -45.776 -53.202  14.254  1.00  0.00     0.060 A 
ATOM     19  HN  UNL     1     -46.464 -54.805  12.996  1.00  0.00     0.166 HD
HETATM   20  C   UNL     1     -46.885 -52.731  14.970  1.00  0.00     0.039 A 
HETATM   21  C   UNL     1     -44.532 -52.616  14.460  1.00  0.00     0.062 A 
HETATM   22  C   UNL     1     -46.727 -51.681  15.897  1.00  0.00    -0.054 A 
HETATM   23  C   UNL     1     -47.945 -51.204  16.639  1.00  0.00     0.049 C 
HETATM   24  C   UNL     1     -45.452 -51.111  16.102  1.00  0.00    -0.054 A 
HETATM   25  C   UNL     1     -45.212 -49.992  17.084  1.00  0.00     0.049 C 
HETATM   26  C   UNL     1     -44.334 -51.577  15.378  1.00  0.00     0.039 A 
ENDBRANCH  14  15
ENDBRANCH   1  14
TORSDOF 5
ENDMDL
MODEL 4
REMARK VINA RESULT:      -6.4      1.141      2.007
REMARK  5 active torsions:
REMARK  status: ('A' for Active; 'I' for Inactive)
REMARK       I    between atoms: C_2  and  N_4 
REMARK    1  A    between atoms: N_7  and  C_8 
REMARK    2  A    between atoms: C_8  and  C_9 
REMARK    3  A    between atoms: C_9  and  O_10 
REMARK    4  A    between atoms: C_9  and  C_11 
REMARK    5  A    between atoms: C_11  and  N_12 
ROOT
HETATM    1  C   UNL     1     -41.388 -51.794  12.123  1.00  0.00     0.164 C 
ENDROOT
BRANCH   1   2
HETATM    2  C   UNL     1     -40.441 -50.573  12.213  1.00  0.00     0.305 C 
BRANCH   2   3
HETATM    3  N   UNL     1     -41.000 -49.406  12.924  1.00  0.00     0.094 N 
HETATM    4  C   UNL     1     -42.198 -48.873  12.228  1.00  0.00     0.292 C 
HETATM    5  C   UNL     1     -41.895 -48.166  10.890  1.00  0.00     0.156 C 
HETATM    6  N   UNL     1     -40.845 -47.155  11.036  1.00  0.00    -0.349 N 
HETATM    7  C   UNL     1     -40.991 -45.939  10.391  1.00  0.00     0.215 C 
HETATM    8  C   UNL     1     -39.651 -47.590  11.769  1.00  0.00     0.156 C 
HETATM    9  C   UNL     1     -39.845 -44.965  10.485  1.00  0.00     0.117 C 
HETATM   10  O   UNL     1     -42.002 -45.642   9.756  1.00  0.00    -0.274 OA
HETATM   11  C   UNL     1     -40.033 -48.295  13.086  1.00  0.00     0.292 C 
ENDBRANCH   2   3
ENDBRANCH   1   2
BRANCH   1  12
HETATM   12  O   UNL     1     -41.169 -52.517  10.906  1.00  0.00    -0.392 OA
HETATM   13  H   UNL     1     -42.011 -52.592  10.427  1.00  0.00     0.210 HD
ENDBRANCH   1  12
BRANCH   1  14
HETATM   14  C   UNL     1     -41.166 -52.722  13.323  1.00  0.00     0.163 C 
BRANCH  14  15
HETATM   15  N   UNL     1     -41.959 -52.311  14.467  1.00  0.00    -0.339 N 
HETATM   16  C   UNL     1     -41.481 -52.185  15.742  1.00  0.00     0.184 A 
HETATM   17  N   UNL     1     -42.433 -51.859  16.585  1.00  0.00    -0.350 N 
HETATM   18  C   UNL     1     -43.576 -51.799  15.827  1.00  0.00     0.060 A 
ATOM     19  HN  UNL     1     -42.343 -51.687  17.586  1.00  0.00     0.166 HD
HETATM   20  C   UNL     1     -44.892 -51.532  16.224  1.00  0.00     0.039 A 
HETATM   21  C   UNL     1     -43.306 -52.060  14.487  1.00  0.00     0.062 A 
HETATM   22  C   UNL     1     -45.926 -51.519  15.266  1.00  0.00    -0.054 A 
HETATM   23  C   UNL     1     -47.324 -51.234  15.738  1.00  0.00     0.049 C 
HETATM   24  C   UNL     1     -45.629 -51.771  13.908  1.00  0.00    -0.054 A 
HETATM   25  C   UNL     1     -46.684 -51.764  12.832  1.00  0.00     0.049 C 
HETATM   26  C   UNL     1     -44.305 -52.047  13.505  1.00  0.00     0.039 A 
ENDBRANCH  14  15
ENDBRANCH   1  14
TORSDOF 5
ENDMDL
MODEL 5
REMARK VINA RESULT:      -6.3      2.116      3.509
REMARK  5 active torsions:
REMARK  status: ('A' for Active; 'I' for Inactive)
REMARK       I    between atoms: C_2  and  N_4 
REMARK    1  A    between atoms: N_7  and  C_8 
REMARK    2  A    between atoms: C_8  and  C_9 
REMARK    3  A    between atoms: C_9  and  O_10 
REMARK    4  A    between atoms: C_9  and  C_11 
REMARK    5  A    between atoms: C_11  and  N_12 
ROOT
HETATM    1  C   UNL     1     -41.921 -48.944  11.323  1.00  0.00     0.164 C 
ENDROOT
BRANCH   1   2
HETATM    2  C   UNL     1     -41.969 -47.418  11.577  1.00  0.00     0.305 C 
BRANCH   2   3
HETATM    3  N   UNL     1     -41.079 -46.618  10.712  1.00  0.00     0.094 N 
HETATM    4  C   UNL     1     -39.801 -46.302  11.399  1.00  0.00     0.292 C 
HETATM    5  C   UNL     1     -39.931 -45.284  12.550  1.00  0.00     0.156 C 
HETATM    6  N   UNL     1     -40.644 -44.075  12.129  1.00  0.00    -0.349 N 
HETATM    7  C   UNL     1     -40.177 -42.841  12.546  1.00  0.00     0.215 C 
HETATM    8  C   UNL     1     -41.889 -44.307  11.388  1.00  0.00     0.156 C 
HETATM    9  C   UNL     1     -40.994 -41.631  12.174  1.00  0.00     0.117 C 
HETATM   10  O   UNL     1     -39.143 -42.709  13.201  1.00  0.00    -0.274 OA
HETATM   11  C   UNL     1     -41.683 -45.342  10.263  1.00  0.00     0.292 C 
ENDBRANCH   2   3
ENDBRANCH   1   2
BRANCH   1  12
HETATM   12  O   UNL     1     -41.134 -49.241  10.165  1.00  0.00    -0.392 OA
HETATM   13  H   UNL     1     -40.705 -48.426   9.856  1.00  0.00     0.210 HD
ENDBRANCH   1  12
BRANCH   1  14
HETATM   14  C   UNL     1     -41.335 -49.662  12.545  1.00  0.00     0.163 C 
BRANCH  14  15
HETATM   15  N   UNL     1     -41.682 -51.071  12.552  1.00  0.00    -0.339 N 
HETATM   16  C   UNL     1     -40.910 -52.067  12.022  1.00  0.00     0.184 A 
HETATM   17  N   UNL     1     -41.499 -53.237  12.115  1.00  0.00    -0.350 N 
HETATM   18  C   UNL     1     -42.712 -52.979  12.704  1.00  0.00     0.060 A 
ATOM     19  HN  UNL     1     -41.135 -54.141  11.815  1.00  0.00     0.166 HD
HETATM   20  C   UNL     1     -43.758 -53.861  13.005  1.00  0.00     0.039 A 
HETATM   21  C   UNL     1     -42.849 -51.629  13.008  1.00  0.00     0.062 A 
HETATM   22  C   UNL     1     -44.930 -53.376  13.620  1.00  0.00    -0.054 A 
HETATM   23  C   UNL     1     -46.030 -54.357  13.918  1.00  0.00     0.049 C 
HETATM   24  C   UNL     1     -45.043 -52.004  13.934  1.00  0.00    -0.054 A 
HETATM   25  C   UNL     1     -46.263 -51.421  14.600  1.00  0.00     0.049 C 
HETATM   26  C   UNL     1     -43.993 -51.111  13.627  1.00  0.00     0.039 A 
ENDBRANCH  14  15
ENDBRANCH   1  14
TORSDOF 5
ENDMDL
MODEL 6
REMARK VINA RESULT:      -6.2      2.096      2.395
REMARK  5 active torsions:
REMARK  status: ('A' for Active; 'I' for Inactive)
REMARK       I    between atoms: C_2  and  N_4 
REMARK    1  A    between atoms: N_7  and  C_8 
REMARK    2  A    between atoms: C_8  and  C_9 
REMARK    3  A    between atoms: C_9  and  O_10 
REMARK    4  A    between atoms: C_9  and  C_11 
REMARK    5  A    between atoms: C_11  and  N_12 
ROOT
HETATM    1  C   UNL     1     -41.663 -52.432  12.095  1.00  0.00     0.164 C 
ENDROOT
BRANCH   1   2
HETATM    2  C   UNL     1     -41.072 -51.029  12.378  1.00  0.00     0.305 C 
BRANCH   2   3
HETATM    3  N   UNL     1     -40.942 -50.689  13.809  1.00  0.00     0.094 N 
HETATM    4  C   UNL     1     -41.419 -49.309  14.081  1.00  0.00     0.292 C 
HETATM    5  C   UNL     1     -40.506 -48.197  13.526  1.00  0.00     0.156 C 
HETATM    6  N   UNL     1     -39.111 -48.388  13.932  1.00  0.00    -0.349 N 
HETATM    7  C   UNL     1     -38.371 -47.289  14.331  1.00  0.00     0.215 C 
HETATM    8  C   UNL     1     -38.584 -49.746  13.749  1.00  0.00     0.156 C 
HETATM    9  C   UNL     1     -36.914 -47.512  14.644  1.00  0.00     0.117 C 
HETATM   10  O   UNL     1     -38.858 -46.162  14.429  1.00  0.00    -0.274 OA
HETATM   11  C   UNL     1     -39.555 -50.800  14.318  1.00  0.00     0.292 C 
ENDBRANCH   2   3
ENDBRANCH   1   2
BRANCH   1  12
HETATM   12  O   UNL     1     -40.722 -53.245  11.385  1.00  0.00    -0.392 OA
HETATM   13  H   UNL     1     -41.112 -53.512  10.537  1.00  0.00     0.210 HD
ENDBRANCH   1  12
BRANCH   1  14
HETATM   14  C   UNL     1     -42.047 -53.116  13.412  1.00  0.00     0.163 C 
BRANCH  14  15
HETATM   15  N   UNL     1     -43.486 -53.268  13.533  1.00  0.00    -0.339 N 
HETATM   16  C   UNL     1     -44.257 -54.058  12.728  1.00  0.00     0.184 A 
HETATM   17  N   UNL     1     -45.531 -53.956  13.027  1.00  0.00    -0.350 N 
HETATM   18  C   UNL     1     -45.585 -53.043  14.049  1.00  0.00     0.060 A 
ATOM     19  HN  UNL     1     -46.312 -54.449  12.593  1.00  0.00     0.166 HD
HETATM   20  C   UNL     1     -46.701 -52.529  14.724  1.00  0.00     0.039 A 
HETATM   21  C   UNL     1     -44.313 -52.606  14.403  1.00  0.00     0.062 A 
HETATM   22  C   UNL     1     -46.524 -51.587  15.757  1.00  0.00    -0.054 A 
HETATM   23  C   UNL     1     -47.750 -51.058  16.449  1.00  0.00     0.049 C 
HETATM   24  C   UNL     1     -45.223 -51.168  16.111  1.00  0.00    -0.054 A 
HETATM   25  C   UNL     1     -44.963 -50.172  17.212  1.00  0.00     0.049 C 
HETATM   26  C   UNL     1     -44.097 -51.678  15.430  1.00  0.00     0.039 A 
ENDBRANCH  14  15
ENDBRANCH   1  14
TORSDOF 5
ENDMDL
MODEL 7
REMARK VINA RESULT:      -6.2      2.842      7.130
REMARK  5 active torsions:
REMARK  status: ('A' for Active; 'I' for Inactive)
REMARK       I    between atoms: C_2  and  N_4 
REMARK    1  A    between atoms: N_7  and  C_8 
REMARK    2  A    between atoms: C_8  and  C_9 
REMARK    3  A    between atoms: C_9  and  O_10 
REMARK    4  A    between atoms: C_9  and  C_11 
REMARK    5  A    between atoms: C_11  and  N_12 
ROOT
HETATM    1  C   UNL     1     -38.971 -52.287  13.965  1.00  0.00     0.164 C 
ENDROOT
BRANCH   1   2
HETATM    2  C   UNL     1     -40.470 -52.052  13.656  1.00  0.00     0.305 C 
BRANCH   2   3
HETATM    3  N   UNL     1     -41.389 -53.038  14.258  1.00  0.00     0.094 N 
HETATM    4  C   UNL     1     -42.107 -53.813  13.215  1.00  0.00     0.292 C 
HETATM    5  C   UNL     1     -43.164 -53.005  12.435  1.00  0.00     0.156 C 
HETATM    6  N   UNL     1     -44.085 -52.305  13.334  1.00  0.00    -0.349 N 
HETATM    7  C   UNL     1     -45.435 -52.288  13.031  1.00  0.00     0.215 C 
HETATM    8  C   UNL     1     -43.450 -51.563  14.430  1.00  0.00     0.156 C 
HETATM    9  C   UNL     1     -46.334 -51.474  13.926  1.00  0.00     0.117 C 
HETATM   10  O   UNL     1     -45.908 -52.899  12.073  1.00  0.00    -0.274 OA
HETATM   11  C   UNL     1     -42.401 -52.432  15.154  1.00  0.00     0.292 C 
ENDBRANCH   2   3
ENDBRANCH   1   2
BRANCH   1  12
HETATM   12  O   UNL     1     -38.601 -53.641  13.683  1.00  0.00    -0.392 OA
HETATM   13  H   UNL     1     -39.207 -54.238  14.152  1.00  0.00     0.210 HD
ENDBRANCH   1  12
BRANCH   1  14
HETATM   14  C   UNL     1     -38.107 -51.331  13.135  1.00  0.00     0.163 C 
BRANCH  14  15
HETATM   15  N   UNL     1     -37.923 -50.058  13.808  1.00  0.00    -0.339 N 
HETATM   16  C   UNL     1     -37.249 -49.888  14.985  1.00  0.00     0.184 A 
HETATM   17  N   UNL     1     -37.293 -48.641  15.392  1.00  0.00    -0.350 N 
HETATM   18  C   UNL     1     -38.050 -47.986  14.453  1.00  0.00     0.060 A 
ATOM     19  HN  UNL     1     -36.860 -48.244  16.226  1.00  0.00     0.166 HD
HETATM   20  C   UNL     1     -38.450 -46.644  14.412  1.00  0.00     0.039 A 
HETATM   21  C   UNL     1     -38.445 -48.846  13.433  1.00  0.00     0.062 A 
HETATM   22  C   UNL     1     -39.235 -46.177  13.339  1.00  0.00    -0.054 A 
HETATM   23  C   UNL     1     -39.646 -44.731  13.340  1.00  0.00     0.049 C 
HETATM   24  C   UNL     1     -39.612 -47.063  12.307  1.00  0.00    -0.054 A 
HETATM   25  C   UNL     1     -40.443 -46.628  11.126  1.00  0.00     0.049 C 
HETATM   26  C   UNL     1     -39.217 -48.418  12.347  1.00  0.00     0.039 A 
ENDBRANCH  14  15
ENDBRANCH   1  14
TORSDOF 5
ENDMDL
MODEL 8
REMARK VINA RESULT:      -6.0      6.759     11.352
REMARK  5 active torsions:
REMARK  status: ('A' for Active; 'I' for Inactive)
REMARK       I    between atoms: C_2  and  N_4 
REMARK    1  A    between atoms: N_7  and  C_8 
REMARK    2  A    between atoms: C_8  and  C_9 
REMARK    3  A    between atoms: C_9  and  O_10 
REMARK    4  A    between atoms: C_9  and  C_11 
REMARK    5  A    between atoms: C_11  and  N_12 
ROOT
HETATM    1  C   UNL     1     -46.221 -54.910  19.790  1.00  0.00     0.164 C 
ENDROOT
BRANCH   1   2
HETATM    2  C   UNL     1     -47.161 -56.107  19.505  1.00  0.00     0.305 C 
BRANCH   2   3
HETATM    3  N   UNL     1     -47.558 -56.880  20.698  1.00  0.00     0.094 N 
HETATM    4  C   UNL     1     -48.056 -58.229  20.326  1.00  0.00     0.292 C 
HETATM    5  C   UNL     1     -49.427 -58.230  19.620  1.00  0.00     0.156 C 
HETATM    6  N   UNL     1     -50.424 -57.462  20.370  1.00  0.00    -0.349 N 
HETATM    7  C   UNL     1     -51.708 -57.964  20.489  1.00  0.00     0.215 C 
HETATM    8  C   UNL     1     -49.984 -56.138  20.826  1.00  0.00     0.156 C 
HETATM    9  C   UNL     1     -52.728 -57.098  21.181  1.00  0.00     0.117 C 
HETATM   10  O   UNL     1     -52.031 -59.068  20.052  1.00  0.00    -0.274 OA
HETATM   11  C   UNL     1     -48.604 -56.216  21.510  1.00  0.00     0.292 C 
ENDBRANCH   2   3
ENDBRANCH   1   2
BRANCH   1  12
HETATM   12  O   UNL     1     -45.316 -55.218  20.855  1.00  0.00    -0.392 OA
HETATM   13  H   UNL     1     -45.096 -54.400  21.330  1.00  0.00     0.210 HD
ENDBRANCH   1  12
BRANCH   1  14
HETATM   14  C   UNL     1     -45.430 -54.550  18.527  1.00  0.00     0.163 C 
BRANCH  14  15
HETATM   15  N   UNL     1     -46.034 -53.434  17.820  1.00  0.00    -0.339 N 
HETATM   16  C   UNL     1     -46.844 -52.494  18.393  1.00  0.00     0.184 A 
HETATM   17  N   UNL     1     -47.295 -51.639  17.506  1.00  0.00    -0.350 N 
HETATM   18  C   UNL     1     -46.777 -52.062  16.308  1.00  0.00     0.060 A 
ATOM     19  HN  UNL     1     -47.901 -50.835  17.671  1.00  0.00     0.166 HD
HETATM   20  C   UNL     1     -46.969 -51.538  15.022  1.00  0.00     0.039 A 
HETATM   21  C   UNL     1     -45.963 -53.178  16.475  1.00  0.00     0.062 A 
HETATM   22  C   UNL     1     -46.330 -52.136  13.918  1.00  0.00    -0.054 A 
HETATM   23  C   UNL     1     -46.569 -51.545  12.557  1.00  0.00     0.049 C 
HETATM   24  C   UNL     1     -45.496 -53.259  14.112  1.00  0.00    -0.054 A 
HETATM   25  C   UNL     1     -44.776 -53.942  12.976  1.00  0.00     0.049 C 
HETATM   26  C   UNL     1     -45.305 -53.794  15.404  1.00  0.00     0.039 A 
ENDBRANCH  14  15
ENDBRANCH   1  14
TORSDOF 5
ENDMDL
MODEL 9
REMARK VINA RESULT:      -6.0      3.008      7.619
REMARK  5 active torsions:
REMARK  status: ('A' for Active; 'I' for Inactive)
REMARK       I    between atoms: C_2  and  N_4 
REMARK    1  A    between atoms: N_7  and  C_8 
REMARK    2  A    between atoms: C_8  and  C_9 
REMARK    3  A    between atoms: C_9  and  O_10 
REMARK    4  A    between atoms: C_9  and  C_11 
REMARK    5  A    between atoms: C_11  and  N_12 
ROOT
HETATM    1  C   UNL     1     -39.300 -50.896  13.261  1.00  0.00     0.164 C 
ENDROOT
BRANCH   1   2
HETATM    2  C   UNL     1     -40.195 -52.069  13.732  1.00  0.00     0.305 C 
BRANCH   2   3
HETATM    3  N   UNL     1     -40.640 -52.979  12.657  1.00  0.00     0.094 N 
HETATM    4  C   UNL     1     -41.726 -52.369  11.849  1.00  0.00     0.292 C 
HETATM    5  C   UNL     1     -43.077 -52.249  12.584  1.00  0.00     0.156 C 
HETATM    6  N   UNL     1     -43.484 -53.523  13.183  1.00  0.00    -0.349 N 
HETATM    7  C   UNL     1     -44.809 -53.913  13.093  1.00  0.00     0.215 C 
HETATM    8  C   UNL     1     -42.443 -54.218  13.949  1.00  0.00     0.156 C 
HETATM    9  C   UNL     1     -45.206 -55.180  13.807  1.00  0.00     0.117 C 
HETATM   10  O   UNL     1     -45.650 -53.268  12.467  1.00  0.00    -0.274 OA
HETATM   11  C   UNL     1     -41.123 -54.288  13.155  1.00  0.00     0.292 C 
ENDBRANCH   2   3
ENDBRANCH   1   2
BRANCH   1  12
HETATM   12  O   UNL     1     -38.529 -51.275  12.115  1.00  0.00    -0.392 OA
HETATM   13  H   UNL     1     -37.944 -50.539  11.871  1.00  0.00     0.210 HD
ENDBRANCH   1  12
BRANCH   1  14
HETATM   14  C   UNL     1     -40.166 -49.678  12.921  1.00  0.00     0.163 C 
BRANCH  14  15
HETATM   15  N   UNL     1     -39.737 -48.499  13.651  1.00  0.00    -0.339 N 
HETATM   16  C   UNL     1     -39.373 -48.487  14.969  1.00  0.00     0.184 A 
HETATM   17  N   UNL     1     -39.090 -47.273  15.381  1.00  0.00    -0.350 N 
HETATM   18  C   UNL     1     -39.306 -46.467  14.292  1.00  0.00     0.060 A 
ATOM     19  HN  UNL     1     -38.777 -46.991  16.310  1.00  0.00     0.166 HD
HETATM   20  C   UNL     1     -39.196 -45.075  14.182  1.00  0.00     0.039 A 
HETATM   21  C   UNL     1     -39.696 -47.211  13.183  1.00  0.00     0.062 A 
HETATM   22  C   UNL     1     -39.468 -44.444  12.951  1.00  0.00    -0.054 A 
HETATM   23  C   UNL     1     -39.343 -42.948  12.880  1.00  0.00     0.049 C 
HETATM   24  C   UNL     1     -39.847 -45.219  11.833  1.00  0.00    -0.054 A 
HETATM   25  C   UNL     1     -40.143 -44.610  10.486  1.00  0.00     0.049 C 
HETATM   26  C   UNL     1     -39.965 -46.621  11.942  1.00  0.00     0.039 A 
ENDBRANCH  14  15
ENDBRANCH   1  14
TORSDOF 5
ENDMDL
