MODEL 1
REMARK VINA RESULT:      -6.6      0.000      0.000
REMARK  4 active torsions:
REMARK  status: ('A' for Active; 'I' for Inactive)
REMARK       I    between atoms: C_2  and  N_3 
REMARK       I    between atoms: C_2  and  N_13 
REMARK    1  A    between atoms: N_3  and  C_4 
REMARK    2  A    between atoms: C_4  and  C_5 
REMARK    3  A    between atoms: C_5  and  C_6 
REMARK       I    between atoms: N_17  and  C_20 
REMARK    4  A    between atoms: C_20  and  C_22 
ROOT
HETATM    1  O   UNL     1     -39.823 -49.811  11.656  1.00  0.00    -0.247 OA
HETATM    2  C   UNL     1     -41.009 -50.062  11.851  1.00  0.00     0.318 C 
HETATM    3  N   UNL     1     -42.005 -49.312  11.274  1.00  0.00    -0.343 N 
HETATM    4  N   UNL     1     -41.443 -51.102  12.662  1.00  0.00    -0.333 N 
HETATM    5  C   UNL     1     -42.836 -51.369  13.032  1.00  0.00     0.129 C 
HETATM    6  C   UNL     1     -43.355 -52.616  12.323  1.00  0.00     0.040 C 
HETATM    7  C   UNL     1     -43.103 -53.893  13.127  1.00  0.00     0.127 C 
HETATM    8  N   UNL     1     -41.772 -54.022  13.717  1.00  0.00    -0.350 N 
HETATM    9  C   UNL     1     -40.630 -53.464  12.981  1.00  0.00     0.145 C 
HETATM   10  C   UNL     1     -40.423 -51.969  13.278  1.00  0.00     0.147 C 
HETATM   11  C   UNL     1     -41.509 -54.613  14.957  1.00  0.00     0.224 C 
HETATM   12  O   UNL     1     -40.383 -54.644  15.447  1.00  0.00    -0.273 OA
HETATM   13  H   UNL     1     -42.810 -49.849  10.993  1.00  0.00     0.164 HD
ENDROOT
BRANCH   3  14
HETATM   14  C   UNL     1     -41.646 -48.205  10.398  1.00  0.00     0.129 C 
BRANCH  14  15
HETATM   15  C   UNL     1     -42.761 -47.163  10.313  1.00  0.00     0.060 C 
BRANCH  15  16
HETATM   16  C   UNL     1     -43.892 -47.597   9.421  1.00  0.00    -0.041 A 
HETATM   17  C   UNL     1     -45.204 -47.681   9.889  1.00  0.00     0.010 A 
HETATM   18  C   UNL     1     -46.220 -48.091   9.030  1.00  0.00     0.018 A 
HETATM   19  C   UNL     1     -45.889 -48.398   7.722  1.00  0.00     0.087 A 
HETATM   20  N   UNL     1     -44.636 -48.320   7.227  1.00  0.00    -0.375 N 
HETATM   21  C   UNL     1     -43.669 -47.918   8.085  1.00  0.00     0.094 A 
ATOM     22  HN  UNL     1     -44.427 -48.551   6.256  1.00  0.00     0.164 HD
ENDBRANCH  15  16
ENDBRANCH  14  15
ENDBRANCH   3  14
BRANCH  11  23
HETATM   23  C   UNL     1     -42.653 -55.187  15.735  1.00  0.00     0.078 A 
HETATM   24  C   UNL     1     -43.269 -54.344  16.833  1.00  0.00     0.015 A 
HETATM   25  C   UNL     1     -42.495 -55.580  17.186  1.00  0.00     0.015 A 
ENDBRANCH  11  23
TORSDOF 4
ENDMDL
MODEL 2
REMARK VINA RESULT:      -6.4      1.854      2.192
REMARK  4 active torsions:
REMARK  status: ('A' for Active; 'I' for Inactive)
REMARK       I    between atoms: C_2  and  N_3 
REMARK       I    between atoms: C_2  and  N_13 
REMARK    1  A    between atoms: N_3  and  C_4 
REMARK    2  A    between atoms: C_4  and  C_5 
REMARK    3  A    between atoms: C_5  and  C_6 
REMARK       I    between atoms: N_17  and  C_20 
REMARK    4  A    between atoms: C_20  and  C_22 
ROOT
HETATM    1  O   UNL     1     -40.892 -51.243  11.754  1.00  0.00    -0.247 OA
HETATM    2  C   UNL     1     -41.925 -50.700  12.133  1.00  0.00     0.318 C 
HETATM    3  N   UNL     1     -42.278 -49.445  11.698  1.00  0.00    -0.343 N 
HETATM    4  N   UNL     1     -42.810 -51.289  13.026  1.00  0.00    -0.333 N 
HETATM    5  C   UNL     1     -43.987 -50.640  13.612  1.00  0.00     0.129 C 
HETATM    6  C   UNL     1     -45.272 -51.214  13.020  1.00  0.00     0.040 C 
HETATM    7  C   UNL     1     -45.789 -52.420  13.807  1.00  0.00     0.127 C 
HETATM    8  N   UNL     1     -44.784 -53.410  14.190  1.00  0.00    -0.350 N 
HETATM    9  C   UNL     1     -43.660 -53.647  13.274  1.00  0.00     0.145 C 
HETATM   10  C   UNL     1     -42.509 -52.651  13.500  1.00  0.00     0.147 C 
HETATM   11  C   UNL     1     -44.798 -54.130  15.388  1.00  0.00     0.224 C 
HETATM   12  O   UNL     1     -43.899 -54.907  15.701  1.00  0.00    -0.273 OA
HETATM   13  H   UNL     1     -43.268 -49.326  11.556  1.00  0.00     0.164 HD
ENDROOT
BRANCH   3  14
HETATM   14  C   UNL     1     -41.415 -48.752  10.751  1.00  0.00     0.129 C 
BRANCH  14  15
HETATM   15  C   UNL     1     -42.030 -47.434  10.281  1.00  0.00     0.060 C 
BRANCH  15  16
HETATM   16  C   UNL     1     -43.320 -47.630   9.533  1.00  0.00    -0.041 A 
HETATM   17  C   UNL     1     -44.559 -47.490  10.159  1.00  0.00     0.010 A 
HETATM   18  C   UNL     1     -45.728 -47.684   9.428  1.00  0.00     0.018 A 
HETATM   19  C   UNL     1     -45.618 -48.008   8.087  1.00  0.00     0.087 A 
HETATM   20  N   UNL     1     -44.440 -48.143   7.443  1.00  0.00    -0.375 N 
HETATM   21  C   UNL     1     -43.321 -47.948   8.177  1.00  0.00     0.094 A 
ATOM     22  HN  UNL     1     -44.396 -48.381   6.452  1.00  0.00     0.164 HD
ENDBRANCH  15  16
ENDBRANCH  14  15
ENDBRANCH   3  14
BRANCH  11  23
HETATM   23  C   UNL     1     -45.928 -53.907  16.346  1.00  0.00     0.078 A 
HETATM   24  C   UNL     1     -45.792 -52.801  17.372  1.00  0.00     0.015 A 
HETATM   25  C   UNL     1     -45.786 -54.235  17.815  1.00  0.00     0.015 A 
ENDBRANCH  11  23
TORSDOF 4
ENDMDL
MODEL 3
REMARK VINA RESULT:      -6.1      1.322      1.616
REMARK  4 active torsions:
REMARK  status: ('A' for Active; 'I' for Inactive)
REMARK       I    between atoms: C_2  and  N_3 
REMARK       I    between atoms: C_2  and  N_13 
REMARK    1  A    between atoms: N_3  and  C_4 
REMARK    2  A    between atoms: C_4  and  C_5 
REMARK    3  A    between atoms: C_5  and  C_6 
REMARK       I    between atoms: N_17  and  C_20 
REMARK    4  A    between atoms: C_20  and  C_22 
ROOT
HETATM    1  O   UNL     1     -41.790 -47.936  13.021  1.00  0.00    -0.247 OA
HETATM    2  C   UNL     1     -41.887 -48.965  12.360  1.00  0.00     0.318 C 
HETATM    3  N   UNL     1     -42.035 -48.927  10.994  1.00  0.00    -0.343 N 
HETATM    4  N   UNL     1     -41.864 -50.235  12.920  1.00  0.00    -0.333 N 
HETATM    5  C   UNL     1     -42.105 -51.488  12.198  1.00  0.00     0.129 C 
HETATM    6  C   UNL     1     -40.809 -52.279  12.042  1.00  0.00     0.040 C 
HETATM    7  C   UNL     1     -40.561 -53.231  13.215  1.00  0.00     0.127 C 
HETATM    8  N   UNL     1     -40.794 -52.676  14.547  1.00  0.00    -0.350 N 
HETATM    9  C   UNL     1     -40.492 -51.255  14.768  1.00  0.00     0.145 C 
HETATM   10  C   UNL     1     -41.668 -50.343  14.376  1.00  0.00     0.147 C 
HETATM   11  C   UNL     1     -41.320 -53.395  15.624  1.00  0.00     0.224 C 
HETATM   12  O   UNL     1     -41.561 -52.874  16.711  1.00  0.00    -0.273 OA
HETATM   13  H   UNL     1     -41.552 -49.667  10.510  1.00  0.00     0.164 HD
ENDROOT
BRANCH   3  14
HETATM   14  C   UNL     1     -42.060 -47.639  10.315  1.00  0.00     0.129 C 
BRANCH  14  15
HETATM   15  C   UNL     1     -43.444 -46.993  10.372  1.00  0.00     0.060 C 
BRANCH  15  16
HETATM   16  C   UNL     1     -44.402 -47.587   9.377  1.00  0.00    -0.041 A 
HETATM   17  C   UNL     1     -45.742 -47.815   9.695  1.00  0.00     0.010 A 
HETATM   18  C   UNL     1     -46.593 -48.371   8.744  1.00  0.00     0.018 A 
HETATM   19  C   UNL     1     -46.075 -48.676   7.497  1.00  0.00     0.087 A 
HETATM   20  N   UNL     1     -44.790 -48.462   7.147  1.00  0.00    -0.375 N 
HETATM   21  C   UNL     1     -43.985 -47.921   8.091  1.00  0.00     0.094 A 
ATOM     22  HN  UNL     1     -44.441 -48.696   6.218  1.00  0.00     0.164 HD
ENDBRANCH  15  16
ENDBRANCH  14  15
ENDBRANCH   3  14
BRANCH  11  23
HETATM   23  C   UNL     1     -41.644 -54.844  15.429  1.00  0.00     0.078 A 
HETATM   24  C   UNL     1     -43.089 -55.231  15.191  1.00  0.00     0.015 A 
HETATM   25  C   UNL     1     -42.413 -55.623  16.472  1.00  0.00     0.015 A 
ENDBRANCH  11  23
TORSDOF 4
ENDMDL
MODEL 4
REMARK VINA RESULT:      -6.1      3.180      7.768
REMARK  4 active torsions:
REMARK  status: ('A' for Active; 'I' for Inactive)
REMARK       I    between atoms: C_2  and  N_3 
REMARK       I    between atoms: C_2  and  N_13 
REMARK    1  A    between atoms: N_3  and  C_4 
REMARK    2  A    between atoms: C_4  and  C_5 
REMARK    3  A    between atoms: C_5  and  C_6 
REMARK       I    between atoms: N_17  and  C_20 
REMARK    4  A    between atoms: C_20  and  C_22 
ROOT
HETATM    1  O   UNL     1     -42.532 -50.608  14.338  1.00  0.00    -0.247 OA
HETATM    2  C   UNL     1     -42.419 -50.353  13.143  1.00  0.00     0.318 C 
HETATM    3  N   UNL     1     -42.517 -51.336  12.187  1.00  0.00    -0.343 N 
HETATM    4  N   UNL     1     -42.179 -49.075  12.657  1.00  0.00    -0.333 N 
HETATM    5  C   UNL     1     -41.907 -48.732  11.258  1.00  0.00     0.129 C 
HETATM    6  C   UNL     1     -43.096 -48.003  10.639  1.00  0.00     0.040 C 
HETATM    7  C   UNL     1     -43.010 -46.486  10.821  1.00  0.00     0.127 C 
HETATM    8  N   UNL     1     -42.622 -46.025  12.153  1.00  0.00    -0.350 N 
HETATM    9  C   UNL     1     -43.063 -46.810  13.314  1.00  0.00     0.145 C 
HETATM   10  C   UNL     1     -42.102 -47.970  13.629  1.00  0.00     0.147 C 
HETATM   11  C   UNL     1     -41.828 -44.902  12.403  1.00  0.00     0.224 C 
HETATM   12  O   UNL     1     -41.471 -44.585  13.535  1.00  0.00    -0.273 OA
HETATM   13  H   UNL     1     -42.977 -51.039  11.341  1.00  0.00     0.164 HD
ENDROOT
BRANCH   3  14
HETATM   14  C   UNL     1     -42.778 -52.707  12.601  1.00  0.00     0.129 C 
BRANCH  14  15
HETATM   15  C   UNL     1     -44.190 -53.156  12.223  1.00  0.00     0.060 C 
BRANCH  15  16
HETATM   16  C   UNL     1     -45.197 -52.871  13.304  1.00  0.00    -0.041 A 
HETATM   17  C   UNL     1     -45.872 -51.652  13.373  1.00  0.00     0.010 A 
HETATM   18  C   UNL     1     -46.794 -51.430  14.392  1.00  0.00     0.018 A 
HETATM   19  C   UNL     1     -47.015 -52.442  15.310  1.00  0.00     0.087 A 
HETATM   20  N   UNL     1     -46.391 -53.637  15.272  1.00  0.00    -0.375 N 
HETATM   21  C   UNL     1     -45.501 -53.826  14.271  1.00  0.00     0.094 A 
ATOM     22  HN  UNL     1     -46.580 -54.363  15.964  1.00  0.00     0.164 HD
ENDBRANCH  15  16
ENDBRANCH  14  15
ENDBRANCH   3  14
BRANCH  11  23
HETATM   23  C   UNL     1     -41.358 -44.084  11.240  1.00  0.00     0.078 A 
HETATM   24  C   UNL     1     -39.932 -44.268  10.763  1.00  0.00     0.015 A 
HETATM   25  C   UNL     1     -40.338 -42.981  11.419  1.00  0.00     0.015 A 
ENDBRANCH  11  23
TORSDOF 4
ENDMDL
MODEL 5
REMARK VINA RESULT:      -5.9      1.974      3.169
REMARK  4 active torsions:
REMARK  status: ('A' for Active; 'I' for Inactive)
REMARK       I    between atoms: C_2  and  N_3 
REMARK       I    between atoms: C_2  and  N_13 
REMARK    1  A    between atoms: N_3  and  C_4 
REMARK    2  A    between atoms: C_4  and  C_5 
REMARK    3  A    between atoms: C_5  and  C_6 
REMARK       I    between atoms: N_17  and  C_20 
REMARK    4  A    between atoms: C_20  and  C_22 
ROOT
HETATM    1  O   UNL     1     -39.859 -50.000  11.486  1.00  0.00    -0.247 OA
HETATM    2  C   UNL     1     -41.033 -50.194  11.783  1.00  0.00     0.318 C 
HETATM    3  N   UNL     1     -42.037 -49.386  11.303  1.00  0.00    -0.343 N 
HETATM    4  N   UNL     1     -41.447 -51.222  12.620  1.00  0.00    -0.333 N 
HETATM    5  C   UNL     1     -42.814 -51.423  13.110  1.00  0.00     0.129 C 
HETATM    6  C   UNL     1     -43.457 -52.632  12.438  1.00  0.00     0.040 C 
HETATM    7  C   UNL     1     -43.201 -53.932  13.206  1.00  0.00     0.127 C 
HETATM    8  N   UNL     1     -41.831 -54.135  13.674  1.00  0.00    -0.350 N 
HETATM    9  C   UNL     1     -40.732 -53.626  12.845  1.00  0.00     0.145 C 
HETATM   10  C   UNL     1     -40.422 -52.146  13.135  1.00  0.00     0.147 C 
HETATM   11  C   UNL     1     -41.491 -54.756  14.880  1.00  0.00     0.224 C 
HETATM   12  O   UNL     1     -40.329 -54.850  15.269  1.00  0.00    -0.273 OA
HETATM   13  H   UNL     1     -42.890 -49.879  11.090  1.00  0.00     0.164 HD
ENDROOT
BRANCH   3  14
HETATM   14  C   UNL     1     -41.700 -48.287  10.410  1.00  0.00     0.129 C 
BRANCH  14  15
HETATM   15  C   UNL     1     -42.586 -47.065  10.652  1.00  0.00     0.060 C 
BRANCH  15  16
HETATM   16  C   UNL     1     -41.793 -45.796  10.801  1.00  0.00    -0.041 A 
HETATM   17  C   UNL     1     -40.405 -45.777  10.657  1.00  0.00     0.010 A 
HETATM   18  C   UNL     1     -39.711 -44.579  10.806  1.00  0.00     0.018 A 
HETATM   19  C   UNL     1     -40.433 -43.433  11.090  1.00  0.00     0.087 A 
HETATM   20  N   UNL     1     -41.775 -43.407  11.227  1.00  0.00    -0.375 N 
HETATM   21  C   UNL     1     -42.423 -44.585  11.076  1.00  0.00     0.094 A 
ATOM     22  HN  UNL     1     -42.276 -42.543  11.433  1.00  0.00     0.164 HD
ENDBRANCH  15  16
ENDBRANCH  14  15
ENDBRANCH   3  14
BRANCH  11  23
HETATM   23  C   UNL     1     -42.590 -55.281  15.751  1.00  0.00     0.078 A 
HETATM   24  C   UNL     1     -43.050 -54.431  16.918  1.00  0.00     0.015 A 
HETATM   25  C   UNL     1     -42.321 -55.717  17.174  1.00  0.00     0.015 A 
ENDBRANCH  11  23
TORSDOF 4
ENDMDL
MODEL 6
REMARK VINA RESULT:      -5.9      3.861      5.318
REMARK  4 active torsions:
REMARK  status: ('A' for Active; 'I' for Inactive)
REMARK       I    between atoms: C_2  and  N_3 
REMARK       I    between atoms: C_2  and  N_13 
REMARK    1  A    between atoms: N_3  and  C_4 
REMARK    2  A    between atoms: C_4  and  C_5 
REMARK    3  A    between atoms: C_5  and  C_6 
REMARK       I    between atoms: N_17  and  C_20 
REMARK    4  A    between atoms: C_20  and  C_22 
ROOT
HETATM    1  O   UNL     1     -39.192 -53.158  14.959  1.00  0.00    -0.247 OA
HETATM    2  C   UNL     1     -39.900 -52.505  14.198  1.00  0.00     0.318 C 
HETATM    3  N   UNL     1     -39.356 -51.648  13.271  1.00  0.00    -0.343 N 
HETATM    4  N   UNL     1     -41.287 -52.565  14.209  1.00  0.00    -0.333 N 
HETATM    5  C   UNL     1     -42.183 -51.716  13.417  1.00  0.00     0.129 C 
HETATM    6  C   UNL     1     -42.840 -52.520  12.298  1.00  0.00     0.040 C 
HETATM    7  C   UNL     1     -44.158 -53.162  12.737  1.00  0.00     0.127 C 
HETATM    8  N   UNL     1     -44.144 -53.814  14.046  1.00  0.00    -0.350 N 
HETATM    9  C   UNL     1     -42.906 -54.475  14.479  1.00  0.00     0.145 C 
HETATM   10  C   UNL     1     -41.930 -53.495  15.154  1.00  0.00     0.147 C 
HETATM   11  C   UNL     1     -45.222 -53.824  14.936  1.00  0.00     0.224 C 
HETATM   12  O   UNL     1     -45.149 -54.328  16.055  1.00  0.00    -0.273 OA
HETATM   13  H   UNL     1     -39.854 -51.624  12.396  1.00  0.00     0.164 HD
ENDROOT
BRANCH   3  14
HETATM   14  C   UNL     1     -37.908 -51.526  13.178  1.00  0.00     0.129 C 
BRANCH  14  15
HETATM   15  C   UNL     1     -37.492 -50.353  12.291  1.00  0.00     0.060 C 
BRANCH  15  16
HETATM   16  C   UNL     1     -38.108 -49.051  12.725  1.00  0.00    -0.041 A 
HETATM   17  C   UNL     1     -37.696 -48.397  13.887  1.00  0.00     0.010 A 
HETATM   18  C   UNL     1     -38.296 -47.195  14.252  1.00  0.00     0.018 A 
HETATM   19  C   UNL     1     -39.290 -46.682  13.436  1.00  0.00     0.087 A 
HETATM   20  N   UNL     1     -39.709 -47.278  12.301  1.00  0.00    -0.375 N 
HETATM   21  C   UNL     1     -39.108 -48.444  11.970  1.00  0.00     0.094 A 
ATOM     22  HN  UNL     1     -40.442 -46.870  11.721  1.00  0.00     0.164 HD
ENDBRANCH  15  16
ENDBRANCH  14  15
ENDBRANCH   3  14
BRANCH  11  23
HETATM   23  C   UNL     1     -46.497 -53.154  14.527  1.00  0.00     0.078 A 
HETATM   24  C   UNL     1     -46.529 -51.640  14.480  1.00  0.00     0.015 A 
HETATM   25  C   UNL     1     -47.325 -52.371  15.521  1.00  0.00     0.015 A 
ENDBRANCH  11  23
TORSDOF 4
ENDMDL
MODEL 7
REMARK VINA RESULT:      -5.8      2.869      8.489
REMARK  4 active torsions:
REMARK  status: ('A' for Active; 'I' for Inactive)
REMARK       I    between atoms: C_2  and  N_3 
REMARK       I    between atoms: C_2  and  N_13 
REMARK    1  A    between atoms: N_3  and  C_4 
REMARK    2  A    between atoms: C_4  and  C_5 
REMARK    3  A    between atoms: C_5  and  C_6 
REMARK       I    between atoms: N_17  and  C_20 
REMARK    4  A    between atoms: C_20  and  C_22 
ROOT
HETATM    1  O   UNL     1     -44.275 -50.562  12.886  1.00  0.00    -0.247 OA
HETATM    2  C   UNL     1     -43.128 -50.305  13.239  1.00  0.00     0.318 C 
HETATM    3  N   UNL     1     -42.446 -51.118  14.113  1.00  0.00    -0.343 N 
HETATM    4  N   UNL     1     -42.431 -49.186  12.802  1.00  0.00    -0.333 N 
HETATM    5  C   UNL     1     -41.114 -48.761  13.287  1.00  0.00     0.129 C 
HETATM    6  C   UNL     1     -40.045 -48.996  12.224  1.00  0.00     0.040 C 
HETATM    7  C   UNL     1     -39.872 -47.793  11.292  1.00  0.00     0.127 C 
HETATM    8  N   UNL     1     -41.108 -47.181  10.807  1.00  0.00    -0.350 N 
HETATM    9  C   UNL     1     -42.263 -48.053  10.559  1.00  0.00     0.145 C 
HETATM   10  C   UNL     1     -43.092 -48.296  11.833  1.00  0.00     0.147 C 
HETATM   11  C   UNL     1     -41.281 -45.810  10.592  1.00  0.00     0.224 C 
HETATM   12  O   UNL     1     -42.357 -45.328  10.245  1.00  0.00    -0.273 OA
HETATM   13  H   UNL     1     -41.463 -51.203  13.909  1.00  0.00     0.164 HD
ENDROOT
BRANCH   3  14
HETATM   14  C   UNL     1     -43.094 -52.321  14.617  1.00  0.00     0.129 C 
BRANCH  14  15
HETATM   15  C   UNL     1     -42.680 -53.563  13.828  1.00  0.00     0.060 C 
BRANCH  15  16
HETATM   16  C   UNL     1     -41.362 -54.127  14.284  1.00  0.00    -0.041 A 
HETATM   17  C   UNL     1     -41.191 -54.644  15.569  1.00  0.00     0.010 A 
HETATM   18  C   UNL     1     -39.953 -55.153  15.950  1.00  0.00     0.018 A 
HETATM   19  C   UNL     1     -38.922 -55.133  15.027  1.00  0.00     0.087 A 
HETATM   20  N   UNL     1     -39.049 -54.650  13.773  1.00  0.00    -0.375 N 
HETATM   21  C   UNL     1     -40.264 -54.163  13.430  1.00  0.00     0.094 A 
ATOM     22  HN  UNL     1     -38.268 -54.653  13.116  1.00  0.00     0.164 HD
ENDBRANCH  15  16
ENDBRANCH  14  15
ENDBRANCH   3  14
BRANCH  11  23
HETATM   23  C   UNL     1     -40.124 -44.894  10.842  1.00  0.00     0.078 A 
HETATM   24  C   UNL     1     -39.977 -44.281  12.219  1.00  0.00     0.015 A 
HETATM   25  C   UNL     1     -40.330 -43.410  11.050  1.00  0.00     0.015 A 
ENDBRANCH  11  23
TORSDOF 4
ENDMDL
MODEL 8
REMARK VINA RESULT:      -5.8      3.359      6.982
REMARK  4 active torsions:
REMARK  status: ('A' for Active; 'I' for Inactive)
REMARK       I    between atoms: C_2  and  N_3 
REMARK       I    between atoms: C_2  and  N_13 
REMARK    1  A    between atoms: N_3  and  C_4 
REMARK    2  A    between atoms: C_4  and  C_5 
REMARK    3  A    between atoms: C_5  and  C_6 
REMARK       I    between atoms: N_17  and  C_20 
REMARK    4  A    between atoms: C_20  and  C_22 
ROOT
HETATM    1  O   UNL     1     -41.440 -52.338  11.642  1.00  0.00    -0.247 OA
HETATM    2  C   UNL     1     -41.489 -51.723  12.702  1.00  0.00     0.318 C 
HETATM    3  N   UNL     1     -41.845 -52.344  13.876  1.00  0.00    -0.343 N 
HETATM    4  N   UNL     1     -41.203 -50.368  12.810  1.00  0.00    -0.333 N 
HETATM    5  C   UNL     1     -41.369 -49.557  14.020  1.00  0.00     0.129 C 
HETATM    6  C   UNL     1     -40.013 -49.192  14.617  1.00  0.00     0.040 C 
HETATM    7  C   UNL     1     -39.459 -47.881  14.051  1.00  0.00     0.127 C 
HETATM    8  N   UNL     1     -39.566 -47.717  12.602  1.00  0.00    -0.350 N 
HETATM    9  C   UNL     1     -39.438 -48.913  11.758  1.00  0.00     0.145 C 
HETATM   10  C   UNL     1     -40.777 -49.654  11.594  1.00  0.00     0.147 C 
HETATM   11  C   UNL     1     -39.816 -46.502  11.959  1.00  0.00     0.224 C 
HETATM   12  O   UNL     1     -39.963 -46.417  10.742  1.00  0.00    -0.273 OA
HETATM   13  H   UNL     1     -41.339 -52.013  14.682  1.00  0.00     0.164 HD
ENDROOT
BRANCH   3  14
HETATM   14  C   UNL     1     -42.153 -53.767  13.863  1.00  0.00     0.129 C 
BRANCH  14  15
HETATM   15  C   UNL     1     -43.525 -54.057  14.471  1.00  0.00     0.060 C 
BRANCH  15  16
HETATM   16  C   UNL     1     -44.605 -53.169  13.915  1.00  0.00    -0.041 A 
HETATM   17  C   UNL     1     -45.322 -52.290  14.728  1.00  0.00     0.010 A 
HETATM   18  C   UNL     1     -46.315 -51.489  14.171  1.00  0.00     0.018 A 
HETATM   19  C   UNL     1     -46.555 -51.589  12.812  1.00  0.00     0.087 A 
HETATM   20  N   UNL     1     -45.878 -52.418  11.990  1.00  0.00    -0.375 N 
HETATM   21  C   UNL     1     -44.918 -53.185  12.558  1.00  0.00     0.094 A 
ATOM     22  HN  UNL     1     -46.078 -52.465  10.992  1.00  0.00     0.164 HD
ENDBRANCH  15  16
ENDBRANCH  14  15
ENDBRANCH   3  14
BRANCH  11  23
HETATM   23  C   UNL     1     -39.957 -45.265  12.793  1.00  0.00     0.078 A 
HETATM   24  C   UNL     1     -41.342 -44.679  12.978  1.00  0.00     0.015 A 
HETATM   25  C   UNL     1     -40.320 -43.937  12.168  1.00  0.00     0.015 A 
ENDBRANCH  11  23
TORSDOF 4
ENDMDL
MODEL 9
REMARK VINA RESULT:      -5.7      2.792      7.835
REMARK  4 active torsions:
REMARK  status: ('A' for Active; 'I' for Inactive)
REMARK       I    between atoms: C_2  and  N_3 
REMARK       I    between atoms: C_2  and  N_13 
REMARK    1  A    between atoms: N_3  and  C_4 
REMARK    2  A    between atoms: C_4  and  C_5 
REMARK    3  A    between atoms: C_5  and  C_6 
REMARK       I    between atoms: N_17  and  C_20 
REMARK    4  A    between atoms: C_20  and  C_22 
ROOT
HETATM    1  O   UNL     1     -41.512 -50.534  14.799  1.00  0.00    -0.247 OA
HETATM    2  C   UNL     1     -41.013 -50.300  13.703  1.00  0.00     0.318 C 
HETATM    3  N   UNL     1     -40.338 -51.270  13.001  1.00  0.00    -0.343 N 
HETATM    4  N   UNL     1     -41.078 -49.058  13.087  1.00  0.00    -0.333 N 
HETATM    5  C   UNL     1     -40.393 -48.687  11.844  1.00  0.00     0.129 C 
HETATM    6  C   UNL     1     -41.391 -48.544  10.699  1.00  0.00     0.040 C 
HETATM    7  C   UNL     1     -41.950 -47.123  10.585  1.00  0.00     0.127 C 
HETATM    8  N   UNL     1     -42.350 -46.493  11.841  1.00  0.00    -0.350 N 
HETATM    9  C   UNL     1     -42.914 -47.346  12.896  1.00  0.00     0.145 C 
HETATM   10  C   UNL     1     -41.822 -47.986  13.771  1.00  0.00     0.147 C 
HETATM   11  C   UNL     1     -42.203 -45.132  12.127  1.00  0.00     0.224 C 
HETATM   12  O   UNL     1     -42.493 -44.653  13.220  1.00  0.00    -0.273 OA
HETATM   13  H   UNL     1     -40.477 -51.225  12.004  1.00  0.00     0.164 HD
ENDROOT
BRANCH   3  14
HETATM   14  C   UNL     1     -40.228 -52.609  13.563  1.00  0.00     0.129 C 
BRANCH  14  15
HETATM   15  C   UNL     1     -40.957 -53.646  12.710  1.00  0.00     0.060 C 
BRANCH  15  16
HETATM   16  C   UNL     1     -42.377 -53.866  13.154  1.00  0.00    -0.041 A 
HETATM   17  C   UNL     1     -42.684 -54.629  14.281  1.00  0.00     0.010 A 
HETATM   18  C   UNL     1     -44.013 -54.809  14.654  1.00  0.00     0.018 A 
HETATM   19  C   UNL     1     -44.997 -54.211  13.885  1.00  0.00     0.087 A 
HETATM   20  N   UNL     1     -44.742 -53.459  12.795  1.00  0.00    -0.375 N 
HETATM   21  C   UNL     1     -43.442 -53.300  12.457  1.00  0.00     0.094 A 
ATOM     22  HN  UNL     1     -45.492 -53.031  12.252  1.00  0.00     0.164 HD
ENDBRANCH  15  16
ENDBRANCH  14  15
ENDBRANCH   3  14
BRANCH  11  23
HETATM   23  C   UNL     1     -41.625 -44.237  11.074  1.00  0.00     0.078 A 
HETATM   24  C   UNL     1     -40.128 -44.009  11.068  1.00  0.00     0.015 A 
HETATM   25  C   UNL     1     -41.052 -42.883  11.425  1.00  0.00     0.015 A 
ENDBRANCH  11  23
TORSDOF 4
ENDMDL
