MODEL 1
REMARK VINA RESULT:      -6.0      0.000      0.000
REMARK  6 active torsions:
REMARK  status: ('A' for Active; 'I' for Inactive)
REMARK    1  A    between atoms: O_1  and  C_2 
REMARK    2  A    between atoms: C_2  and  C_3 
REMARK    3  A    between atoms: C_3  and  C_4 
REMARK    4  A    between atoms: C_4  and  N_5 
REMARK       I    between atoms: N_5  and  C_6 
REMARK       I    between atoms: C_6  and  N_8 
REMARK    5  A    between atoms: N_8  and  C_9 
REMARK    6  A    between atoms: C_13  and  C_17 
ROOT
HETATM    1  N   UNL     1     -43.741 -51.534  12.998  1.00  0.00    -0.342 N 
HETATM    2  C   UNL     1     -43.084 -50.330  12.894  1.00  0.00     0.320 C 
HETATM    3  O   UNL     1     -43.136 -49.530  13.824  1.00  0.00    -0.247 OA
HETATM    4  N   UNL     1     -42.391 -50.112  11.724  1.00  0.00    -0.306 N 
HETATM    5  H   UNL     1     -44.079 -52.002  12.164  1.00  0.00     0.164 HD
HETATM    6  H   UNL     1     -42.289 -50.886  11.080  1.00  0.00     0.171 HD
ENDROOT
BRANCH   4   7
HETATM    7  C   UNL     1     -41.724 -48.885  11.447  1.00  0.00     0.067 A 
HETATM    8  C   UNL     1     -40.597 -48.429  12.111  1.00  0.00     0.120 A 
HETATM    9  N   UNL     1     -39.971 -47.259  11.871  1.00  0.00    -0.353 N 
HETATM   10  C   UNL     1     -40.474 -46.474  10.909  1.00  0.00     0.085 A 
ATOM     11  HN  UNL     1     -39.147 -46.981  12.403  1.00  0.00     0.166 HD
HETATM   12  N   UNL     1     -41.568 -46.817  10.192  1.00  0.00    -0.353 N 
HETATM   13  C   UNL     1     -42.162 -48.007  10.476  1.00  0.00     0.120 A 
ATOM     14  HN  UNL     1     -41.935 -46.205   9.463  1.00  0.00     0.166 HD
BRANCH  10  15
HETATM   15  C   UNL     1     -39.784 -45.151  10.685  1.00  0.00     0.053 A 
HETATM   16  C   UNL     1     -39.324 -44.303  11.843  1.00  0.00     0.013 A 
HETATM   17  C   UNL     1     -40.502 -43.858  11.030  1.00  0.00     0.013 A 
ENDBRANCH  10  15
ENDBRANCH   4   7
BRANCH   1  18
HETATM   18  C   UNL     1     -44.596 -51.618  14.169  1.00  0.00     0.136 C 
BRANCH  18  19
HETATM   19  C   UNL     1     -46.053 -51.869  13.904  1.00  0.00    -0.003 A 
HETATM   20  C   UNL     1     -46.803 -52.861  14.775  1.00  0.00     0.014 A 
HETATM   21  C   UNL     1     -46.990 -51.391  15.006  1.00  0.00     0.014 A 
BRANCH  19  22
HETATM   22  C   UNL     1     -46.508 -51.567  12.501  1.00  0.00     0.175 C 
BRANCH  22  23
HETATM   23  O   UNL     1     -46.316 -52.709  11.674  1.00  0.00    -0.400 OA
HETATM   24  H   UNL     1     -45.653 -52.445  11.012  1.00  0.00     0.209 HD
ENDBRANCH  22  23
ENDBRANCH  19  22
ENDBRANCH  18  19
ENDBRANCH   1  18
TORSDOF 6
ENDMDL
MODEL 2
REMARK VINA RESULT:      -6.0      4.004      6.598
REMARK  6 active torsions:
REMARK  status: ('A' for Active; 'I' for Inactive)
REMARK    1  A    between atoms: O_1  and  C_2 
REMARK    2  A    between atoms: C_2  and  C_3 
REMARK    3  A    between atoms: C_3  and  C_4 
REMARK    4  A    between atoms: C_4  and  N_5 
REMARK       I    between atoms: N_5  and  C_6 
REMARK       I    between atoms: C_6  and  N_8 
REMARK    5  A    between atoms: N_8  and  C_9 
REMARK    6  A    between atoms: C_13  and  C_17 
ROOT
HETATM    1  N   UNL     1     -41.776 -48.201   9.631  1.00  0.00    -0.342 N 
HETATM    2  C   UNL     1     -41.612 -49.030  10.717  1.00  0.00     0.320 C 
HETATM    3  O   UNL     1     -42.436 -49.004  11.628  1.00  0.00    -0.247 OA
HETATM    4  N   UNL     1     -40.509 -49.854  10.695  1.00  0.00    -0.306 N 
HETATM    5  H   UNL     1     -40.967 -47.881   9.111  1.00  0.00     0.164 HD
HETATM    6  H   UNL     1     -39.970 -49.905   9.841  1.00  0.00     0.171 HD
ENDROOT
BRANCH   4   7
HETATM    7  C   UNL     1     -40.173 -50.711  11.781  1.00  0.00     0.067 A 
HETATM    8  C   UNL     1     -39.142 -50.487  12.678  1.00  0.00     0.120 A 
HETATM    9  N   UNL     1     -38.802 -51.304  13.696  1.00  0.00    -0.353 N 
HETATM   10  C   UNL     1     -39.523 -52.421  13.859  1.00  0.00     0.085 A 
ATOM     11  HN  UNL     1     -38.025 -51.080  14.317  1.00  0.00     0.166 HD
HETATM   12  N   UNL     1     -40.555 -52.743  13.048  1.00  0.00    -0.353 N 
HETATM   13  C   UNL     1     -40.853 -51.885  12.036  1.00  0.00     0.120 A 
ATOM     14  HN  UNL     1     -41.092 -53.598  13.189  1.00  0.00     0.166 HD
BRANCH  10  15
HETATM   15  C   UNL     1     -39.101 -53.341  14.978  1.00  0.00     0.053 A 
HETATM   16  C   UNL     1     -39.968 -54.495  15.411  1.00  0.00     0.013 A 
HETATM   17  C   UNL     1     -39.836 -53.300  16.307  1.00  0.00     0.013 A 
ENDBRANCH  10  15
ENDBRANCH   4   7
BRANCH   1  18
HETATM   18  C   UNL     1     -42.847 -47.237   9.806  1.00  0.00     0.136 C 
BRANCH  18  19
HETATM   19  C   UNL     1     -44.069 -47.449   8.957  1.00  0.00    -0.003 A 
HETATM   20  C   UNL     1     -45.424 -47.575   9.629  1.00  0.00     0.014 A 
HETATM   21  C   UNL     1     -45.053 -46.286   8.958  1.00  0.00     0.014 A 
BRANCH  19  22
HETATM   22  C   UNL     1     -43.809 -48.067   7.609  1.00  0.00     0.175 C 
BRANCH  22  23
HETATM   23  O   UNL     1     -42.839 -47.301   6.905  1.00  0.00    -0.400 OA
HETATM   24  H   UNL     1     -42.015 -47.385   7.417  1.00  0.00     0.209 HD
ENDBRANCH  22  23
ENDBRANCH  19  22
ENDBRANCH  18  19
ENDBRANCH   1  18
TORSDOF 6
ENDMDL
MODEL 3
REMARK VINA RESULT:      -5.5      1.510      1.848
REMARK  6 active torsions:
REMARK  status: ('A' for Active; 'I' for Inactive)
REMARK    1  A    between atoms: O_1  and  C_2 
REMARK    2  A    between atoms: C_2  and  C_3 
REMARK    3  A    between atoms: C_3  and  C_4 
REMARK    4  A    between atoms: C_4  and  N_5 
REMARK       I    between atoms: N_5  and  C_6 
REMARK       I    between atoms: C_6  and  N_8 
REMARK    5  A    between atoms: N_8  and  C_9 
REMARK    6  A    between atoms: C_13  and  C_17 
ROOT
HETATM    1  N   UNL     1     -42.881 -52.053  12.536  1.00  0.00    -0.342 N 
HETATM    2  C   UNL     1     -42.410 -50.760  12.535  1.00  0.00     0.320 C 
HETATM    3  O   UNL     1     -42.623 -50.038  13.506  1.00  0.00    -0.247 OA
HETATM    4  N   UNL     1     -41.708 -50.366  11.418  1.00  0.00    -0.306 N 
HETATM    5  H   UNL     1     -43.107 -52.510  11.660  1.00  0.00     0.164 HD
HETATM    6  H   UNL     1     -41.462 -51.073  10.737  1.00  0.00     0.171 HD
ENDROOT
BRANCH   4   7
HETATM    7  C   UNL     1     -41.223 -49.039  11.248  1.00  0.00     0.067 A 
HETATM    8  C   UNL     1     -40.129 -48.504  11.907  1.00  0.00     0.120 A 
HETATM    9  N   UNL     1     -39.676 -47.241  11.769  1.00  0.00    -0.353 N 
HETATM   10  C   UNL     1     -40.331 -46.438  10.920  1.00  0.00     0.085 A 
ATOM     11  HN  UNL     1     -38.865 -46.910  12.291  1.00  0.00     0.166 HD
HETATM   12  N   UNL     1     -41.411 -46.851  10.219  1.00  0.00    -0.353 N 
HETATM   13  C   UNL     1     -41.827 -48.133  10.398  1.00  0.00     0.120 A 
ATOM     14  HN  UNL     1     -41.896 -46.224   9.578  1.00  0.00     0.166 HD
BRANCH  10  15
HETATM   15  C   UNL     1     -39.833 -45.018  10.812  1.00  0.00     0.053 A 
HETATM   16  C   UNL     1     -39.462 -44.224  12.038  1.00  0.00     0.013 A 
HETATM   17  C   UNL     1     -40.711 -43.873  11.287  1.00  0.00     0.013 A 
ENDBRANCH  10  15
ENDBRANCH   4   7
BRANCH   1  18
HETATM   18  C   UNL     1     -43.763 -52.338  13.653  1.00  0.00     0.136 C 
BRANCH  18  19
HETATM   19  C   UNL     1     -43.920 -53.788  14.015  1.00  0.00    -0.003 A 
HETATM   20  C   UNL     1     -42.711 -54.561  14.510  1.00  0.00     0.014 A 
HETATM   21  C   UNL     1     -43.741 -54.096  15.496  1.00  0.00     0.014 A 
BRANCH  19  22
HETATM   22  C   UNL     1     -45.073 -54.491  13.350  1.00  0.00     0.175 C 
BRANCH  22  23
HETATM   23  O   UNL     1     -45.779 -53.579  12.516  1.00  0.00    -0.400 OA
HETATM   24  H   UNL     1     -45.287 -52.740  12.568  1.00  0.00     0.209 HD
ENDBRANCH  22  23
ENDBRANCH  19  22
ENDBRANCH  18  19
ENDBRANCH   1  18
TORSDOF 6
ENDMDL
MODEL 4
REMARK VINA RESULT:      -5.4      2.395      7.571
REMARK  6 active torsions:
REMARK  status: ('A' for Active; 'I' for Inactive)
REMARK    1  A    between atoms: O_1  and  C_2 
REMARK    2  A    between atoms: C_2  and  C_3 
REMARK    3  A    between atoms: C_3  and  C_4 
REMARK    4  A    between atoms: C_4  and  N_5 
REMARK       I    between atoms: N_5  and  C_6 
REMARK       I    between atoms: C_6  and  N_8 
REMARK    5  A    between atoms: N_8  and  C_9 
REMARK    6  A    between atoms: C_13  and  C_17 
ROOT
HETATM    1  N   UNL     1     -39.919 -47.262  11.669  1.00  0.00    -0.342 N 
HETATM    2  C   UNL     1     -40.755 -48.341  11.496  1.00  0.00     0.320 C 
HETATM    3  O   UNL     1     -41.449 -48.412  10.485  1.00  0.00    -0.247 OA
HETATM    4  N   UNL     1     -40.742 -49.290  12.494  1.00  0.00    -0.306 N 
HETATM    5  H   UNL     1     -39.681 -46.949  12.604  1.00  0.00     0.164 HD
HETATM    6  H   UNL     1     -40.035 -49.213  13.213  1.00  0.00     0.171 HD
ENDROOT
BRANCH   4   7
HETATM    7  C   UNL     1     -41.606 -50.421  12.485  1.00  0.00     0.067 A 
HETATM    8  C   UNL     1     -42.915 -50.422  12.936  1.00  0.00     0.120 A 
HETATM    9  N   UNL     1     -43.733 -51.494  12.952  1.00  0.00    -0.353 N 
HETATM   10  C   UNL     1     -43.245 -52.653  12.487  1.00  0.00     0.085 A 
ATOM     11  HN  UNL     1     -44.688 -51.426  13.305  1.00  0.00     0.166 HD
HETATM   12  N   UNL     1     -41.983 -52.770  12.018  1.00  0.00    -0.353 N 
HETATM   13  C   UNL     1     -41.200 -51.659  12.027  1.00  0.00     0.120 A 
ATOM     14  HN  UNL     1     -41.630 -53.661  11.668  1.00  0.00     0.166 HD
BRANCH  10  15
HETATM   15  C   UNL     1     -44.163 -53.848  12.552  1.00  0.00     0.053 A 
HETATM   16  C   UNL     1     -45.437 -53.813  13.357  1.00  0.00     0.013 A 
HETATM   17  C   UNL     1     -44.283 -54.637  13.844  1.00  0.00     0.013 A 
ENDBRANCH  10  15
ENDBRANCH   4   7
BRANCH   1  18
HETATM   18  C   UNL     1     -40.120 -46.220  10.677  1.00  0.00     0.136 C 
BRANCH  18  19
HETATM   19  C   UNL     1     -40.994 -45.073  11.096  1.00  0.00    -0.003 A 
HETATM   20  C   UNL     1     -40.727 -44.383  12.421  1.00  0.00     0.014 A 
HETATM   21  C   UNL     1     -40.290 -43.723  11.147  1.00  0.00     0.014 A 
BRANCH  19  22
HETATM   22  C   UNL     1     -42.366 -45.056  10.474  1.00  0.00     0.175 C 
BRANCH  22  23
HETATM   23  O   UNL     1     -42.361 -45.817   9.272  1.00  0.00    -0.400 OA
HETATM   24  H   UNL     1     -41.426 -46.025   9.096  1.00  0.00     0.209 HD
ENDBRANCH  22  23
ENDBRANCH  19  22
ENDBRANCH  18  19
ENDBRANCH   1  18
TORSDOF 6
ENDMDL
MODEL 5
REMARK VINA RESULT:      -5.3      3.549      7.368
REMARK  6 active torsions:
REMARK  status: ('A' for Active; 'I' for Inactive)
REMARK    1  A    between atoms: O_1  and  C_2 
REMARK    2  A    between atoms: C_2  and  C_3 
REMARK    3  A    between atoms: C_3  and  C_4 
REMARK    4  A    between atoms: C_4  and  N_5 
REMARK       I    between atoms: N_5  and  C_6 
REMARK       I    between atoms: C_6  and  N_8 
REMARK    5  A    between atoms: N_8  and  C_9 
REMARK    6  A    between atoms: C_13  and  C_17 
ROOT
HETATM    1  N   UNL     1     -41.507 -47.973   9.987  1.00  0.00    -0.342 N 
HETATM    2  C   UNL     1     -41.435 -48.918  10.984  1.00  0.00     0.320 C 
HETATM    3  O   UNL     1     -42.142 -48.799  11.982  1.00  0.00    -0.247 OA
HETATM    4  N   UNL     1     -40.557 -49.958  10.778  1.00  0.00    -0.306 N 
HETATM    5  H   UNL     1     -40.699 -47.790   9.402  1.00  0.00     0.164 HD
HETATM    6  H   UNL     1     -40.127 -50.044   9.867  1.00  0.00     0.171 HD
ENDROOT
BRANCH   4   7
HETATM    7  C   UNL     1     -40.325 -50.968  11.754  1.00  0.00     0.067 A 
HETATM    8  C   UNL     1     -41.115 -52.091  11.934  1.00  0.00     0.120 A 
HETATM    9  N   UNL     1     -40.916 -53.042  12.870  1.00  0.00    -0.353 N 
HETATM   10  C   UNL     1     -39.865 -52.894  13.689  1.00  0.00     0.085 A 
ATOM     11  HN  UNL     1     -41.542 -53.843  12.952  1.00  0.00     0.166 HD
HETATM   12  N   UNL     1     -39.023 -51.840  13.604  1.00  0.00    -0.353 N 
HETATM   13  C   UNL     1     -39.271 -50.910  12.645  1.00  0.00     0.120 A 
ATOM     14  HN  UNL     1     -38.229 -51.747  14.237  1.00  0.00     0.166 HD
BRANCH  10  15
HETATM   15  C   UNL     1     -39.685 -53.947  14.755  1.00  0.00     0.053 A 
HETATM   16  C   UNL     1     -40.869 -54.658  15.360  1.00  0.00     0.013 A 
HETATM   17  C   UNL     1     -40.115 -53.656  16.182  1.00  0.00     0.013 A 
ENDBRANCH  10  15
ENDBRANCH   4   7
BRANCH   1  18
HETATM   18  C   UNL     1     -42.309 -46.818  10.351  1.00  0.00     0.136 C 
BRANCH  18  19
HETATM   19  C   UNL     1     -41.551 -45.624  10.858  1.00  0.00    -0.003 A 
HETATM   20  C   UNL     1     -42.297 -44.327  11.112  1.00  0.00     0.014 A 
HETATM   21  C   UNL     1     -41.915 -45.195  12.274  1.00  0.00     0.014 A 
BRANCH  19  22
HETATM   22  C   UNL     1     -40.077 -45.625  10.549  1.00  0.00     0.175 C 
BRANCH  22  23
HETATM   23  O   UNL     1     -39.828 -44.860   9.376  1.00  0.00    -0.400 OA
HETATM   24  H   UNL     1     -39.395 -44.043   9.682  1.00  0.00     0.209 HD
ENDBRANCH  22  23
ENDBRANCH  19  22
ENDBRANCH  18  19
ENDBRANCH   1  18
TORSDOF 6
ENDMDL
MODEL 6
REMARK VINA RESULT:      -5.3      2.894      3.672
REMARK  6 active torsions:
REMARK  status: ('A' for Active; 'I' for Inactive)
REMARK    1  A    between atoms: O_1  and  C_2 
REMARK    2  A    between atoms: C_2  and  C_3 
REMARK    3  A    between atoms: C_3  and  C_4 
REMARK    4  A    between atoms: C_4  and  N_5 
REMARK       I    between atoms: N_5  and  C_6 
REMARK       I    between atoms: C_6  and  N_8 
REMARK    5  A    between atoms: N_8  and  C_9 
REMARK    6  A    between atoms: C_13  and  C_17 
ROOT
HETATM    1  N   UNL     1     -42.493 -52.030  13.498  1.00  0.00    -0.342 N 
HETATM    2  C   UNL     1     -41.945 -50.824  13.128  1.00  0.00     0.320 C 
HETATM    3  O   UNL     1     -40.855 -50.488  13.586  1.00  0.00    -0.247 OA
HETATM    4  N   UNL     1     -42.677 -50.067  12.240  1.00  0.00    -0.306 N 
HETATM    5  H   UNL     1     -43.500 -52.148  13.507  1.00  0.00     0.164 HD
HETATM    6  H   UNL     1     -43.490 -50.490  11.812  1.00  0.00     0.171 HD
ENDROOT
BRANCH   4   7
HETATM    7  C   UNL     1     -42.269 -48.768  11.825  1.00  0.00     0.067 A 
HETATM    8  C   UNL     1     -41.352 -48.509  10.820  1.00  0.00     0.120 A 
HETATM    9  N   UNL     1     -40.944 -47.283  10.435  1.00  0.00    -0.353 N 
HETATM   10  C   UNL     1     -41.471 -46.227  11.069  1.00  0.00     0.085 A 
ATOM     11  HN  UNL     1     -40.259 -47.164   9.689  1.00  0.00     0.166 HD
HETATM   12  N   UNL     1     -42.377 -46.358  12.063  1.00  0.00    -0.353 N 
HETATM   13  C   UNL     1     -42.753 -47.616  12.414  1.00  0.00     0.120 A 
ATOM     14  HN  UNL     1     -42.767 -45.540  12.533  1.00  0.00     0.166 HD
BRANCH  10  15
HETATM   15  C   UNL     1     -40.969 -44.867  10.651  1.00  0.00     0.053 A 
HETATM   16  C   UNL     1     -39.592 -44.688  10.064  1.00  0.00     0.013 A 
HETATM   17  C   UNL     1     -39.870 -44.189  11.450  1.00  0.00     0.013 A 
ENDBRANCH  10  15
ENDBRANCH   4   7
BRANCH   1  18
HETATM   18  C   UNL     1     -41.761 -52.684  14.568  1.00  0.00     0.136 C 
BRANCH  18  19
HETATM   19  C   UNL     1     -40.764 -53.724  14.144  1.00  0.00    -0.003 A 
HETATM   20  C   UNL     1     -39.351 -53.662  14.695  1.00  0.00     0.014 A 
HETATM   21  C   UNL     1     -40.315 -54.665  15.255  1.00  0.00     0.014 A 
BRANCH  19  22
HETATM   22  C   UNL     1     -41.054 -54.386  12.822  1.00  0.00     0.175 C 
BRANCH  22  23
HETATM   23  O   UNL     1     -40.478 -53.628  11.765  1.00  0.00    -0.400 OA
HETATM   24  H   UNL     1     -39.620 -53.315  12.104  1.00  0.00     0.209 HD
ENDBRANCH  22  23
ENDBRANCH  19  22
ENDBRANCH  18  19
ENDBRANCH   1  18
TORSDOF 6
ENDMDL
MODEL 7
REMARK VINA RESULT:      -5.3      4.749      6.064
REMARK  6 active torsions:
REMARK  status: ('A' for Active; 'I' for Inactive)
REMARK    1  A    between atoms: O_1  and  C_2 
REMARK    2  A    between atoms: C_2  and  C_3 
REMARK    3  A    between atoms: C_3  and  C_4 
REMARK    4  A    between atoms: C_4  and  N_5 
REMARK       I    between atoms: N_5  and  C_6 
REMARK       I    between atoms: C_6  and  N_8 
REMARK    5  A    between atoms: N_8  and  C_9 
REMARK    6  A    between atoms: C_13  and  C_17 
ROOT
HETATM    1  N   UNL     1     -39.773 -48.647  11.144  1.00  0.00    -0.342 N 
HETATM    2  C   UNL     1     -40.142 -47.369  11.494  1.00  0.00     0.320 C 
HETATM    3  O   UNL     1     -40.132 -47.039  12.678  1.00  0.00    -0.247 OA
HETATM    4  N   UNL     1     -40.498 -46.531  10.461  1.00  0.00    -0.306 N 
HETATM    5  H   UNL     1     -40.158 -49.076  10.310  1.00  0.00     0.164 HD
HETATM    6  H   UNL     1     -40.338 -46.850   9.514  1.00  0.00     0.171 HD
ENDROOT
BRANCH   4   7
HETATM    7  C   UNL     1     -40.970 -45.206  10.678  1.00  0.00     0.067 A 
HETATM    8  C   UNL     1     -40.167 -44.080  10.740  1.00  0.00     0.120 A 
HETATM    9  N   UNL     1     -40.603 -42.823  10.968  1.00  0.00    -0.353 N 
HETATM   10  C   UNL     1     -41.920 -42.647  11.141  1.00  0.00     0.085 A 
ATOM     11  HN  UNL     1     -39.954 -42.038  11.007  1.00  0.00     0.166 HD
HETATM   12  N   UNL     1     -42.800 -43.672  11.098  1.00  0.00    -0.353 N 
HETATM   13  C   UNL     1     -42.307 -44.918  10.868  1.00  0.00     0.120 A 
ATOM     14  HN  UNL     1     -43.799 -43.516  11.232  1.00  0.00     0.166 HD
BRANCH  10  15
HETATM   15  C   UNL     1     -42.381 -41.241  11.435  1.00  0.00     0.053 A 
HETATM   16  C   UNL     1     -41.407 -40.171  11.860  1.00  0.00     0.013 A 
HETATM   17  C   UNL     1     -42.371 -40.727  12.865  1.00  0.00     0.013 A 
ENDBRANCH  10  15
ENDBRANCH   4   7
BRANCH   1  18
HETATM   18  C   UNL     1     -39.591 -49.522  12.289  1.00  0.00     0.136 C 
BRANCH  18  19
HETATM   19  C   UNL     1     -38.169 -49.816  12.674  1.00  0.00    -0.003 A 
HETATM   20  C   UNL     1     -37.463 -48.898  13.654  1.00  0.00     0.014 A 
HETATM   21  C   UNL     1     -37.976 -50.224  14.128  1.00  0.00     0.014 A 
BRANCH  19  22
HETATM   22  C   UNL     1     -37.392 -50.630  11.672  1.00  0.00     0.175 C 
BRANCH  22  23
HETATM   23  O   UNL     1     -37.416 -49.987  10.404  1.00  0.00    -0.400 OA
HETATM   24  H   UNL     1     -36.574 -50.221   9.974  1.00  0.00     0.209 HD
ENDBRANCH  22  23
ENDBRANCH  19  22
ENDBRANCH  18  19
ENDBRANCH   1  18
TORSDOF 6
ENDMDL
MODEL 8
REMARK VINA RESULT:      -5.2      3.646      4.819
REMARK  6 active torsions:
REMARK  status: ('A' for Active; 'I' for Inactive)
REMARK    1  A    between atoms: O_1  and  C_2 
REMARK    2  A    between atoms: C_2  and  C_3 
REMARK    3  A    between atoms: C_3  and  C_4 
REMARK    4  A    between atoms: C_4  and  N_5 
REMARK       I    between atoms: N_5  and  C_6 
REMARK       I    between atoms: C_6  and  N_8 
REMARK    5  A    between atoms: N_8  and  C_9 
REMARK    6  A    between atoms: C_13  and  C_17 
ROOT
HETATM    1  N   UNL     1     -41.323 -52.227  14.929  1.00  0.00    -0.342 N 
HETATM    2  C   UNL     1     -41.746 -51.624  13.767  1.00  0.00     0.320 C 
HETATM    3  O   UNL     1     -42.249 -52.308  12.879  1.00  0.00    -0.247 OA
HETATM    4  N   UNL     1     -41.577 -50.260  13.690  1.00  0.00    -0.306 N 
HETATM    5  H   UNL     1     -40.561 -51.823  15.461  1.00  0.00     0.164 HD
HETATM    6  H   UNL     1     -41.287 -49.769  14.525  1.00  0.00     0.171 HD
ENDROOT
BRANCH   4   7
HETATM    7  C   UNL     1     -41.902 -49.513  12.522  1.00  0.00     0.067 A 
HETATM    8  C   UNL     1     -41.047 -49.305  11.452  1.00  0.00     0.120 A 
HETATM    9  N   UNL     1     -41.338 -48.581  10.352  1.00  0.00    -0.353 N 
HETATM   10  C   UNL     1     -42.554 -48.022  10.282  1.00  0.00     0.085 A 
ATOM     11  HN  UNL     1     -40.658 -48.462   9.602  1.00  0.00     0.166 HD
HETATM   12  N   UNL     1     -43.473 -48.162  11.264  1.00  0.00    -0.353 N 
HETATM   13  C   UNL     1     -43.127 -48.899  12.352  1.00  0.00     0.120 A 
ATOM     14  HN  UNL     1     -44.394 -47.729  11.192  1.00  0.00     0.166 HD
BRANCH  10  15
HETATM   15  C   UNL     1     -42.844 -47.183   9.062  1.00  0.00     0.053 A 
HETATM   16  C   UNL     1     -44.235 -46.682   8.771  1.00  0.00     0.013 A 
HETATM   17  C   UNL     1     -43.654 -47.769   7.919  1.00  0.00     0.013 A 
ENDBRANCH  10  15
ENDBRANCH   4   7
BRANCH   1  18
HETATM   18  C   UNL     1     -41.362 -53.678  14.866  1.00  0.00     0.136 C 
BRANCH  18  19
HETATM   19  C   UNL     1     -40.082 -54.386  15.209  1.00  0.00    -0.003 A 
HETATM   20  C   UNL     1     -39.499 -54.227  16.602  1.00  0.00     0.014 A 
HETATM   21  C   UNL     1     -40.227 -55.490  16.248  1.00  0.00     0.014 A 
BRANCH  19  22
HETATM   22  C   UNL     1     -39.204 -54.724  14.033  1.00  0.00     0.175 C 
BRANCH  22  23
HETATM   23  O   UNL     1     -39.641 -54.012  12.882  1.00  0.00    -0.400 OA
HETATM   24  H   UNL     1     -38.832 -53.673  12.460  1.00  0.00     0.209 HD
ENDBRANCH  22  23
ENDBRANCH  19  22
ENDBRANCH  18  19
ENDBRANCH   1  18
TORSDOF 6
ENDMDL
MODEL 9
REMARK VINA RESULT:      -4.9      2.420      7.862
REMARK  6 active torsions:
REMARK  status: ('A' for Active; 'I' for Inactive)
REMARK    1  A    between atoms: O_1  and  C_2 
REMARK    2  A    between atoms: C_2  and  C_3 
REMARK    3  A    between atoms: C_3  and  C_4 
REMARK    4  A    between atoms: C_4  and  N_5 
REMARK       I    between atoms: N_5  and  C_6 
REMARK       I    between atoms: C_6  and  N_8 
REMARK    5  A    between atoms: N_8  and  C_9 
REMARK    6  A    between atoms: C_13  and  C_17 
ROOT
HETATM    1  N   UNL     1     -39.680 -47.309  11.714  1.00  0.00    -0.342 N 
HETATM    2  C   UNL     1     -40.617 -48.309  11.591  1.00  0.00     0.320 C 
HETATM    3  O   UNL     1     -41.502 -48.208  10.745  1.00  0.00    -0.247 OA
HETATM    4  N   UNL     1     -40.481 -49.381  12.444  1.00  0.00    -0.306 N 
HETATM    5  H   UNL     1     -39.237 -47.136  12.609  1.00  0.00     0.164 HD
HETATM    6  H   UNL     1     -39.641 -49.439  13.005  1.00  0.00     0.171 HD
ENDROOT
BRANCH   4   7
HETATM    7  C   UNL     1     -41.417 -50.454  12.480  1.00  0.00     0.067 A 
HETATM    8  C   UNL     1     -41.318 -51.615  11.732  1.00  0.00     0.120 A 
HETATM    9  N   UNL     1     -42.210 -52.627  11.742  1.00  0.00    -0.353 N 
HETATM   10  C   UNL     1     -43.276 -52.504  12.545  1.00  0.00     0.085 A 
ATOM     11  HN  UNL     1     -42.078 -53.454  11.160  1.00  0.00     0.166 HD
HETATM   12  N   UNL     1     -43.475 -51.417  13.323  1.00  0.00    -0.353 N 
HETATM   13  C   UNL     1     -42.547 -50.425  13.272  1.00  0.00     0.120 A 
ATOM     14  HN  UNL     1     -44.293 -51.343  13.928  1.00  0.00     0.166 HD
BRANCH  10  15
HETATM   15  C   UNL     1     -44.282 -53.628  12.510  1.00  0.00     0.053 A 
HETATM   16  C   UNL     1     -45.512 -53.604  13.380  1.00  0.00     0.013 A 
HETATM   17  C   UNL     1     -44.407 -54.565  13.699  1.00  0.00     0.013 A 
ENDBRANCH  10  15
ENDBRANCH   4   7
BRANCH   1  18
HETATM   18  C   UNL     1     -39.991 -46.135  10.917  1.00  0.00     0.136 C 
BRANCH  18  19
HETATM   19  C   UNL     1     -40.290 -44.879  11.684  1.00  0.00    -0.003 A 
HETATM   20  C   UNL     1     -40.340 -43.554  10.945  1.00  0.00     0.014 A 
HETATM   21  C   UNL     1     -41.622 -44.225  11.340  1.00  0.00     0.014 A 
BRANCH  19  22
HETATM   22  C   UNL     1     -39.966 -44.936  13.154  1.00  0.00     0.175 C 
BRANCH  22  23
HETATM   23  O   UNL     1     -38.752 -44.239  13.410  1.00  0.00    -0.400 OA
HETATM   24  H   UNL     1     -38.958 -43.603  14.118  1.00  0.00     0.209 HD
ENDBRANCH  22  23
ENDBRANCH  19  22
ENDBRANCH  18  19
ENDBRANCH   1  18
TORSDOF 6
ENDMDL
