MODEL 1
REMARK VINA RESULT:      -6.0      0.000      0.000
REMARK  6 active torsions:
REMARK  status: ('A' for Active; 'I' for Inactive)
REMARK    1  A    between atoms: C_7  and  O_8 
REMARK    2  A    between atoms: O_8  and  C_9 
REMARK    3  A    between atoms: C_9  and  C_10 
REMARK    4  A    between atoms: C_10  and  O_11 
REMARK    5  A    between atoms: C_10  and  C_12 
REMARK    6  A    between atoms: C_12  and  N_13 
ROOT
HETATM    1  N   UNL     1     -42.404 -53.629  14.035  1.00  0.00    -0.254 N 
HETATM    2  N   UNL     1     -43.614 -54.170  13.679  1.00  0.00    -0.300 N 
ATOM      3  HN  UNL     1     -43.835 -54.360  12.701  1.00  0.00     0.187 HD
HETATM    4  C   UNL     1     -44.472 -54.435  14.616  1.00  0.00     0.029 C 
HETATM    5  C   UNL     1     -45.760 -55.104  14.184  1.00  0.00     0.070 C 
HETATM    6  C   UNL     1     -44.269 -54.123  16.058  1.00  0.00    -0.012 C 
HETATM    7  C   UNL     1     -45.358 -54.357  17.065  1.00  0.00     0.052 C 
HETATM    8  C   UNL     1     -43.064 -53.618  16.376  1.00  0.00     0.121 C 
HETATM    9  C   UNL     1     -42.753 -53.219  17.707  1.00  0.00     0.105 C 
HETATM   10  N   UNL     1     -42.583 -52.900  18.810  1.00  0.00    -0.191 NA
HETATM   11  C   UNL     1     -42.012 -53.424  15.349  1.00  0.00     0.283 C 
HETATM   12  O   UNL     1     -40.878 -53.080  15.679  1.00  0.00    -0.265 OA
ENDROOT
BRANCH   1  13
HETATM   13  C   UNL     1     -41.481 -53.309  12.939  1.00  0.00     0.186 C 
BRANCH  13  14
HETATM   14  C   UNL     1     -41.961 -52.143  12.062  1.00  0.00     0.162 C 
BRANCH  14  15
HETATM   15  C   UNL     1     -42.470 -50.959  12.893  1.00  0.00     0.209 C 
BRANCH  15  16
HETATM   16  O   UNL     1     -43.885 -50.872  12.833  1.00  0.00    -0.347 OA
BRANCH  16  17
HETATM   17  C   UNL     1     -44.641 -50.845  13.979  1.00  0.00     0.081 A 
HETATM   18  C   UNL     1     -45.945 -51.361  13.746  1.00  0.00    -0.028 A 
HETATM   19  C   UNL     1     -46.868 -51.472  14.794  1.00  0.00     0.010 A 
HETATM   20  C   UNL     1     -46.378 -51.829  12.376  1.00  0.00     0.051 C 
HETATM   21  C   UNL     1     -46.517 -51.083  16.076  1.00  0.00     0.008 A 
HETATM   22  C   UNL     1     -45.243 -50.565  16.335  1.00  0.00    -0.053 A 
HETATM   23  C   UNL     1     -44.917 -50.187  17.762  1.00  0.00     0.049 C 
HETATM   24  C   UNL     1     -44.287 -50.405  15.286  1.00  0.00    -0.022 A 
HETATM   25  C   UNL     1     -42.982 -49.784  15.719  1.00  0.00     0.052 C 
ENDBRANCH  16  17
ENDBRANCH  15  16
ENDBRANCH  14  15
BRANCH  14  26
HETATM   26  O   UNL     1     -40.905 -51.710  11.195  1.00  0.00    -0.392 OA
HETATM   27  H   UNL     1     -40.417 -52.513  10.929  1.00  0.00     0.210 HD
ENDBRANCH  14  26
ENDBRANCH  13  14
ENDBRANCH   1  13
TORSDOF 6
ENDMDL
MODEL 2
REMARK VINA RESULT:      -5.9      4.948      7.779
REMARK  6 active torsions:
REMARK  status: ('A' for Active; 'I' for Inactive)
REMARK    1  A    between atoms: C_7  and  O_8 
REMARK    2  A    between atoms: O_8  and  C_9 
REMARK    3  A    between atoms: C_9  and  C_10 
REMARK    4  A    between atoms: C_10  and  O_11 
REMARK    5  A    between atoms: C_10  and  C_12 
REMARK    6  A    between atoms: C_12  and  N_13 
ROOT
HETATM    1  N   UNL     1     -41.609 -47.013  10.961  1.00  0.00    -0.254 N 
HETATM    2  N   UNL     1     -40.563 -46.475  10.253  1.00  0.00    -0.300 N 
ATOM      3  HN  UNL     1     -40.047 -47.036   9.576  1.00  0.00     0.187 HD
HETATM    4  C   UNL     1     -40.245 -45.235  10.468  1.00  0.00     0.029 C 
HETATM    5  C   UNL     1     -39.138 -44.663   9.608  1.00  0.00     0.070 C 
HETATM    6  C   UNL     1     -40.890 -44.364  11.488  1.00  0.00    -0.012 C 
HETATM    7  C   UNL     1     -40.388 -42.974  11.753  1.00  0.00     0.052 C 
HETATM    8  C   UNL     1     -41.928 -44.912  12.144  1.00  0.00     0.121 C 
HETATM    9  C   UNL     1     -42.599 -44.214  13.188  1.00  0.00     0.105 C 
HETATM   10  N   UNL     1     -43.083 -43.589  14.038  1.00  0.00    -0.191 NA
HETATM   11  C   UNL     1     -42.401 -46.282  11.834  1.00  0.00     0.283 C 
HETATM   12  O   UNL     1     -43.426 -46.718  12.356  1.00  0.00    -0.265 OA
ENDROOT
BRANCH   1  13
HETATM   13  C   UNL     1     -41.907 -48.429  10.716  1.00  0.00     0.186 C 
BRANCH  13  14
HETATM   14  C   UNL     1     -40.879 -49.383  11.343  1.00  0.00     0.162 C 
BRANCH  14  15
HETATM   15  C   UNL     1     -41.517 -50.352  12.346  1.00  0.00     0.209 C 
BRANCH  15  16
HETATM   16  O   UNL     1     -40.959 -51.649  12.219  1.00  0.00    -0.347 OA
BRANCH  16  17
HETATM   17  C   UNL     1     -41.308 -52.657  13.086  1.00  0.00     0.081 A 
HETATM   18  C   UNL     1     -40.233 -52.978  13.960  1.00  0.00    -0.028 A 
HETATM   19  C   UNL     1     -40.388 -53.946  14.959  1.00  0.00     0.010 A 
HETATM   20  C   UNL     1     -38.897 -52.277  13.862  1.00  0.00     0.051 C 
HETATM   21  C   UNL     1     -41.599 -54.602  15.112  1.00  0.00     0.008 A 
HETATM   22  C   UNL     1     -42.673 -54.312  14.263  1.00  0.00    -0.053 A 
HETATM   23  C   UNL     1     -43.974 -55.044  14.504  1.00  0.00     0.049 C 
HETATM   24  C   UNL     1     -42.541 -53.355  13.210  1.00  0.00    -0.022 A 
HETATM   25  C   UNL     1     -43.772 -53.198  12.352  1.00  0.00     0.052 C 
ENDBRANCH  16  17
ENDBRANCH  15  16
ENDBRANCH  14  15
BRANCH  14  26
HETATM   26  O   UNL     1     -40.201 -50.122  10.318  1.00  0.00    -0.392 OA
HETATM   27  H   UNL     1     -39.304 -50.309  10.657  1.00  0.00     0.210 HD
ENDBRANCH  14  26
ENDBRANCH  13  14
ENDBRANCH   1  13
TORSDOF 6
ENDMDL
MODEL 3
REMARK VINA RESULT:      -5.7      4.243      6.759
REMARK  6 active torsions:
REMARK  status: ('A' for Active; 'I' for Inactive)
REMARK    1  A    between atoms: C_7  and  O_8 
REMARK    2  A    between atoms: O_8  and  C_9 
REMARK    3  A    between atoms: C_9  and  C_10 
REMARK    4  A    between atoms: C_10  and  O_11 
REMARK    5  A    between atoms: C_10  and  C_12 
REMARK    6  A    between atoms: C_12  and  N_13 
ROOT
HETATM    1  N   UNL     1     -41.812 -48.383  11.768  1.00  0.00    -0.254 N 
HETATM    2  N   UNL     1     -43.048 -48.545  11.191  1.00  0.00    -0.300 N 
ATOM      3  HN  UNL     1     -43.576 -49.408  11.318  1.00  0.00     0.187 HD
HETATM    4  C   UNL     1     -43.528 -47.572  10.479  1.00  0.00     0.029 C 
HETATM    5  C   UNL     1     -44.926 -47.763   9.929  1.00  0.00     0.070 C 
HETATM    6  C   UNL     1     -42.800 -46.309  10.176  1.00  0.00    -0.012 C 
HETATM    7  C   UNL     1     -43.381 -45.280   9.249  1.00  0.00     0.052 C 
HETATM    8  C   UNL     1     -41.605 -46.172  10.777  1.00  0.00     0.121 C 
HETATM    9  C   UNL     1     -40.774 -45.042  10.531  1.00  0.00     0.105 C 
HETATM   10  N   UNL     1     -40.149 -44.102  10.264  1.00  0.00    -0.191 NA
HETATM   11  C   UNL     1     -41.082 -47.207  11.702  1.00  0.00     0.283 C 
HETATM   12  O   UNL     1     -40.048 -47.007  12.336  1.00  0.00    -0.265 OA
ENDROOT
BRANCH   1  13
HETATM   13  C   UNL     1     -41.292 -49.524  12.530  1.00  0.00     0.186 C 
BRANCH  13  14
HETATM   14  C   UNL     1     -40.595 -50.575  11.653  1.00  0.00     0.162 C 
BRANCH  14  15
HETATM   15  C   UNL     1     -41.301 -51.935  11.699  1.00  0.00     0.209 C 
BRANCH  15  16
HETATM   16  O   UNL     1     -42.296 -51.952  12.710  1.00  0.00    -0.347 OA
BRANCH  16  17
HETATM   17  C   UNL     1     -42.387 -52.999  13.595  1.00  0.00     0.081 A 
HETATM   18  C   UNL     1     -43.647 -53.650  13.494  1.00  0.00    -0.028 A 
HETATM   19  C   UNL     1     -43.935 -54.777  14.273  1.00  0.00     0.010 A 
HETATM   20  C   UNL     1     -44.711 -53.170  12.533  1.00  0.00     0.051 C 
HETATM   21  C   UNL     1     -42.988 -55.277  15.152  1.00  0.00     0.008 A 
HETATM   22  C   UNL     1     -41.741 -54.654  15.278  1.00  0.00    -0.053 A 
HETATM   23  C   UNL     1     -40.745 -55.269  16.235  1.00  0.00     0.049 C 
HETATM   24  C   UNL     1     -41.424 -53.482  14.526  1.00  0.00    -0.022 A 
HETATM   25  C   UNL     1     -40.063 -52.902  14.816  1.00  0.00     0.052 C 
ENDBRANCH  16  17
ENDBRANCH  15  16
ENDBRANCH  14  15
BRANCH  14  26
HETATM   26  O   UNL     1     -40.516 -50.114  10.297  1.00  0.00    -0.392 OA
HETATM   27  H   UNL     1     -39.720 -50.525   9.910  1.00  0.00     0.210 HD
ENDBRANCH  14  26
ENDBRANCH  13  14
ENDBRANCH   1  13
TORSDOF 6
ENDMDL
MODEL 4
REMARK VINA RESULT:      -5.7      2.047      4.623
REMARK  6 active torsions:
REMARK  status: ('A' for Active; 'I' for Inactive)
REMARK    1  A    between atoms: C_7  and  O_8 
REMARK    2  A    between atoms: O_8  and  C_9 
REMARK    3  A    between atoms: C_9  and  C_10 
REMARK    4  A    between atoms: C_10  and  O_11 
REMARK    5  A    between atoms: C_10  and  C_12 
REMARK    6  A    between atoms: C_12  and  N_13 
ROOT
HETATM    1  N   UNL     1     -42.015 -50.475  14.226  1.00  0.00    -0.254 N 
HETATM    2  N   UNL     1     -41.514 -50.941  15.416  1.00  0.00    -0.300 N 
ATOM      3  HN  UNL     1     -40.512 -50.915  15.607  1.00  0.00     0.187 HD
HETATM    4  C   UNL     1     -42.345 -51.416  16.292  1.00  0.00     0.029 C 
HETATM    5  C   UNL     1     -41.757 -51.844  17.619  1.00  0.00     0.070 C 
HETATM    6  C   UNL     1     -43.811 -51.563  16.071  1.00  0.00    -0.012 C 
HETATM    7  C   UNL     1     -44.688 -52.228  17.093  1.00  0.00     0.052 C 
HETATM    8  C   UNL     1     -44.272 -51.073  14.907  1.00  0.00     0.121 C 
HETATM    9  C   UNL     1     -45.641 -51.200  14.539  1.00  0.00     0.105 C 
HETATM   10  N   UNL     1     -46.767 -51.358  14.303  1.00  0.00    -0.191 NA
HETATM   11  C   UNL     1     -43.370 -50.406  13.938  1.00  0.00     0.283 C 
HETATM   12  O   UNL     1     -43.830 -49.855  12.939  1.00  0.00    -0.265 OA
ENDROOT
BRANCH   1  13
HETATM   13  C   UNL     1     -41.036 -49.984  13.250  1.00  0.00     0.186 C 
BRANCH  13  14
HETATM   14  C   UNL     1     -40.214 -51.106  12.596  1.00  0.00     0.162 C 
BRANCH  14  15
HETATM   15  C   UNL     1     -41.096 -52.120  11.858  1.00  0.00     0.209 C 
BRANCH  15  16
HETATM   16  O   UNL     1     -40.866 -53.434  12.341  1.00  0.00    -0.347 OA
BRANCH  16  17
HETATM   17  C   UNL     1     -41.697 -53.998  13.279  1.00  0.00     0.081 A 
HETATM   18  C   UNL     1     -40.962 -54.457  14.406  1.00  0.00    -0.028 A 
HETATM   19  C   UNL     1     -41.619 -55.022  15.507  1.00  0.00     0.010 A 
HETATM   20  C   UNL     1     -39.458 -54.334  14.474  1.00  0.00     0.051 C 
HETATM   21  C   UNL     1     -43.000 -55.136  15.511  1.00  0.00     0.008 A 
HETATM   22  C   UNL     1     -43.750 -54.699  14.413  1.00  0.00    -0.053 A 
HETATM   23  C   UNL     1     -45.254 -54.827  14.497  1.00  0.00     0.049 C 
HETATM   24  C   UNL     1     -43.112 -54.149  13.259  1.00  0.00    -0.022 A 
HETATM   25  C   UNL     1     -44.056 -53.776  12.142  1.00  0.00     0.052 C 
ENDBRANCH  16  17
ENDBRANCH  15  16
ENDBRANCH  14  15
BRANCH  14  26
HETATM   26  O   UNL     1     -39.250 -50.551  11.692  1.00  0.00    -0.392 OA
HETATM   27  H   UNL     1     -39.416 -50.963  10.822  1.00  0.00     0.210 HD
ENDBRANCH  14  26
ENDBRANCH  13  14
ENDBRANCH   1  13
TORSDOF 6
ENDMDL
MODEL 5
REMARK VINA RESULT:      -5.7      1.991      3.299
REMARK  6 active torsions:
REMARK  status: ('A' for Active; 'I' for Inactive)
REMARK    1  A    between atoms: C_7  and  O_8 
REMARK    2  A    between atoms: O_8  and  C_9 
REMARK    3  A    between atoms: C_9  and  C_10 
REMARK    4  A    between atoms: C_10  and  O_11 
REMARK    5  A    between atoms: C_10  and  C_12 
REMARK    6  A    between atoms: C_12  and  N_13 
ROOT
HETATM    1  N   UNL     1     -42.124 -53.120  12.473  1.00  0.00    -0.254 N 
HETATM    2  N   UNL     1     -43.379 -52.676  12.136  1.00  0.00    -0.300 N 
ATOM      3  HN  UNL     1     -43.512 -52.011  11.373  1.00  0.00     0.187 HD
HETATM    4  C   UNL     1     -44.394 -53.123  12.811  1.00  0.00     0.029 C 
HETATM    5  C   UNL     1     -45.763 -52.669  12.352  1.00  0.00     0.070 C 
HETATM    6  C   UNL     1     -44.290 -54.034  13.984  1.00  0.00    -0.012 C 
HETATM    7  C   UNL     1     -45.504 -54.414  14.782  1.00  0.00     0.052 C 
HETATM    8  C   UNL     1     -43.051 -54.470  14.271  1.00  0.00     0.121 C 
HETATM    9  C   UNL     1     -42.798 -55.297  15.401  1.00  0.00     0.105 C 
HETATM   10  N   UNL     1     -42.670 -55.954  16.350  1.00  0.00    -0.191 NA
HETATM   11  C   UNL     1     -41.885 -54.083  13.441  1.00  0.00     0.283 C 
HETATM   12  O   UNL     1     -40.783 -54.590  13.644  1.00  0.00    -0.265 OA
ENDROOT
BRANCH   1  13
HETATM   13  C   UNL     1     -41.004 -52.558  11.709  1.00  0.00     0.186 C 
BRANCH  13  14
HETATM   14  C   UNL     1     -40.837 -51.042  11.901  1.00  0.00     0.162 C 
BRANCH  14  15
HETATM   15  C   UNL     1     -39.717 -50.699  12.890  1.00  0.00     0.209 C 
BRANCH  15  16
HETATM   16  O   UNL     1     -40.230 -49.998  14.011  1.00  0.00    -0.347 OA
BRANCH  16  17
HETATM   17  C   UNL     1     -41.218 -50.543  14.794  1.00  0.00     0.081 A 
HETATM   18  C   UNL     1     -40.674 -51.426  15.767  1.00  0.00    -0.028 A 
HETATM   19  C   UNL     1     -41.501 -52.056  16.705  1.00  0.00     0.010 A 
HETATM   20  C   UNL     1     -39.190 -51.702  15.842  1.00  0.00     0.051 C 
HETATM   21  C   UNL     1     -42.867 -51.819  16.699  1.00  0.00     0.008 A 
HETATM   22  C   UNL     1     -43.432 -50.961  15.750  1.00  0.00    -0.053 A 
HETATM   23  C   UNL     1     -44.924 -50.726  15.820  1.00  0.00     0.049 C 
HETATM   24  C   UNL     1     -42.625 -50.328  14.756  1.00  0.00    -0.022 A 
HETATM   25  C   UNL     1     -43.393 -49.477  13.775  1.00  0.00     0.052 C 
ENDBRANCH  16  17
ENDBRANCH  15  16
ENDBRANCH  14  15
BRANCH  14  26
HETATM   26  O   UNL     1     -40.584 -50.409  10.640  1.00  0.00    -0.392 OA
HETATM   27  H   UNL     1     -41.019 -50.959   9.960  1.00  0.00     0.210 HD
ENDBRANCH  14  26
ENDBRANCH  13  14
ENDBRANCH   1  13
TORSDOF 6
ENDMDL
MODEL 6
REMARK VINA RESULT:      -5.7      2.024      3.124
REMARK  6 active torsions:
REMARK  status: ('A' for Active; 'I' for Inactive)
REMARK    1  A    between atoms: C_7  and  O_8 
REMARK    2  A    between atoms: O_8  and  C_9 
REMARK    3  A    between atoms: C_9  and  C_10 
REMARK    4  A    between atoms: C_10  and  O_11 
REMARK    5  A    between atoms: C_10  and  C_12 
REMARK    6  A    between atoms: C_12  and  N_13 
ROOT
HETATM    1  N   UNL     1     -42.271 -52.651  12.474  1.00  0.00    -0.254 N 
HETATM    2  N   UNL     1     -43.431 -51.918  12.447  1.00  0.00    -0.300 N 
ATOM      3  HN  UNL     1     -43.523 -51.106  11.837  1.00  0.00     0.187 HD
HETATM    4  C   UNL     1     -44.409 -52.282  13.219  1.00  0.00     0.029 C 
HETATM    5  C   UNL     1     -45.695 -51.492  13.097  1.00  0.00     0.070 C 
HETATM    6  C   UNL     1     -44.340 -53.404  14.196  1.00  0.00    -0.012 C 
HETATM    7  C   UNL     1     -45.478 -53.689  15.133  1.00  0.00     0.052 C 
HETATM    8  C   UNL     1     -43.201 -54.117  14.177  1.00  0.00     0.121 C 
HETATM    9  C   UNL     1     -42.975 -55.180  15.098  1.00  0.00     0.105 C 
HETATM   10  N   UNL     1     -42.858 -56.018  15.891  1.00  0.00    -0.191 NA
HETATM   11  C   UNL     1     -42.112 -53.810  13.218  1.00  0.00     0.283 C 
HETATM   12  O   UNL     1     -41.133 -54.550  13.133  1.00  0.00    -0.265 OA
ENDROOT
BRANCH   1  13
HETATM   13  C   UNL     1     -41.178 -52.180  11.615  1.00  0.00     0.186 C 
BRANCH  13  14
HETATM   14  C   UNL     1     -40.934 -50.666  11.718  1.00  0.00     0.162 C 
BRANCH  14  15
HETATM   15  C   UNL     1     -39.935 -50.310  12.824  1.00  0.00     0.209 C 
BRANCH  15  16
HETATM   16  O   UNL     1     -40.526 -49.442  13.778  1.00  0.00    -0.347 OA
BRANCH  16  17
HETATM   17  C   UNL     1     -41.386 -49.923  14.734  1.00  0.00     0.081 A 
HETATM   18  C   UNL     1     -42.614 -49.206  14.728  1.00  0.00    -0.028 A 
HETATM   19  C   UNL     1     -43.657 -49.564  15.592  1.00  0.00     0.010 A 
HETATM   20  C   UNL     1     -42.852 -48.051  13.782  1.00  0.00     0.051 C 
HETATM   21  C   UNL     1     -43.504 -50.631  16.463  1.00  0.00     0.008 A 
HETATM   22  C   UNL     1     -42.306 -51.352  16.497  1.00  0.00    -0.053 A 
HETATM   23  C   UNL     1     -42.218 -52.521  17.450  1.00  0.00     0.049 C 
HETATM   24  C   UNL     1     -41.208 -50.994  15.655  1.00  0.00    -0.022 A 
HETATM   25  C   UNL     1     -39.971 -51.835  15.850  1.00  0.00     0.052 C 
ENDBRANCH  16  17
ENDBRANCH  15  16
ENDBRANCH  14  15
BRANCH  14  26
HETATM   26  O   UNL     1     -40.472 -50.153  10.461  1.00  0.00    -0.392 OA
HETATM   27  H   UNL     1     -39.897 -49.391  10.667  1.00  0.00     0.210 HD
ENDBRANCH  14  26
ENDBRANCH  13  14
ENDBRANCH   1  13
TORSDOF 6
ENDMDL
MODEL 7
REMARK VINA RESULT:      -5.6      3.820      5.527
REMARK  6 active torsions:
REMARK  status: ('A' for Active; 'I' for Inactive)
REMARK    1  A    between atoms: C_7  and  O_8 
REMARK    2  A    between atoms: O_8  and  C_9 
REMARK    3  A    between atoms: C_9  and  C_10 
REMARK    4  A    between atoms: C_10  and  O_11 
REMARK    5  A    between atoms: C_10  and  C_12 
REMARK    6  A    between atoms: C_12  and  N_13 
ROOT
HETATM    1  N   UNL     1     -42.039 -52.757  12.656  1.00  0.00    -0.254 N 
HETATM    2  N   UNL     1     -43.285 -52.325  12.272  1.00  0.00    -0.300 N 
ATOM      3  HN  UNL     1     -43.391 -51.572  11.593  1.00  0.00     0.187 HD
HETATM    4  C   UNL     1     -44.325 -52.900  12.795  1.00  0.00     0.029 C 
HETATM    5  C   UNL     1     -45.675 -52.446  12.282  1.00  0.00     0.070 C 
HETATM    6  C   UNL     1     -44.268 -53.952  13.846  1.00  0.00    -0.012 C 
HETATM    7  C   UNL     1     -45.520 -54.485  14.481  1.00  0.00     0.052 C 
HETATM    8  C   UNL     1     -43.035 -54.370  14.180  1.00  0.00     0.121 C 
HETATM    9  C   UNL     1     -42.829 -55.329  15.212  1.00  0.00     0.105 C 
HETATM   10  N   UNL     1     -42.743 -56.099  16.076  1.00  0.00    -0.191 NA
HETATM   11  C   UNL     1     -41.828 -53.829  13.510  1.00  0.00     0.283 C 
HETATM   12  O   UNL     1     -40.720 -54.312  13.740  1.00  0.00    -0.265 OA
ENDROOT
BRANCH   1  13
HETATM   13  C   UNL     1     -40.893 -52.053  12.070  1.00  0.00     0.186 C 
BRANCH  13  14
HETATM   14  C   UNL     1     -41.199 -50.593  11.704  1.00  0.00     0.162 C 
BRANCH  14  15
HETATM   15  C   UNL     1     -40.838 -49.620  12.833  1.00  0.00     0.209 C 
BRANCH  15  16
HETATM   16  O   UNL     1     -39.673 -48.879  12.507  1.00  0.00    -0.347 OA
BRANCH  16  17
HETATM   17  C   UNL     1     -39.648 -47.511  12.625  1.00  0.00     0.081 A 
HETATM   18  C   UNL     1     -38.847 -47.105  13.728  1.00  0.00    -0.028 A 
HETATM   19  C   UNL     1     -38.643 -45.747  14.003  1.00  0.00     0.010 A 
HETATM   20  C   UNL     1     -38.169 -48.113  14.627  1.00  0.00     0.051 C 
HETATM   21  C   UNL     1     -39.219 -44.779  13.196  1.00  0.00     0.008 A 
HETATM   22  C   UNL     1     -40.017 -45.147  12.108  1.00  0.00    -0.053 A 
HETATM   23  C   UNL     1     -40.590 -44.040  11.252  1.00  0.00     0.049 C 
HETATM   24  C   UNL     1     -40.276 -46.522  11.817  1.00  0.00    -0.022 A 
HETATM   25  C   UNL     1     -41.198 -46.750  10.645  1.00  0.00     0.052 C 
ENDBRANCH  16  17
ENDBRANCH  15  16
ENDBRANCH  14  15
BRANCH  14  26
HETATM   26  O   UNL     1     -40.502 -50.227  10.505  1.00  0.00    -0.392 OA
HETATM   27  H   UNL     1     -41.178 -49.902   9.879  1.00  0.00     0.210 HD
ENDBRANCH  14  26
ENDBRANCH  13  14
ENDBRANCH   1  13
TORSDOF 6
ENDMDL
MODEL 8
REMARK VINA RESULT:      -5.6      1.746      3.010
REMARK  6 active torsions:
REMARK  status: ('A' for Active; 'I' for Inactive)
REMARK    1  A    between atoms: C_7  and  O_8 
REMARK    2  A    between atoms: O_8  and  C_9 
REMARK    3  A    between atoms: C_9  and  C_10 
REMARK    4  A    between atoms: C_10  and  O_11 
REMARK    5  A    between atoms: C_10  and  C_12 
REMARK    6  A    between atoms: C_12  and  N_13 
ROOT
HETATM    1  N   UNL     1     -43.363 -53.805  13.786  1.00  0.00    -0.254 N 
HETATM    2  N   UNL     1     -44.029 -52.826  13.091  1.00  0.00    -0.300 N 
ATOM      3  HN  UNL     1     -43.646 -52.448  12.224  1.00  0.00     0.187 HD
HETATM    4  C   UNL     1     -45.157 -52.392  13.564  1.00  0.00     0.029 C 
HETATM    5  C   UNL     1     -45.893 -51.370  12.723  1.00  0.00     0.070 C 
HETATM    6  C   UNL     1     -45.754 -52.829  14.856  1.00  0.00    -0.012 C 
HETATM    7  C   UNL     1     -47.007 -52.194  15.387  1.00  0.00     0.052 C 
HETATM    8  C   UNL     1     -45.091 -53.807  15.497  1.00  0.00     0.121 C 
HETATM    9  C   UNL     1     -45.515 -54.280  16.772  1.00  0.00     0.105 C 
HETATM   10  N   UNL     1     -45.914 -54.598  17.814  1.00  0.00    -0.191 NA
HETATM   11  C   UNL     1     -43.868 -54.418  14.923  1.00  0.00     0.283 C 
HETATM   12  O   UNL     1     -43.349 -55.393  15.462  1.00  0.00    -0.265 OA
ENDROOT
BRANCH   1  13
HETATM   13  C   UNL     1     -42.073 -54.237  13.236  1.00  0.00     0.186 C 
BRANCH  13  14
HETATM   14  C   UNL     1     -41.234 -53.079  12.675  1.00  0.00     0.162 C 
BRANCH  14  15
HETATM   15  C   UNL     1     -40.111 -52.655  13.630  1.00  0.00     0.209 C 
BRANCH  15  16
HETATM   16  O   UNL     1     -40.253 -51.294  14.003  1.00  0.00    -0.347 OA
BRANCH  16  17
HETATM   17  C   UNL     1     -41.363 -50.860  14.687  1.00  0.00     0.081 A 
HETATM   18  C   UNL     1     -42.055 -49.854  13.959  1.00  0.00    -0.028 A 
HETATM   19  C   UNL     1     -43.245 -49.305  14.451  1.00  0.00     0.010 A 
HETATM   20  C   UNL     1     -41.551 -49.355  12.624  1.00  0.00     0.051 C 
HETATM   21  C   UNL     1     -43.768 -49.743  15.658  1.00  0.00     0.008 A 
HETATM   22  C   UNL     1     -43.106 -50.727  16.400  1.00  0.00    -0.053 A 
HETATM   23  C   UNL     1     -43.747 -51.178  17.693  1.00  0.00     0.049 C 
HETATM   24  C   UNL     1     -41.872 -51.286  15.947  1.00  0.00    -0.022 A 
HETATM   25  C   UNL     1     -41.260 -52.295  16.886  1.00  0.00     0.052 C 
ENDBRANCH  16  17
ENDBRANCH  15  16
ENDBRANCH  14  15
BRANCH  14  26
HETATM   26  O   UNL     1     -40.679 -53.441  11.403  1.00  0.00    -0.392 OA
HETATM   27  H   UNL     1     -40.647 -52.622  10.871  1.00  0.00     0.210 HD
ENDBRANCH  14  26
ENDBRANCH  13  14
ENDBRANCH   1  13
TORSDOF 6
ENDMDL
MODEL 9
REMARK VINA RESULT:      -5.6      3.738      5.135
REMARK  6 active torsions:
REMARK  status: ('A' for Active; 'I' for Inactive)
REMARK    1  A    between atoms: C_7  and  O_8 
REMARK    2  A    between atoms: O_8  and  C_9 
REMARK    3  A    between atoms: C_9  and  C_10 
REMARK    4  A    between atoms: C_10  and  O_11 
REMARK    5  A    between atoms: C_10  and  C_12 
REMARK    6  A    between atoms: C_12  and  N_13 
ROOT
HETATM    1  N   UNL     1     -42.605 -52.085  13.402  1.00  0.00    -0.254 N 
HETATM    2  N   UNL     1     -43.846 -51.852  12.864  1.00  0.00    -0.300 N 
ATOM      3  HN  UNL     1     -44.040 -50.995  12.346  1.00  0.00     0.187 HD
HETATM    4  C   UNL     1     -44.769 -52.750  13.030  1.00  0.00     0.029 C 
HETATM    5  C   UNL     1     -46.097 -52.488  12.352  1.00  0.00     0.070 C 
HETATM    6  C   UNL     1     -44.601 -53.993  13.833  1.00  0.00    -0.012 C 
HETATM    7  C   UNL     1     -45.754 -54.925  14.072  1.00  0.00     0.052 C 
HETATM    8  C   UNL     1     -43.367 -54.202  14.324  1.00  0.00     0.121 C 
HETATM    9  C   UNL     1     -43.079 -55.319  15.159  1.00  0.00     0.105 C 
HETATM   10  N   UNL     1     -42.929 -56.242  15.846  1.00  0.00    -0.191 NA
HETATM   11  C   UNL     1     -42.255 -53.263  14.044  1.00  0.00     0.283 C 
HETATM   12  O   UNL     1     -41.108 -53.535  14.396  1.00  0.00    -0.265 OA
ENDROOT
BRANCH   1  13
HETATM   13  C   UNL     1     -41.605 -51.026  13.223  1.00  0.00     0.186 C 
BRANCH  13  14
HETATM   14  C   UNL     1     -40.852 -51.119  11.887  1.00  0.00     0.162 C 
BRANCH  14  15
HETATM   15  C   UNL     1     -40.337 -49.756  11.410  1.00  0.00     0.209 C 
BRANCH  15  16
HETATM   16  O   UNL     1     -41.191 -48.713  11.849  1.00  0.00    -0.347 OA
BRANCH  16  17
HETATM   17  C   UNL     1     -40.835 -47.395  11.695  1.00  0.00     0.081 A 
HETATM   18  C   UNL     1     -41.556 -46.789  10.629  1.00  0.00    -0.028 A 
HETATM   19  C   UNL     1     -41.384 -45.432  10.329  1.00  0.00     0.010 A 
HETATM   20  C   UNL     1     -42.546 -47.572   9.798  1.00  0.00     0.051 C 
HETATM   21  C   UNL     1     -40.508 -44.659  11.075  1.00  0.00     0.008 A 
HETATM   22  C   UNL     1     -39.780 -45.228  12.125  1.00  0.00    -0.053 A 
HETATM   23  C   UNL     1     -38.865 -44.321  12.915  1.00  0.00     0.049 C 
HETATM   24  C   UNL     1     -39.903 -46.617  12.438  1.00  0.00    -0.022 A 
HETATM   25  C   UNL     1     -39.012 -47.086  13.561  1.00  0.00     0.052 C 
ENDBRANCH  16  17
ENDBRANCH  15  16
ENDBRANCH  14  15
BRANCH  14  26
HETATM   26  O   UNL     1     -39.759 -52.041  11.998  1.00  0.00    -0.392 OA
HETATM   27  H   UNL     1     -39.750 -52.350  12.925  1.00  0.00     0.210 HD
ENDBRANCH  14  26
ENDBRANCH  13  14
ENDBRANCH   1  13
TORSDOF 6
ENDMDL
