MODEL 1
REMARK VINA RESULT:      -6.0      0.000      0.000
REMARK  3 active torsions:
REMARK  status: ('A' for Active; 'I' for Inactive)
REMARK    1  A    between atoms: C_2  and  N_4 
REMARK    2  A    between atoms: C_7  and  N_8 
REMARK       I    between atoms: N_8  and  C_9 
REMARK       I    between atoms: C_9  and  N_11 
REMARK    3  A    between atoms: N_11  and  C_12 
ROOT
HETATM    1  N   UNL     1     -42.434 -50.979  12.048  1.00  0.00    -0.330 N 
HETATM    2  C   UNL     1     -41.909 -49.722  12.146  1.00  0.00     0.322 C 
HETATM    3  O   UNL     1     -41.198 -49.375  13.081  1.00  0.00    -0.247 OA
HETATM    4  N   UNL     1     -42.245 -48.929  11.076  1.00  0.00    -0.295 N 
HETATM    5  H   UNL     1     -43.113 -51.163  11.321  1.00  0.00     0.165 HD
HETATM    6  H   UNL     1     -43.207 -48.990  10.774  1.00  0.00     0.172 HD
ENDROOT
BRANCH   1   7
HETATM    7  C   UNL     1     -42.402 -51.906  13.175  1.00  0.00     0.180 C 
HETATM    8  C   UNL     1     -42.631 -53.371  12.819  1.00  0.00     0.055 C 
HETATM    9  C   UNL     1     -44.133 -53.547  12.888  1.00  0.00     0.129 C 
HETATM   10  N   UNL     1     -44.588 -52.547  13.827  1.00  0.00    -0.346 N 
HETATM   11  C   UNL     1     -43.614 -51.566  14.036  1.00  0.00     0.243 C 
HETATM   12  O   UNL     1     -43.776 -50.503  14.621  1.00  0.00    -0.271 OA
BRANCH  10  13
HETATM   13  C   UNL     1     -46.008 -52.229  13.995  1.00  0.00     0.079 C 
HETATM   14  C   UNL     1     -46.612 -51.734  12.674  1.00  0.00     0.032 C 
HETATM   15  C   UNL     1     -46.818 -53.407  14.534  1.00  0.00     0.032 C 
ENDBRANCH  10  13
ENDBRANCH   1   7
BRANCH   4  16
HETATM   16  C   UNL     1     -41.723 -47.641  10.941  1.00  0.00     0.108 A 
HETATM   17  C   UNL     1     -42.553 -46.538  10.742  1.00  0.00     0.052 A 
HETATM   18  C   UNL     1     -41.975 -45.289  10.548  1.00  0.00     0.047 A 
HETATM   19  C   UNL     1     -40.594 -45.191  10.540  1.00  0.00     0.131 A 
HETATM   20  F   UNL     1     -40.001 -44.016  10.307  1.00  0.00    -0.205 F 
HETATM   21  C   UNL     1     -39.843 -46.330  10.777  1.00  0.00     0.132 A 
HETATM   22  N   UNL     1     -40.378 -47.553  11.016  1.00  0.00    -0.349 N 
ATOM     23  HN  UNL     1     -39.796 -48.360  11.239  1.00  0.00     0.167 HD
ENDBRANCH   4  16
TORSDOF 3
ENDMDL
MODEL 2
REMARK VINA RESULT:      -5.8      3.886      7.239
REMARK  3 active torsions:
REMARK  status: ('A' for Active; 'I' for Inactive)
REMARK    1  A    between atoms: C_2  and  N_4 
REMARK    2  A    between atoms: C_7  and  N_8 
REMARK       I    between atoms: N_8  and  C_9 
REMARK       I    between atoms: C_9  and  N_11 
REMARK    3  A    between atoms: N_11  and  C_12 
ROOT
HETATM    1  N   UNL     1     -42.122 -49.050  10.991  1.00  0.00    -0.330 N 
HETATM    2  C   UNL     1     -41.905 -50.025  11.922  1.00  0.00     0.322 C 
HETATM    3  O   UNL     1     -42.653 -50.205  12.876  1.00  0.00    -0.247 OA
HETATM    4  N   UNL     1     -40.789 -50.776  11.644  1.00  0.00    -0.295 N 
HETATM    5  H   UNL     1     -41.404 -48.872  10.302  1.00  0.00     0.165 HD
HETATM    6  H   UNL     1     -39.978 -50.255  11.344  1.00  0.00     0.172 HD
ENDROOT
BRANCH   1   7
HETATM    7  C   UNL     1     -43.106 -47.994  11.211  1.00  0.00     0.180 C 
HETATM    8  C   UNL     1     -43.593 -47.286   9.951  1.00  0.00     0.055 C 
HETATM    9  C   UNL     1     -42.613 -46.148   9.755  1.00  0.00     0.129 C 
HETATM   10  N   UNL     1     -42.113 -45.848  11.077  1.00  0.00    -0.346 N 
HETATM   11  C   UNL     1     -42.378 -46.890  11.970  1.00  0.00     0.243 C 
HETATM   12  O   UNL     1     -41.916 -47.008  13.096  1.00  0.00    -0.271 OA
BRANCH  10  13
HETATM   13  C   UNL     1     -40.964 -44.964  11.289  1.00  0.00     0.079 C 
HETATM   14  C   UNL     1     -39.875 -45.230  10.241  1.00  0.00     0.032 C 
HETATM   15  C   UNL     1     -41.346 -43.485  11.286  1.00  0.00     0.032 C 
ENDBRANCH  10  13
ENDBRANCH   1   7
BRANCH   4  16
HETATM   16  C   UNL     1     -40.454 -51.885  12.423  1.00  0.00     0.108 A 
HETATM   17  C   UNL     1     -39.437 -51.823  13.375  1.00  0.00     0.052 A 
HETATM   18  C   UNL     1     -39.101 -52.976  14.076  1.00  0.00     0.047 A 
HETATM   19  C   UNL     1     -39.778 -54.148  13.786  1.00  0.00     0.131 A 
HETATM   20  F   UNL     1     -39.450 -55.288  14.403  1.00  0.00    -0.205 F 
HETATM   21  C   UNL     1     -40.797 -54.117  12.849  1.00  0.00     0.132 A 
HETATM   22  N   UNL     1     -41.179 -52.999  12.184  1.00  0.00    -0.349 N 
ATOM     23  HN  UNL     1     -41.969 -52.999  11.539  1.00  0.00     0.167 HD
ENDBRANCH   4  16
TORSDOF 3
ENDMDL
MODEL 3
REMARK VINA RESULT:      -5.8      1.649      2.436
REMARK  3 active torsions:
REMARK  status: ('A' for Active; 'I' for Inactive)
REMARK    1  A    between atoms: C_2  and  N_4 
REMARK    2  A    between atoms: C_7  and  N_8 
REMARK       I    between atoms: N_8  and  C_9 
REMARK       I    between atoms: C_9  and  N_11 
REMARK    3  A    between atoms: N_11  and  C_12 
ROOT
HETATM    1  N   UNL     1     -43.498 -50.624  12.621  1.00  0.00    -0.330 N 
HETATM    2  C   UNL     1     -43.085 -49.341  12.403  1.00  0.00     0.322 C 
HETATM    3  O   UNL     1     -43.479 -48.397  13.078  1.00  0.00    -0.247 OA
HETATM    4  N   UNL     1     -42.175 -49.250  11.378  1.00  0.00    -0.295 N 
HETATM    5  H   UNL     1     -43.235 -51.336  11.952  1.00  0.00     0.165 HD
HETATM    6  H   UNL     1     -42.389 -49.797  10.557  1.00  0.00     0.172 HD
ENDROOT
BRANCH   1   7
HETATM    7  C   UNL     1     -44.629 -50.921  13.496  1.00  0.00     0.180 C 
HETATM    8  C   UNL     1     -44.295 -51.022  14.980  1.00  0.00     0.055 C 
HETATM    9  C   UNL     1     -43.925 -52.476  15.186  1.00  0.00     0.129 C 
HETATM   10  N   UNL     1     -44.636 -53.196  14.155  1.00  0.00    -0.346 N 
HETATM   11  C   UNL     1     -45.074 -52.336  13.144  1.00  0.00     0.243 C 
HETATM   12  O   UNL     1     -45.531 -52.672  12.060  1.00  0.00    -0.271 OA
BRANCH  10  13
HETATM   13  C   UNL     1     -44.360 -54.605  13.861  1.00  0.00     0.079 C 
HETATM   14  C   UNL     1     -43.315 -55.166  14.836  1.00  0.00     0.032 C 
HETATM   15  C   UNL     1     -45.617 -55.471  13.883  1.00  0.00     0.032 C 
ENDBRANCH  10  13
ENDBRANCH   1   7
BRANCH   4  16
HETATM   16  C   UNL     1     -41.559 -48.037  11.067  1.00  0.00     0.108 A 
HETATM   17  C   UNL     1     -40.249 -47.766  11.460  1.00  0.00     0.052 A 
HETATM   18  C   UNL     1     -39.708 -46.515  11.181  1.00  0.00     0.047 A 
HETATM   19  C   UNL     1     -40.502 -45.579  10.540  1.00  0.00     0.131 A 
HETATM   20  F   UNL     1     -40.035 -44.349  10.300  1.00  0.00    -0.205 F 
HETATM   21  C   UNL     1     -41.782 -45.939  10.156  1.00  0.00     0.132 A 
HETATM   22  N   UNL     1     -42.320 -47.165  10.372  1.00  0.00    -0.349 N 
ATOM     23  HN  UNL     1     -43.247 -47.413  10.028  1.00  0.00     0.167 HD
ENDBRANCH   4  16
TORSDOF 3
ENDMDL
MODEL 4
REMARK VINA RESULT:      -5.8      3.438      7.573
REMARK  3 active torsions:
REMARK  status: ('A' for Active; 'I' for Inactive)
REMARK    1  A    between atoms: C_2  and  N_4 
REMARK    2  A    between atoms: C_7  and  N_8 
REMARK       I    between atoms: N_8  and  C_9 
REMARK       I    between atoms: C_9  and  N_11 
REMARK    3  A    between atoms: N_11  and  C_12 
ROOT
HETATM    1  N   UNL     1     -42.629 -49.271  12.134  1.00  0.00    -0.330 N 
HETATM    2  C   UNL     1     -43.133 -50.479  12.523  1.00  0.00     0.322 C 
HETATM    3  O   UNL     1     -42.458 -51.501  12.539  1.00  0.00    -0.247 OA
HETATM    4  N   UNL     1     -44.448 -50.398  12.912  1.00  0.00    -0.295 N 
HETATM    5  H   UNL     1     -43.268 -48.494  12.023  1.00  0.00     0.165 HD
HETATM    6  H   UNL     1     -45.042 -49.834  12.322  1.00  0.00     0.172 HD
ENDROOT
BRANCH   1   7
HETATM    7  C   UNL     1     -41.336 -49.166  11.464  1.00  0.00     0.180 C 
HETATM    8  C   UNL     1     -40.174 -48.741  12.356  1.00  0.00     0.055 C 
HETATM    9  C   UNL     1     -40.182 -47.228  12.290  1.00  0.00     0.129 C 
HETATM   10  N   UNL     1     -40.779 -46.908  11.014  1.00  0.00    -0.346 N 
HETATM   11  C   UNL     1     -41.462 -48.006  10.483  1.00  0.00     0.243 C 
HETATM   12  O   UNL     1     -42.218 -47.988   9.521  1.00  0.00    -0.271 OA
BRANCH  10  13
HETATM   13  C   UNL     1     -41.185 -45.544  10.667  1.00  0.00     0.079 C 
HETATM   14  C   UNL     1     -42.244 -45.029  11.651  1.00  0.00     0.032 C 
HETATM   15  C   UNL     1     -40.008 -44.573  10.606  1.00  0.00     0.032 C 
ENDBRANCH  10  13
ENDBRANCH   1   7
BRANCH   4  16
HETATM   16  C   UNL     1     -45.113 -51.506  13.438  1.00  0.00     0.108 A 
HETATM   17  C   UNL     1     -45.827 -51.425  14.633  1.00  0.00     0.052 A 
HETATM   18  C   UNL     1     -46.415 -52.576  15.145  1.00  0.00     0.047 A 
HETATM   19  C   UNL     1     -46.251 -53.766  14.456  1.00  0.00     0.131 A 
HETATM   20  F   UNL     1     -46.758 -54.904  14.942  1.00  0.00    -0.205 F 
HETATM   21  C   UNL     1     -45.553 -53.755  13.260  1.00  0.00     0.132 A 
HETATM   22  N   UNL     1     -45.010 -52.640  12.712  1.00  0.00    -0.349 N 
ATOM     23  HN  UNL     1     -44.548 -52.657  11.803  1.00  0.00     0.167 HD
ENDBRANCH   4  16
TORSDOF 3
ENDMDL
MODEL 5
REMARK VINA RESULT:      -5.3      2.158      3.143
REMARK  3 active torsions:
REMARK  status: ('A' for Active; 'I' for Inactive)
REMARK    1  A    between atoms: C_2  and  N_4 
REMARK    2  A    between atoms: C_7  and  N_8 
REMARK       I    between atoms: N_8  and  C_9 
REMARK       I    between atoms: C_9  and  N_11 
REMARK    3  A    between atoms: N_11  and  C_12 
ROOT
HETATM    1  N   UNL     1     -41.161 -50.454  12.688  1.00  0.00    -0.330 N 
HETATM    2  C   UNL     1     -41.219 -49.203  12.145  1.00  0.00     0.322 C 
HETATM    3  O   UNL     1     -42.200 -48.794  11.534  1.00  0.00    -0.247 OA
HETATM    4  N   UNL     1     -40.082 -48.471  12.389  1.00  0.00    -0.295 N 
HETATM    5  H   UNL     1     -40.280 -50.774  13.069  1.00  0.00     0.165 HD
HETATM    6  H   UNL     1     -39.212 -48.970  12.273  1.00  0.00     0.172 HD
ENDROOT
BRANCH   1   7
HETATM    7  C   UNL     1     -42.150 -51.474  12.355  1.00  0.00     0.180 C 
HETATM    8  C   UNL     1     -43.394 -51.488  13.238  1.00  0.00     0.055 C 
HETATM    9  C   UNL     1     -43.031 -52.404  14.388  1.00  0.00     0.129 C 
HETATM   10  N   UNL     1     -42.037 -53.306  13.854  1.00  0.00    -0.346 N 
HETATM   11  C   UNL     1     -41.493 -52.815  12.663  1.00  0.00     0.243 C 
HETATM   12  O   UNL     1     -40.508 -53.256  12.086  1.00  0.00    -0.271 OA
BRANCH  10  13
HETATM   13  C   UNL     1     -41.256 -54.197  14.715  1.00  0.00     0.079 C 
HETATM   14  C   UNL     1     -40.301 -53.389  15.604  1.00  0.00     0.032 C 
HETATM   15  C   UNL     1     -42.130 -55.108  15.574  1.00  0.00     0.032 C 
ENDBRANCH  10  13
ENDBRANCH   1   7
BRANCH   4  16
HETATM   16  C   UNL     1     -39.988 -47.134  12.001  1.00  0.00     0.108 A 
HETATM   17  C   UNL     1     -39.666 -46.133  12.917  1.00  0.00     0.052 A 
HETATM   18  C   UNL     1     -39.651 -44.810  12.489  1.00  0.00     0.047 A 
HETATM   19  C   UNL     1     -39.979 -44.536  11.172  1.00  0.00     0.131 A 
HETATM   20  F   UNL     1     -40.026 -43.272  10.737  1.00  0.00    -0.205 F 
HETATM   21  C   UNL     1     -40.257 -45.590  10.320  1.00  0.00     0.132 A 
HETATM   22  N   UNL     1     -40.233 -46.893  10.695  1.00  0.00    -0.349 N 
ATOM     23  HN  UNL     1     -40.390 -47.648  10.028  1.00  0.00     0.167 HD
ENDBRANCH   4  16
TORSDOF 3
ENDMDL
MODEL 6
REMARK VINA RESULT:      -5.1      3.961      5.481
REMARK  3 active torsions:
REMARK  status: ('A' for Active; 'I' for Inactive)
REMARK    1  A    between atoms: C_2  and  N_4 
REMARK    2  A    between atoms: C_7  and  N_8 
REMARK       I    between atoms: N_8  and  C_9 
REMARK       I    between atoms: C_9  and  N_11 
REMARK    3  A    between atoms: N_11  and  C_12 
ROOT
HETATM    1  N   UNL     1     -40.277 -50.146  13.159  1.00  0.00    -0.330 N 
HETATM    2  C   UNL     1     -40.619 -49.415  12.057  1.00  0.00     0.322 C 
HETATM    3  O   UNL     1     -40.144 -49.631  10.949  1.00  0.00    -0.247 OA
HETATM    4  N   UNL     1     -41.560 -48.454  12.338  1.00  0.00    -0.295 N 
HETATM    5  H   UNL     1     -40.607 -49.838  14.064  1.00  0.00     0.165 HD
HETATM    6  H   UNL     1     -41.410 -47.935  13.191  1.00  0.00     0.172 HD
ENDROOT
BRANCH   1   7
HETATM    7  C   UNL     1     -39.135 -51.055  13.143  1.00  0.00     0.180 C 
HETATM    8  C   UNL     1     -39.207 -52.208  14.139  1.00  0.00     0.055 C 
HETATM    9  C   UNL     1     -38.581 -51.655  15.402  1.00  0.00     0.129 C 
HETATM   10  N   UNL     1     -37.668 -50.628  14.955  1.00  0.00    -0.346 N 
HETATM   11  C   UNL     1     -37.943 -50.243  13.639  1.00  0.00     0.243 C 
HETATM   12  O   UNL     1     -37.471 -49.275  13.058  1.00  0.00    -0.271 OA
BRANCH  10  13
HETATM   13  C   UNL     1     -37.039 -49.688  15.886  1.00  0.00     0.079 C 
HETATM   14  C   UNL     1     -37.887 -49.537  17.156  1.00  0.00     0.032 C 
HETATM   15  C   UNL     1     -35.611 -50.084  16.252  1.00  0.00     0.032 C 
ENDBRANCH  10  13
ENDBRANCH   1   7
BRANCH   4  16
HETATM   16  C   UNL     1     -42.112 -47.669  11.324  1.00  0.00     0.108 A 
HETATM   17  C   UNL     1     -42.064 -46.276  11.377  1.00  0.00     0.052 A 
HETATM   18  C   UNL     1     -42.689 -45.544  10.373  1.00  0.00     0.047 A 
HETATM   19  C   UNL     1     -43.353 -46.228   9.369  1.00  0.00     0.131 A 
HETATM   20  F   UNL     1     -44.008 -45.559   8.414  1.00  0.00    -0.205 F 
HETATM   21  C   UNL     1     -43.325 -47.612   9.374  1.00  0.00     0.132 A 
HETATM   22  N   UNL     1     -42.685 -48.353  10.312  1.00  0.00    -0.349 N 
ATOM     23  HN  UNL     1     -42.640 -49.371  10.255  1.00  0.00     0.167 HD
ENDBRANCH   4  16
TORSDOF 3
ENDMDL
MODEL 7
REMARK VINA RESULT:      -5.1      1.956      2.621
REMARK  3 active torsions:
REMARK  status: ('A' for Active; 'I' for Inactive)
REMARK    1  A    between atoms: C_2  and  N_4 
REMARK    2  A    between atoms: C_7  and  N_8 
REMARK       I    between atoms: N_8  and  C_9 
REMARK       I    between atoms: C_9  and  N_11 
REMARK    3  A    between atoms: N_11  and  C_12 
ROOT
HETATM    1  N   UNL     1     -44.161 -51.919  13.375  1.00  0.00    -0.330 N 
HETATM    2  C   UNL     1     -43.151 -51.093  12.973  1.00  0.00     0.322 C 
HETATM    3  O   UNL     1     -42.003 -51.488  12.804  1.00  0.00    -0.247 OA
HETATM    4  N   UNL     1     -43.581 -49.806  12.758  1.00  0.00    -0.295 N 
HETATM    5  H   UNL     1     -45.053 -51.508  13.617  1.00  0.00     0.165 HD
HETATM    6  H   UNL     1     -44.211 -49.436  13.455  1.00  0.00     0.172 HD
ENDROOT
BRANCH   1   7
HETATM    7  C   UNL     1     -43.890 -53.260  13.883  1.00  0.00     0.180 C 
HETATM    8  C   UNL     1     -45.000 -54.281  13.652  1.00  0.00     0.055 C 
HETATM    9  C   UNL     1     -45.894 -54.146  14.866  1.00  0.00     0.129 C 
HETATM   10  N   UNL     1     -45.032 -53.660  15.919  1.00  0.00    -0.346 N 
HETATM   11  C   UNL     1     -43.844 -53.136  15.402  1.00  0.00     0.243 C 
HETATM   12  O   UNL     1     -43.013 -52.487  16.022  1.00  0.00    -0.271 OA
BRANCH  10  13
HETATM   13  C   UNL     1     -45.564 -53.174  17.195  1.00  0.00     0.079 C 
HETATM   14  C   UNL     1     -46.712 -52.184  16.959  1.00  0.00     0.032 C 
HETATM   15  C   UNL     1     -46.024 -54.303  18.114  1.00  0.00     0.032 C 
ENDBRANCH  10  13
ENDBRANCH   1   7
BRANCH   4  16
HETATM   16  C   UNL     1     -42.719 -48.834  12.247  1.00  0.00     0.108 A 
HETATM   17  C   UNL     1     -42.245 -47.792  13.044  1.00  0.00     0.052 A 
HETATM   18  C   UNL     1     -41.442 -46.815  12.465  1.00  0.00     0.047 A 
HETATM   19  C   UNL     1     -41.160 -46.905  11.112  1.00  0.00     0.131 A 
HETATM   20  F   UNL     1     -40.434 -45.958  10.509  1.00  0.00    -0.205 F 
HETATM   21  C   UNL     1     -41.644 -47.989  10.400  1.00  0.00     0.132 A 
HETATM   22  N   UNL     1     -42.389 -48.981  10.946  1.00  0.00    -0.349 N 
ATOM     23  HN  UNL     1     -42.684 -49.793  10.404  1.00  0.00     0.167 HD
ENDBRANCH   4  16
TORSDOF 3
ENDMDL
MODEL 8
REMARK VINA RESULT:      -5.0      5.339      7.991
REMARK  3 active torsions:
REMARK  status: ('A' for Active; 'I' for Inactive)
REMARK    1  A    between atoms: C_2  and  N_4 
REMARK    2  A    between atoms: C_7  and  N_8 
REMARK       I    between atoms: N_8  and  C_9 
REMARK       I    between atoms: C_9  and  N_11 
REMARK    3  A    between atoms: N_11  and  C_12 
ROOT
HETATM    1  N   UNL     1     -42.522 -53.438  14.342  1.00  0.00    -0.330 N 
HETATM    2  C   UNL     1     -41.454 -54.224  14.666  1.00  0.00     0.322 C 
HETATM    3  O   UNL     1     -40.457 -54.308  13.958  1.00  0.00    -0.247 OA
HETATM    4  N   UNL     1     -41.622 -54.868  15.868  1.00  0.00    -0.295 N 
HETATM    5  H   UNL     1     -43.362 -53.510  14.902  1.00  0.00     0.165 HD
HETATM    6  H   UNL     1     -42.535 -55.268  16.023  1.00  0.00     0.172 HD
ENDROOT
BRANCH   1   7
HETATM    7  C   UNL     1     -42.661 -52.854  13.012  1.00  0.00     0.180 C 
HETATM    8  C   UNL     1     -42.367 -51.360  12.924  1.00  0.00     0.055 C 
HETATM    9  C   UNL     1     -43.698 -50.696  13.209  1.00  0.00     0.129 C 
HETATM   10  N   UNL     1     -44.696 -51.658  12.803  1.00  0.00    -0.346 N 
HETATM   11  C   UNL     1     -44.144 -52.936  12.667  1.00  0.00     0.243 C 
HETATM   12  O   UNL     1     -44.768 -53.978  12.523  1.00  0.00    -0.271 OA
BRANCH  10  13
HETATM   13  C   UNL     1     -46.113 -51.494  13.135  1.00  0.00     0.079 C 
HETATM   14  C   UNL     1     -46.992 -51.783  11.911  1.00  0.00     0.032 C 
HETATM   15  C   UNL     1     -46.549 -52.364  14.312  1.00  0.00     0.032 C 
ENDBRANCH  10  13
ENDBRANCH   1   7
BRANCH   4  16
HETATM   16  C   UNL     1     -40.599 -55.640  16.421  1.00  0.00     0.108 A 
HETATM   17  C   UNL     1     -40.835 -56.934  16.885  1.00  0.00     0.052 A 
HETATM   18  C   UNL     1     -39.794 -57.632  17.487  1.00  0.00     0.047 A 
HETATM   19  C   UNL     1     -38.566 -57.006  17.621  1.00  0.00     0.131 A 
HETATM   20  F   UNL     1     -37.556 -57.627  18.239  1.00  0.00    -0.205 F 
HETATM   21  C   UNL     1     -38.407 -55.731  17.106  1.00  0.00     0.132 A 
HETATM   22  N   UNL     1     -39.388 -55.044  16.472  1.00  0.00    -0.349 N 
ATOM     23  HN  UNL     1     -39.221 -54.127  16.057  1.00  0.00     0.167 HD
ENDBRANCH   4  16
TORSDOF 3
ENDMDL
MODEL 9
REMARK VINA RESULT:      -5.0      2.858      3.718
REMARK  3 active torsions:
REMARK  status: ('A' for Active; 'I' for Inactive)
REMARK    1  A    between atoms: C_2  and  N_4 
REMARK    2  A    between atoms: C_7  and  N_8 
REMARK       I    between atoms: N_8  and  C_9 
REMARK       I    between atoms: C_9  and  N_11 
REMARK    3  A    between atoms: N_11  and  C_12 
ROOT
HETATM    1  N   UNL     1     -43.912 -50.977  13.597  1.00  0.00    -0.330 N 
HETATM    2  C   UNL     1     -42.673 -51.041  13.025  1.00  0.00     0.322 C 
HETATM    3  O   UNL     1     -42.369 -51.898  12.204  1.00  0.00    -0.247 OA
HETATM    4  N   UNL     1     -41.845 -50.033  13.455  1.00  0.00    -0.295 N 
HETATM    5  H   UNL     1     -44.059 -50.327  14.358  1.00  0.00     0.165 HD
HETATM    6  H   UNL     1     -41.872 -49.841  14.446  1.00  0.00     0.172 HD
ENDROOT
BRANCH   1   7
HETATM    7  C   UNL     1     -44.867 -52.073  13.467  1.00  0.00     0.180 C 
HETATM    8  C   UNL     1     -46.329 -51.653  13.357  1.00  0.00     0.055 C 
HETATM    9  C   UNL     1     -46.810 -51.580  14.790  1.00  0.00     0.129 C 
HETATM   10  N   UNL     1     -45.970 -52.504  15.518  1.00  0.00    -0.346 N 
HETATM   11  C   UNL     1     -44.823 -52.830  14.789  1.00  0.00     0.243 C 
HETATM   12  O   UNL     1     -43.845 -53.430  15.215  1.00  0.00    -0.271 OA
BRANCH  10  13
HETATM   13  C   UNL     1     -45.957 -52.552  16.983  1.00  0.00     0.079 C 
HETATM   14  C   UNL     1     -47.081 -51.683  17.562  1.00  0.00     0.032 C 
HETATM   15  C   UNL     1     -46.058 -53.975  17.529  1.00  0.00     0.032 C 
ENDBRANCH  10  13
ENDBRANCH   1   7
BRANCH   4  16
HETATM   16  C   UNL     1     -40.570 -49.868  12.913  1.00  0.00     0.108 A 
HETATM   17  C   UNL     1     -40.207 -48.692  12.257  1.00  0.00     0.052 A 
HETATM   18  C   UNL     1     -38.945 -48.607  11.677  1.00  0.00     0.047 A 
HETATM   19  C   UNL     1     -38.104 -49.705  11.757  1.00  0.00     0.131 A 
HETATM   20  F   UNL     1     -36.904 -49.680  11.169  1.00  0.00    -0.205 F 
HETATM   21  C   UNL     1     -38.530 -50.823  12.454  1.00  0.00     0.132 A 
HETATM   22  N   UNL     1     -39.735 -50.917  13.069  1.00  0.00    -0.349 N 
ATOM     23  HN  UNL     1     -39.995 -51.735  13.620  1.00  0.00     0.167 HD
ENDBRANCH   4  16
TORSDOF 3
ENDMDL
