MODEL 1
REMARK VINA RESULT:      -6.0      0.000      0.000
REMARK  2 active torsions:
REMARK  status: ('A' for Active; 'I' for Inactive)
REMARK       I    between atoms: C_2  and  N_3 
REMARK       I    between atoms: C_2  and  N_11 
REMARK    1  A    between atoms: N_3  and  C_4 
REMARK    2  A    between atoms: N_11  and  C_12 
ROOT
HETATM    1  O   UNL     1     -42.817 -48.077  11.823  1.00  0.00    -0.247 OA
HETATM    2  C   UNL     1     -42.329 -48.365  10.739  1.00  0.00     0.321 C 
HETATM    3  N   UNL     1     -41.091 -48.964  10.642  1.00  0.00    -0.338 N 
HETATM    4  N   UNL     1     -42.902 -48.137   9.507  1.00  0.00    -0.308 N 
HETATM    5  H   UNL     1     -40.790 -49.349   9.760  1.00  0.00     0.164 HD
HETATM    6  H   UNL     1     -42.512 -48.635   8.720  1.00  0.00     0.170 HD
ENDROOT
BRANCH   3   7
HETATM    7  C   UNL     1     -40.365 -49.337  11.857  1.00  0.00     0.086 C 
HETATM    8  C   UNL     1     -38.956 -48.736  11.827  1.00  0.00     0.025 C 
HETATM    9  C   UNL     1     -38.315 -48.696  13.213  1.00  0.00     0.002 C 
HETATM   10  C   UNL     1     -37.574 -49.963  13.627  1.00  0.00     0.000 C 
HETATM   11  C   UNL     1     -38.186 -51.298  13.216  1.00  0.00     0.000 C 
HETATM   12  C   UNL     1     -39.706 -51.371  13.305  1.00  0.00     0.002 C 
HETATM   13  C   UNL     1     -40.400 -50.860  12.042  1.00  0.00     0.025 C 
ENDBRANCH   3   7
BRANCH   4  14
HETATM   14  C   UNL     1     -44.123 -47.451   9.302  1.00  0.00     0.051 A 
HETATM   15  C   UNL     1     -45.371 -48.073   9.313  1.00  0.00     0.032 A 
HETATM   16  C   UNL     1     -46.524 -47.335   9.057  1.00  0.00     0.019 A 
HETATM   17  C   UNL     1     -46.396 -45.981   8.811  1.00  0.00     0.088 A 
HETATM   18  N   UNL     1     -45.215 -45.327   8.826  1.00  0.00    -0.373 N 
HETATM   19  C   UNL     1     -44.112 -46.076   9.076  1.00  0.00     0.117 A 
ATOM     20  HN  UNL     1     -45.155 -44.322   8.657  1.00  0.00     0.164 HD
ENDBRANCH   4  14
TORSDOF 2
ENDMDL
MODEL 2
REMARK VINA RESULT:      -5.9      3.624      5.352
REMARK  2 active torsions:
REMARK  status: ('A' for Active; 'I' for Inactive)
REMARK       I    between atoms: C_2  and  N_3 
REMARK       I    between atoms: C_2  and  N_11 
REMARK    1  A    between atoms: N_3  and  C_4 
REMARK    2  A    between atoms: N_11  and  C_12 
ROOT
HETATM    1  O   UNL     1     -42.740 -49.805  13.081  1.00  0.00    -0.247 OA
HETATM    2  C   UNL     1     -42.238 -50.427  12.155  1.00  0.00     0.321 C 
HETATM    3  N   UNL     1     -42.315 -51.802  12.084  1.00  0.00    -0.338 N 
HETATM    4  N   UNL     1     -41.542 -49.884  11.098  1.00  0.00    -0.308 N 
HETATM    5  H   UNL     1     -42.052 -52.275  11.233  1.00  0.00     0.164 HD
HETATM    6  H   UNL     1     -41.396 -50.474  10.293  1.00  0.00     0.170 HD
ENDROOT
BRANCH   3   7
HETATM    7  C   UNL     1     -43.074 -52.542  13.094  1.00  0.00     0.086 C 
HETATM    8  C   UNL     1     -42.324 -53.822  13.476  1.00  0.00     0.025 C 
HETATM    9  C   UNL     1     -42.805 -54.400  14.805  1.00  0.00     0.002 C 
HETATM   10  C   UNL     1     -44.002 -55.340  14.715  1.00  0.00     0.000 C 
HETATM   11  C   UNL     1     -45.094 -54.988  13.710  1.00  0.00     0.000 C 
HETATM   12  C   UNL     1     -45.418 -53.503  13.595  1.00  0.00     0.002 C 
HETATM   13  C   UNL     1     -44.511 -52.772  12.605  1.00  0.00     0.025 C 
ENDBRANCH   3   7
BRANCH   4  14
HETATM   14  C   UNL     1     -41.226 -48.510  10.964  1.00  0.00     0.051 A 
HETATM   15  C   UNL     1     -40.141 -47.901  11.593  1.00  0.00     0.032 A 
HETATM   16  C   UNL     1     -39.924 -46.533  11.447  1.00  0.00     0.019 A 
HETATM   17  C   UNL     1     -40.797 -45.811  10.654  1.00  0.00     0.088 A 
HETATM   18  N   UNL     1     -41.838 -46.362   9.995  1.00  0.00    -0.373 N 
HETATM   19  C   UNL     1     -42.022 -47.696  10.161  1.00  0.00     0.117 A 
ATOM     20  HN  UNL     1     -42.455 -45.804   9.403  1.00  0.00     0.164 HD
ENDBRANCH   4  14
TORSDOF 2
ENDMDL
MODEL 3
REMARK VINA RESULT:      -5.7      4.396      5.343
REMARK  2 active torsions:
REMARK  status: ('A' for Active; 'I' for Inactive)
REMARK       I    between atoms: C_2  and  N_3 
REMARK       I    between atoms: C_2  and  N_11 
REMARK    1  A    between atoms: N_3  and  C_4 
REMARK    2  A    between atoms: N_11  and  C_12 
ROOT
HETATM    1  O   UNL     1     -42.584 -51.297  14.217  1.00  0.00    -0.247 OA
HETATM    2  C   UNL     1     -42.845 -51.458  13.034  1.00  0.00     0.321 C 
HETATM    3  N   UNL     1     -41.957 -51.098  12.043  1.00  0.00    -0.338 N 
HETATM    4  N   UNL     1     -44.013 -51.984  12.527  1.00  0.00    -0.308 N 
HETATM    5  H   UNL     1     -42.116 -51.398  11.094  1.00  0.00     0.164 HD
HETATM    6  H   UNL     1     -44.002 -52.284  11.563  1.00  0.00     0.170 HD
ENDROOT
BRANCH   3   7
HETATM    7  C   UNL     1     -40.637 -50.578  12.403  1.00  0.00     0.086 C 
HETATM    8  C   UNL     1     -40.070 -49.746  11.247  1.00  0.00     0.025 C 
HETATM    9  C   UNL     1     -38.940 -48.823  11.698  1.00  0.00     0.002 C 
HETATM   10  C   UNL     1     -37.548 -49.446  11.696  1.00  0.00     0.000 C 
HETATM   11  C   UNL     1     -37.432 -50.902  12.135  1.00  0.00     0.000 C 
HETATM   12  C   UNL     1     -38.327 -51.302  13.303  1.00  0.00     0.002 C 
HETATM   13  C   UNL     1     -39.727 -51.727  12.860  1.00  0.00     0.025 C 
ENDBRANCH   3   7
BRANCH   4  14
HETATM   14  C   UNL     1     -45.137 -52.349  13.307  1.00  0.00     0.051 A 
HETATM   15  C   UNL     1     -45.951 -51.430  13.968  1.00  0.00     0.032 A 
HETATM   16  C   UNL     1     -47.012 -51.872  14.754  1.00  0.00     0.019 A 
HETATM   17  C   UNL     1     -47.240 -53.232  14.845  1.00  0.00     0.088 A 
HETATM   18  N   UNL     1     -46.503 -54.159  14.195  1.00  0.00    -0.373 N 
HETATM   19  C   UNL     1     -45.476 -53.694  13.440  1.00  0.00     0.117 A 
ATOM     20  HN  UNL     1     -46.708 -55.156  14.269  1.00  0.00     0.164 HD
ENDBRANCH   4  14
TORSDOF 2
ENDMDL
MODEL 4
REMARK VINA RESULT:      -5.6      3.628      6.359
REMARK  2 active torsions:
REMARK  status: ('A' for Active; 'I' for Inactive)
REMARK       I    between atoms: C_2  and  N_3 
REMARK       I    between atoms: C_2  and  N_11 
REMARK    1  A    between atoms: N_3  and  C_4 
REMARK    2  A    between atoms: N_11  and  C_12 
ROOT
HETATM    1  O   UNL     1     -42.794 -50.263  13.280  1.00  0.00    -0.247 OA
HETATM    2  C   UNL     1     -42.292 -50.776  12.290  1.00  0.00     0.321 C 
HETATM    3  N   UNL     1     -41.668 -50.017  11.323  1.00  0.00    -0.338 N 
HETATM    4  N   UNL     1     -42.283 -52.120  11.991  1.00  0.00    -0.308 N 
HETATM    5  H   UNL     1     -41.114 -50.469  10.612  1.00  0.00     0.164 HD
HETATM    6  H   UNL     1     -41.635 -52.429  11.281  1.00  0.00     0.170 HD
ENDROOT
BRANCH   3   7
HETATM    7  C   UNL     1     -41.529 -48.572  11.507  1.00  0.00     0.086 C 
HETATM    8  C   UNL     1     -42.158 -47.831  10.323  1.00  0.00     0.025 C 
HETATM    9  C   UNL     1     -42.453 -46.368  10.645  1.00  0.00     0.002 C 
HETATM   10  C   UNL     1     -41.298 -45.401  10.407  1.00  0.00     0.000 C 
HETATM   11  C   UNL     1     -39.895 -45.888  10.752  1.00  0.00     0.000 C 
HETATM   12  C   UNL     1     -39.792 -46.730  12.019  1.00  0.00     0.002 C 
HETATM   13  C   UNL     1     -40.059 -48.215  11.768  1.00  0.00     0.025 C 
ENDBRANCH   3   7
BRANCH   4  14
HETATM   14  C   UNL     1     -42.933 -53.119  12.756  1.00  0.00     0.051 A 
HETATM   15  C   UNL     1     -44.265 -53.489  12.572  1.00  0.00     0.032 A 
HETATM   16  C   UNL     1     -44.845 -54.450  13.397  1.00  0.00     0.019 A 
HETATM   17  C   UNL     1     -44.065 -55.029  14.380  1.00  0.00     0.088 A 
HETATM   18  N   UNL     1     -42.762 -54.732  14.573  1.00  0.00    -0.373 N 
HETATM   19  C   UNL     1     -42.229 -53.790  13.753  1.00  0.00     0.117 A 
ATOM     20  HN  UNL     1     -42.208 -55.190  15.296  1.00  0.00     0.164 HD
ENDBRANCH   4  14
TORSDOF 2
ENDMDL
MODEL 5
REMARK VINA RESULT:      -5.6      4.020      5.630
REMARK  2 active torsions:
REMARK  status: ('A' for Active; 'I' for Inactive)
REMARK       I    between atoms: C_2  and  N_3 
REMARK       I    between atoms: C_2  and  N_11 
REMARK    1  A    between atoms: N_3  and  C_4 
REMARK    2  A    between atoms: N_11  and  C_12 
ROOT
HETATM    1  O   UNL     1     -41.749 -51.255  13.391  1.00  0.00    -0.247 OA
HETATM    2  C   UNL     1     -41.833 -51.689  12.250  1.00  0.00     0.321 C 
HETATM    3  N   UNL     1     -41.046 -51.196  11.231  1.00  0.00    -0.338 N 
HETATM    4  N   UNL     1     -42.692 -52.676  11.821  1.00  0.00    -0.308 N 
HETATM    5  H   UNL     1     -41.007 -51.683  10.349  1.00  0.00     0.164 HD
HETATM    6  H   UNL     1     -42.492 -53.102  10.928  1.00  0.00     0.170 HD
ENDROOT
BRANCH   3   7
HETATM    7  C   UNL     1     -40.030 -50.183  11.521  1.00  0.00     0.086 C 
HETATM    8  C   UNL     1     -39.056 -50.707  12.581  1.00  0.00     0.025 C 
HETATM    9  C   UNL     1     -37.748 -49.920  12.605  1.00  0.00     0.002 C 
HETATM   10  C   UNL     1     -37.753 -48.673  13.483  1.00  0.00     0.000 C 
HETATM   11  C   UNL     1     -39.030 -47.840  13.510  1.00  0.00     0.000 C 
HETATM   12  C   UNL     1     -39.742 -47.700  12.169  1.00  0.00     0.002 C 
HETATM   13  C   UNL     1     -40.705 -48.853  11.885  1.00  0.00     0.025 C 
ENDBRANCH   3   7
BRANCH   4  14
HETATM   14  C   UNL     1     -43.679 -53.292  12.629  1.00  0.00     0.051 A 
HETATM   15  C   UNL     1     -43.400 -54.284  13.568  1.00  0.00     0.032 A 
HETATM   16  C   UNL     1     -44.434 -54.873  14.292  1.00  0.00     0.019 A 
HETATM   17  C   UNL     1     -45.726 -54.438  14.065  1.00  0.00     0.088 A 
HETATM   18  N   UNL     1     -46.042 -53.455  13.194  1.00  0.00    -0.373 N 
HETATM   19  C   UNL     1     -45.011 -52.905  12.504  1.00  0.00     0.117 A 
ATOM     20  HN  UNL     1     -47.004 -53.144  13.062  1.00  0.00     0.164 HD
ENDBRANCH   4  14
TORSDOF 2
ENDMDL
MODEL 6
REMARK VINA RESULT:      -5.6      4.299      7.105
REMARK  2 active torsions:
REMARK  status: ('A' for Active; 'I' for Inactive)
REMARK       I    between atoms: C_2  and  N_3 
REMARK       I    between atoms: C_2  and  N_11 
REMARK    1  A    between atoms: N_3  and  C_4 
REMARK    2  A    between atoms: N_11  and  C_12 
ROOT
HETATM    1  O   UNL     1     -42.549 -51.432  13.450  1.00  0.00    -0.247 OA
HETATM    2  C   UNL     1     -42.327 -51.978  12.378  1.00  0.00     0.321 C 
HETATM    3  N   UNL     1     -43.207 -52.891  11.838  1.00  0.00    -0.338 N 
HETATM    4  N   UNL     1     -41.214 -51.790  11.589  1.00  0.00    -0.308 N 
HETATM    5  H   UNL     1     -43.092 -53.193  10.883  1.00  0.00     0.164 HD
HETATM    6  H   UNL     1     -41.269 -52.110  10.633  1.00  0.00     0.170 HD
ENDROOT
BRANCH   3   7
HETATM    7  C   UNL     1     -44.476 -53.168  12.514  1.00  0.00     0.086 C 
HETATM    8  C   UNL     1     -45.039 -51.876  13.116  1.00  0.00     0.025 C 
HETATM    9  C   UNL     1     -46.529 -51.986  13.431  1.00  0.00     0.002 C 
HETATM   10  C   UNL     1     -46.865 -52.562  14.803  1.00  0.00     0.000 C 
HETATM   11  C   UNL     1     -45.991 -53.700  15.318  1.00  0.00     0.000 C 
HETATM   12  C   UNL     1     -45.566 -54.719  14.267  1.00  0.00     0.002 C 
HETATM   13  C   UNL     1     -44.294 -54.309  13.524  1.00  0.00     0.025 C 
ENDBRANCH   3   7
BRANCH   4  14
HETATM   14  C   UNL     1     -40.104 -50.985  11.942  1.00  0.00     0.051 A 
HETATM   15  C   UNL     1     -39.166 -51.341  12.910  1.00  0.00     0.032 A 
HETATM   16  C   UNL     1     -38.126 -50.473  13.232  1.00  0.00     0.019 A 
HETATM   17  C   UNL     1     -38.045 -49.268  12.559  1.00  0.00     0.088 A 
HETATM   18  N   UNL     1     -38.906 -48.894  11.588  1.00  0.00    -0.373 N 
HETATM   19  C   UNL     1     -39.908 -49.763  11.301  1.00  0.00     0.117 A 
ATOM     20  HN  UNL     1     -38.809 -48.005  11.097  1.00  0.00     0.164 HD
ENDBRANCH   4  14
TORSDOF 2
ENDMDL
MODEL 7
REMARK VINA RESULT:      -5.2      4.529      7.316
REMARK  2 active torsions:
REMARK  status: ('A' for Active; 'I' for Inactive)
REMARK       I    between atoms: C_2  and  N_3 
REMARK       I    between atoms: C_2  and  N_11 
REMARK    1  A    between atoms: N_3  and  C_4 
REMARK    2  A    between atoms: N_11  and  C_12 
ROOT
HETATM    1  O   UNL     1     -42.090 -49.726  13.795  1.00  0.00    -0.247 OA
HETATM    2  C   UNL     1     -42.065 -50.934  13.608  1.00  0.00     0.321 C 
HETATM    3  N   UNL     1     -43.098 -51.750  14.021  1.00  0.00    -0.338 N 
HETATM    4  N   UNL     1     -41.050 -51.639  13.000  1.00  0.00    -0.308 N 
HETATM    5  H   UNL     1     -43.138 -52.706  13.703  1.00  0.00     0.164 HD
HETATM    6  H   UNL     1     -41.261 -52.578  12.695  1.00  0.00     0.170 HD
ENDROOT
BRANCH   3   7
HETATM    7  C   UNL     1     -44.291 -51.161  14.632  1.00  0.00     0.086 C 
HETATM    8  C   UNL     1     -44.190 -51.244  16.158  1.00  0.00     0.025 C 
HETATM    9  C   UNL     1     -45.146 -50.277  16.854  1.00  0.00     0.002 C 
HETATM   10  C   UNL     1     -46.554 -50.811  17.096  1.00  0.00     0.000 C 
HETATM   11  C   UNL     1     -47.168 -51.684  16.007  1.00  0.00     0.000 C 
HETATM   12  C   UNL     1     -46.871 -51.245  14.578  1.00  0.00     0.002 C 
HETATM   13  C   UNL     1     -45.554 -51.808  14.045  1.00  0.00     0.025 C 
ENDBRANCH   3   7
BRANCH   4  14
HETATM   14  C   UNL     1     -39.826 -51.074  12.565  1.00  0.00     0.051 A 
HETATM   15  C   UNL     1     -38.620 -51.223  13.248  1.00  0.00     0.032 A 
HETATM   16  C   UNL     1     -37.467 -50.597  12.779  1.00  0.00     0.019 A 
HETATM   17  C   UNL     1     -37.553 -49.846  11.622  1.00  0.00     0.088 A 
HETATM   18  N   UNL     1     -38.689 -49.702  10.906  1.00  0.00    -0.373 N 
HETATM   19  C   UNL     1     -39.793 -50.323  11.392  1.00  0.00     0.117 A 
ATOM     20  HN  UNL     1     -38.715 -49.154  10.045  1.00  0.00     0.164 HD
ENDBRANCH   4  14
TORSDOF 2
ENDMDL
MODEL 8
REMARK VINA RESULT:      -5.0      4.570      6.027
REMARK  2 active torsions:
REMARK  status: ('A' for Active; 'I' for Inactive)
REMARK       I    between atoms: C_2  and  N_3 
REMARK       I    between atoms: C_2  and  N_11 
REMARK    1  A    between atoms: N_3  and  C_4 
REMARK    2  A    between atoms: N_11  and  C_12 
ROOT
HETATM    1  O   UNL     1     -42.934 -49.617  13.977  1.00  0.00    -0.247 OA
HETATM    2  C   UNL     1     -43.440 -49.706  12.867  1.00  0.00     0.321 C 
HETATM    3  N   UNL     1     -44.315 -50.724  12.554  1.00  0.00    -0.338 N 
HETATM    4  N   UNL     1     -43.219 -48.856  11.806  1.00  0.00    -0.308 N 
HETATM    5  H   UNL     1     -44.851 -50.678  11.701  1.00  0.00     0.164 HD
HETATM    6  H   UNL     1     -43.874 -48.899  11.040  1.00  0.00     0.170 HD
ENDROOT
BRANCH   3   7
HETATM    7  C   UNL     1     -44.714 -51.686  13.583  1.00  0.00     0.086 C 
HETATM    8  C   UNL     1     -44.661 -53.108  13.017  1.00  0.00     0.025 C 
HETATM    9  C   UNL     1     -44.621 -54.168  14.116  1.00  0.00     0.002 C 
HETATM   10  C   UNL     1     -45.981 -54.617  14.640  1.00  0.00     0.000 C 
HETATM   11  C   UNL     1     -47.063 -53.552  14.782  1.00  0.00     0.000 C 
HETATM   12  C   UNL     1     -46.580 -52.199  15.292  1.00  0.00     0.002 C 
HETATM   13  C   UNL     1     -46.075 -51.289  14.172  1.00  0.00     0.025 C 
ENDBRANCH   3   7
BRANCH   4  14
HETATM   14  C   UNL     1     -42.296 -47.783  11.814  1.00  0.00     0.051 A 
HETATM   15  C   UNL     1     -40.988 -47.884  11.340  1.00  0.00     0.032 A 
HETATM   16  C   UNL     1     -40.126 -46.793  11.424  1.00  0.00     0.019 A 
HETATM   17  C   UNL     1     -40.607 -45.617  11.970  1.00  0.00     0.088 A 
HETATM   18  N   UNL     1     -41.874 -45.459  12.408  1.00  0.00    -0.373 N 
HETATM   19  C   UNL     1     -42.686 -46.542  12.313  1.00  0.00     0.117 A 
ATOM     20  HN  UNL     1     -42.204 -44.572  12.790  1.00  0.00     0.164 HD
ENDBRANCH   4  14
TORSDOF 2
ENDMDL
MODEL 9
REMARK VINA RESULT:      -4.9     12.984     15.474
REMARK  2 active torsions:
REMARK  status: ('A' for Active; 'I' for Inactive)
REMARK       I    between atoms: C_2  and  N_3 
REMARK       I    between atoms: C_2  and  N_11 
REMARK    1  A    between atoms: N_3  and  C_4 
REMARK    2  A    between atoms: N_11  and  C_12 
ROOT
HETATM    1  O   UNL     1     -51.336 -50.066  -1.041  1.00  0.00    -0.247 OA
HETATM    2  C   UNL     1     -50.753 -50.641  -0.132  1.00  0.00     0.321 C 
HETATM    3  N   UNL     1     -50.549 -52.005  -0.155  1.00  0.00    -0.338 N 
HETATM    4  N   UNL     1     -50.246 -50.052   1.005  1.00  0.00    -0.308 N 
HETATM    5  H   UNL     1     -49.920 -52.427   0.510  1.00  0.00     0.164 HD
HETATM    6  H   UNL     1     -49.587 -50.591   1.546  1.00  0.00     0.170 HD
ENDROOT
BRANCH   3   7
HETATM    7  C   UNL     1     -50.969 -52.785  -1.320  1.00  0.00     0.086 C 
HETATM    8  C   UNL     1     -52.045 -53.796  -0.911  1.00  0.00     0.025 C 
HETATM    9  C   UNL     1     -52.836 -54.316  -2.109  1.00  0.00     0.002 C 
HETATM   10  C   UNL     1     -52.227 -55.520  -2.821  1.00  0.00     0.000 C 
HETATM   11  C   UNL     1     -50.709 -55.557  -2.960  1.00  0.00     0.000 C 
HETATM   12  C   UNL     1     -50.051 -54.215  -3.264  1.00  0.00     0.002 C 
HETATM   13  C   UNL     1     -49.743 -53.406  -2.004  1.00  0.00     0.025 C 
ENDBRANCH   3   7
BRANCH   4  14
HETATM   14  C   UNL     1     -50.396 -48.684   1.338  1.00  0.00     0.051 A 
HETATM   15  C   UNL     1     -49.352 -47.760   1.302  1.00  0.00     0.032 A 
HETATM   16  C   UNL     1     -49.571 -46.440   1.689  1.00  0.00     0.019 A 
HETATM   17  C   UNL     1     -50.843 -46.075   2.088  1.00  0.00     0.088 A 
HETATM   18  N   UNL     1     -51.894 -46.923   2.105  1.00  0.00    -0.373 N 
HETATM   19  C   UNL     1     -51.645 -48.202   1.724  1.00  0.00     0.117 A 
ATOM     20  HN  UNL     1     -52.825 -46.618   2.388  1.00  0.00     0.164 HD
ENDBRANCH   4  14
TORSDOF 2
ENDMDL
