MODEL 1
REMARK VINA RESULT:      -6.4      0.000      0.000
REMARK  3 active torsions:
REMARK  status: ('A' for Active; 'I' for Inactive)
REMARK    1  A    between atoms: N_1  and  C_11 
REMARK    2  A    between atoms: N_2  and  C_12 
REMARK    3  A    between atoms: C_7  and  C_11 
ROOT
HETATM    1  N   UNL     1     -40.126 -51.250  13.108  1.00  0.00    -0.257 N 
HETATM    2  N   UNL     1     -41.838 -52.766  13.680  1.00  0.00    -0.279 N 
HETATM    3  C   UNL     1     -41.039 -52.207  12.681  1.00  0.00     0.334 C 
HETATM    4  C   UNL     1     -39.775 -51.047  14.429  1.00  0.00     0.292 C 
HETATM    5  C   UNL     1     -40.586 -51.773  15.425  1.00  0.00     0.200 C 
HETATM    6  C   UNL     1     -41.577 -52.569  15.024  1.00  0.00     0.146 C 
HETATM    7  O   UNL     1     -41.133 -52.565  11.508  1.00  0.00    -0.246 OA
HETATM    8  O   UNL     1     -38.829 -50.344  14.790  1.00  0.00    -0.264 OA
HETATM    9  F   UNL     1     -40.305 -51.582  16.729  1.00  0.00    -0.199 F 
ENDROOT
BRANCH   1  10
HETATM   10  C   UNL     1     -39.373 -50.532  12.085  1.00  0.00     0.202 C 
BRANCH  10  11
HETATM   11  C   UNL     1     -40.149 -49.360  11.535  1.00  0.00     0.070 A 
HETATM   12  N   UNL     1     -41.062 -49.391  10.585  1.00  0.00    -0.351 N 
HETATM   13  C   UNL     1     -41.625 -48.124  10.422  1.00  0.00     0.050 A 
ATOM     14  HN  UNL     1     -41.319 -50.219  10.047  1.00  0.00     0.166 HD
HETATM   15  C   UNL     1     -42.671 -47.762   9.544  1.00  0.00     0.031 A 
HETATM   16  C   UNL     1     -41.095 -47.134  11.253  1.00  0.00     0.033 A 
HETATM   17  C   UNL     1     -43.191 -46.460   9.572  1.00  0.00     0.002 A 
HETATM   18  C   UNL     1     -42.671 -45.509  10.445  1.00  0.00     0.002 A 
HETATM   19  C   UNL     1     -41.600 -45.823  11.281  1.00  0.00     0.021 A 
HETATM   20  S   UNL     1     -39.806 -47.796  12.169  1.00  0.00    -0.073 SA
ENDBRANCH  10  11
ENDBRANCH   1  10
BRANCH   2  21
HETATM   21  C   UNL     1     -43.004 -53.509  13.235  1.00  0.00     0.232 C 
HETATM   22  O   UNL     1     -44.092 -52.619  12.930  1.00  0.00    -0.366 OA
HETATM   23  C   UNL     1     -45.312 -53.362  13.086  1.00  0.00     0.170 C 
HETATM   24  C   UNL     1     -44.939 -54.742  13.598  1.00  0.00     0.031 C 
HETATM   25  C   UNL     1     -43.585 -54.508  14.226  1.00  0.00     0.056 C 
ENDBRANCH   2  21
TORSDOF 3
ENDMDL
MODEL 2
REMARK VINA RESULT:      -6.3      2.865      6.283
REMARK  3 active torsions:
REMARK  status: ('A' for Active; 'I' for Inactive)
REMARK    1  A    between atoms: N_1  and  C_11 
REMARK    2  A    between atoms: N_2  and  C_12 
REMARK    3  A    between atoms: C_7  and  C_11 
ROOT
HETATM    1  N   UNL     1     -39.796 -50.602  13.848  1.00  0.00    -0.257 N 
HETATM    2  N   UNL     1     -39.563 -48.545  12.721  1.00  0.00    -0.279 N 
HETATM    3  C   UNL     1     -40.132 -49.255  13.779  1.00  0.00     0.334 C 
HETATM    4  C   UNL     1     -38.753 -51.178  13.147  1.00  0.00     0.292 C 
HETATM    5  C   UNL     1     -38.116 -50.320  12.130  1.00  0.00     0.200 C 
HETATM    6  C   UNL     1     -38.548 -49.073  11.944  1.00  0.00     0.146 C 
HETATM    7  O   UNL     1     -40.863 -48.705  14.602  1.00  0.00    -0.246 OA
HETATM    8  O   UNL     1     -38.330 -52.317  13.354  1.00  0.00    -0.264 OA
HETATM    9  F   UNL     1     -37.117 -50.848  11.395  1.00  0.00    -0.199 F 
ENDROOT
BRANCH   1  10
HETATM   10  C   UNL     1     -40.479 -51.418  14.846  1.00  0.00     0.202 C 
BRANCH  10  11
HETATM   11  C   UNL     1     -41.915 -51.685  14.466  1.00  0.00     0.070 A 
HETATM   12  N   UNL     1     -42.988 -51.108  14.968  1.00  0.00    -0.351 N 
HETATM   13  C   UNL     1     -44.128 -51.546  14.292  1.00  0.00     0.050 A 
ATOM     14  HN  UNL     1     -42.986 -50.439  15.739  1.00  0.00     0.166 HD
HETATM   15  C   UNL     1     -45.459 -51.121  14.499  1.00  0.00     0.031 A 
HETATM   16  C   UNL     1     -43.889 -52.487  13.287  1.00  0.00     0.033 A 
HETATM   17  C   UNL     1     -46.483 -51.591  13.664  1.00  0.00     0.002 A 
HETATM   18  C   UNL     1     -46.205 -52.493  12.642  1.00  0.00     0.002 A 
HETATM   19  C   UNL     1     -44.910 -52.973  12.452  1.00  0.00     0.021 A 
HETATM   20  S   UNL     1     -42.223 -52.890  13.274  1.00  0.00    -0.073 SA
ENDBRANCH  10  11
ENDBRANCH   1  10
BRANCH   2  21
HETATM   21  C   UNL     1     -40.141 -47.244  12.430  1.00  0.00     0.232 C 
HETATM   22  O   UNL     1     -40.214 -47.022  11.011  1.00  0.00    -0.366 OA
HETATM   23  C   UNL     1     -40.205 -45.601  10.797  1.00  0.00     0.170 C 
HETATM   24  C   UNL     1     -40.028 -44.940  12.153  1.00  0.00     0.031 C 
HETATM   25  C   UNL     1     -39.391 -46.036  12.975  1.00  0.00     0.056 C 
ENDBRANCH   2  21
TORSDOF 3
ENDMDL
MODEL 3
REMARK VINA RESULT:      -6.2      2.812      6.290
REMARK  3 active torsions:
REMARK  status: ('A' for Active; 'I' for Inactive)
REMARK    1  A    between atoms: N_1  and  C_11 
REMARK    2  A    between atoms: N_2  and  C_12 
REMARK    3  A    between atoms: C_7  and  C_11 
ROOT
HETATM    1  N   UNL     1     -40.741 -50.633  12.072  1.00  0.00    -0.257 N 
HETATM    2  N   UNL     1     -40.333 -48.337  11.729  1.00  0.00    -0.279 N 
HETATM    3  C   UNL     1     -41.264 -49.375  11.799  1.00  0.00     0.334 C 
HETATM    4  C   UNL     1     -39.463 -50.856  12.548  1.00  0.00     0.292 C 
HETATM    5  C   UNL     1     -38.573 -49.679  12.563  1.00  0.00     0.200 C 
HETATM    6  C   UNL     1     -39.023 -48.497  12.144  1.00  0.00     0.146 C 
HETATM    7  O   UNL     1     -42.468 -49.169  11.648  1.00  0.00    -0.246 OA
HETATM    8  O   UNL     1     -39.066 -51.941  12.976  1.00  0.00    -0.264 OA
HETATM    9  F   UNL     1     -37.305 -49.852  12.987  1.00  0.00    -0.199 F 
ENDROOT
BRANCH   1  10
HETATM   10  C   UNL     1     -41.652 -51.771  12.009  1.00  0.00     0.202 C 
BRANCH  10  11
HETATM   11  C   UNL     1     -42.835 -51.595  12.929  1.00  0.00     0.070 A 
HETATM   12  N   UNL     1     -44.103 -51.501  12.581  1.00  0.00    -0.351 N 
HETATM   13  C   UNL     1     -44.909 -51.447  13.719  1.00  0.00     0.050 A 
ATOM     14  HN  UNL     1     -44.445 -51.471  11.620  1.00  0.00     0.166 HD
HETATM   15  C   UNL     1     -46.320 -51.398  13.763  1.00  0.00     0.031 A 
HETATM   16  C   UNL     1     -44.216 -51.475  14.932  1.00  0.00     0.033 A 
HETATM   17  C   UNL     1     -46.985 -51.446  14.998  1.00  0.00     0.002 A 
HETATM   18  C   UNL     1     -46.266 -51.520  16.186  1.00  0.00     0.002 A 
HETATM   19  C   UNL     1     -44.871 -51.512  16.174  1.00  0.00     0.021 A 
HETATM   20  S   UNL     1     -42.530 -51.467  14.620  1.00  0.00    -0.073 SA
ENDBRANCH  10  11
ENDBRANCH   1  10
BRANCH   2  21
HETATM   21  C   UNL     1     -40.793 -47.095  11.131  1.00  0.00     0.232 C 
HETATM   22  O   UNL     1     -39.690 -46.356  10.577  1.00  0.00    -0.366 OA
HETATM   23  C   UNL     1     -40.067 -44.970  10.560  1.00  0.00     0.170 C 
HETATM   24  C   UNL     1     -41.431 -44.863  11.221  1.00  0.00     0.031 C 
HETATM   25  C   UNL     1     -41.487 -46.114  12.066  1.00  0.00     0.056 C 
ENDBRANCH   2  21
TORSDOF 3
ENDMDL
MODEL 4
REMARK VINA RESULT:      -6.2      3.248      6.175
REMARK  3 active torsions:
REMARK  status: ('A' for Active; 'I' for Inactive)
REMARK    1  A    between atoms: N_1  and  C_11 
REMARK    2  A    between atoms: N_2  and  C_12 
REMARK    3  A    between atoms: C_7  and  C_11 
ROOT
HETATM    1  N   UNL     1     -40.122 -51.094  12.383  1.00  0.00    -0.257 N 
HETATM    2  N   UNL     1     -38.513 -50.431  13.973  1.00  0.00    -0.279 N 
HETATM    3  C   UNL     1     -39.186 -51.476  13.337  1.00  0.00     0.334 C 
HETATM    4  C   UNL     1     -40.208 -49.824  11.844  1.00  0.00     0.292 C 
HETATM    5  C   UNL     1     -39.368 -48.798  12.491  1.00  0.00     0.200 C 
HETATM    6  C   UNL     1     -38.587 -49.127  13.520  1.00  0.00     0.146 C 
HETATM    7  O   UNL     1     -38.939 -52.652  13.598  1.00  0.00    -0.246 OA
HETATM    8  O   UNL     1     -40.898 -49.537  10.865  1.00  0.00    -0.264 OA
HETATM    9  F   UNL     1     -39.441 -47.536  12.023  1.00  0.00    -0.199 F 
ENDROOT
BRANCH   1  10
HETATM   10  C   UNL     1     -40.955 -52.140  11.798  1.00  0.00     0.202 C 
BRANCH  10  11
HETATM   11  C   UNL     1     -42.283 -52.261  12.503  1.00  0.00     0.070 A 
HETATM   12  N   UNL     1     -43.225 -51.343  12.582  1.00  0.00    -0.351 N 
HETATM   13  C   UNL     1     -44.346 -51.862  13.232  1.00  0.00     0.050 A 
ATOM     14  HN  UNL     1     -43.146 -50.391  12.221  1.00  0.00     0.166 HD
HETATM   15  C   UNL     1     -45.577 -51.208  13.462  1.00  0.00     0.031 A 
HETATM   16  C   UNL     1     -44.215 -53.184  13.664  1.00  0.00     0.033 A 
HETATM   17  C   UNL     1     -46.643 -51.907  14.047  1.00  0.00     0.002 A 
HETATM   18  C   UNL     1     -46.494 -53.238  14.425  1.00  0.00     0.002 A 
HETATM   19  C   UNL     1     -45.272 -53.890  14.262  1.00  0.00     0.021 A 
HETATM   20  S   UNL     1     -42.624 -53.732  13.334  1.00  0.00    -0.073 SA
ENDBRANCH  10  11
ENDBRANCH   1  10
BRANCH   2  21
HETATM   21  C   UNL     1     -37.784 -50.773  15.182  1.00  0.00     0.232 C 
HETATM   22  O   UNL     1     -38.657 -50.761  16.325  1.00  0.00    -0.366 OA
HETATM   23  C   UNL     1     -37.845 -50.507  17.484  1.00  0.00     0.170 C 
HETATM   24  C   UNL     1     -36.426 -50.266  16.998  1.00  0.00     0.031 C 
HETATM   25  C   UNL     1     -36.635 -49.849  15.560  1.00  0.00     0.056 C 
ENDBRANCH   2  21
TORSDOF 3
ENDMDL
MODEL 5
REMARK VINA RESULT:      -6.2      2.093      2.486
REMARK  3 active torsions:
REMARK  status: ('A' for Active; 'I' for Inactive)
REMARK    1  A    between atoms: N_1  and  C_11 
REMARK    2  A    between atoms: N_2  and  C_12 
REMARK    3  A    between atoms: C_7  and  C_11 
ROOT
HETATM    1  N   UNL     1     -41.295 -53.051  12.846  1.00  0.00    -0.257 N 
HETATM    2  N   UNL     1     -43.111 -53.826  14.133  1.00  0.00    -0.279 N 
HETATM    3  C   UNL     1     -42.669 -53.224  12.953  1.00  0.00     0.334 C 
HETATM    4  C   UNL     1     -40.368 -53.675  13.660  1.00  0.00     0.292 C 
HETATM    5  C   UNL     1     -40.922 -54.400  14.820  1.00  0.00     0.200 C 
HETATM    6  C   UNL     1     -42.239 -54.430  15.020  1.00  0.00     0.146 C 
HETATM    7  O   UNL     1     -43.456 -52.896  12.066  1.00  0.00    -0.246 OA
HETATM    8  O   UNL     1     -39.155 -53.680  13.444  1.00  0.00    -0.264 OA
HETATM    9  F   UNL     1     -40.057 -54.997  15.664  1.00  0.00    -0.199 F 
ENDROOT
BRANCH   1  10
HETATM   10  C   UNL     1     -40.796 -52.296  11.701  1.00  0.00     0.202 C 
BRANCH  10  11
HETATM   11  C   UNL     1     -40.981 -50.809  11.885  1.00  0.00     0.070 A 
HETATM   12  N   UNL     1     -42.096 -50.124  11.732  1.00  0.00    -0.351 N 
HETATM   13  C   UNL     1     -41.891 -48.790  12.088  1.00  0.00     0.050 A 
ATOM     14  HN  UNL     1     -42.980 -50.512  11.400  1.00  0.00     0.166 HD
HETATM   15  C   UNL     1     -42.853 -47.756  12.112  1.00  0.00     0.031 A 
HETATM   16  C   UNL     1     -40.588 -48.483  12.488  1.00  0.00     0.033 A 
HETATM   17  C   UNL     1     -42.504 -46.485  12.591  1.00  0.00     0.002 A 
HETATM   18  C   UNL     1     -41.208 -46.224  13.025  1.00  0.00     0.002 A 
HETATM   19  C   UNL     1     -40.224 -47.210  12.958  1.00  0.00     0.021 A 
HETATM   20  S   UNL     1     -39.599 -49.872  12.310  1.00  0.00    -0.073 SA
ENDBRANCH  10  11
ENDBRANCH   1  10
BRANCH   2  21
HETATM   21  C   UNL     1     -44.533 -53.723  14.417  1.00  0.00     0.232 C 
HETATM   22  O   UNL     1     -44.761 -53.557  15.827  1.00  0.00    -0.366 OA
HETATM   23  C   UNL     1     -46.080 -54.050  16.111  1.00  0.00     0.170 C 
HETATM   24  C   UNL     1     -46.636 -54.623  14.819  1.00  0.00     0.031 C 
HETATM   25  C   UNL     1     -45.387 -54.920  14.024  1.00  0.00     0.056 C 
ENDBRANCH   2  21
TORSDOF 3
ENDMDL
MODEL 6
REMARK VINA RESULT:      -6.1      2.915      6.464
REMARK  3 active torsions:
REMARK  status: ('A' for Active; 'I' for Inactive)
REMARK    1  A    between atoms: N_1  and  C_11 
REMARK    2  A    between atoms: N_2  and  C_12 
REMARK    3  A    between atoms: C_7  and  C_11 
ROOT
HETATM    1  N   UNL     1     -39.795 -47.954  11.866  1.00  0.00    -0.257 N 
HETATM    2  N   UNL     1     -41.779 -47.000  11.023  1.00  0.00    -0.279 N 
HETATM    3  C   UNL     1     -40.901 -48.084  11.034  1.00  0.00     0.334 C 
HETATM    4  C   UNL     1     -39.676 -46.993  12.852  1.00  0.00     0.292 C 
HETATM    5  C   UNL     1     -40.717 -45.947  12.855  1.00  0.00     0.200 C 
HETATM    6  C   UNL     1     -41.693 -45.976  11.949  1.00  0.00     0.146 C 
HETATM    7  O   UNL     1     -41.119 -49.093  10.364  1.00  0.00    -0.246 OA
HETATM    8  O   UNL     1     -38.795 -46.997  13.714  1.00  0.00    -0.264 OA
HETATM    9  F   UNL     1     -40.625 -44.968  13.777  1.00  0.00    -0.199 F 
ENDROOT
BRANCH   1  10
HETATM   10  C   UNL     1     -38.775 -48.994  11.801  1.00  0.00     0.202 C 
BRANCH  10  11
HETATM   11  C   UNL     1     -39.219 -50.260  12.495  1.00  0.00     0.070 A 
HETATM   12  N   UNL     1     -40.047 -51.171  12.026  1.00  0.00    -0.351 N 
HETATM   13  C   UNL     1     -40.132 -52.243  12.917  1.00  0.00     0.050 A 
ATOM     14  HN  UNL     1     -40.552 -51.104  11.142  1.00  0.00     0.166 HD
HETATM   15  C   UNL     1     -40.870 -53.435  12.748  1.00  0.00     0.031 A 
HETATM   16  C   UNL     1     -39.369 -52.103  14.079  1.00  0.00     0.033 A 
HETATM   17  C   UNL     1     -40.771 -54.462  13.699  1.00  0.00     0.002 A 
HETATM   18  C   UNL     1     -39.966 -54.309  14.824  1.00  0.00     0.002 A 
HETATM   19  C   UNL     1     -39.272 -53.120  15.044  1.00  0.00     0.021 A 
HETATM   20  S   UNL     1     -38.624 -50.559  14.084  1.00  0.00    -0.073 SA
ENDBRANCH  10  11
ENDBRANCH   1  10
BRANCH   2  21
HETATM   21  C   UNL     1     -42.748 -46.963   9.940  1.00  0.00     0.232 C 
HETATM   22  O   UNL     1     -42.913 -45.623   9.447  1.00  0.00    -0.366 OA
HETATM   23  C   UNL     1     -44.223 -45.538   8.861  1.00  0.00     0.170 C 
HETATM   24  C   UNL     1     -44.911 -46.872   9.096  1.00  0.00     0.031 C 
HETATM   25  C   UNL     1     -44.157 -47.429  10.282  1.00  0.00     0.056 C 
ENDBRANCH   2  21
TORSDOF 3
ENDMDL
MODEL 7
REMARK VINA RESULT:      -6.0      2.872      4.211
REMARK  3 active torsions:
REMARK  status: ('A' for Active; 'I' for Inactive)
REMARK    1  A    between atoms: N_1  and  C_11 
REMARK    2  A    between atoms: N_2  and  C_12 
REMARK    3  A    between atoms: C_7  and  C_11 
ROOT
HETATM    1  N   UNL     1     -41.105 -53.379  12.959  1.00  0.00    -0.257 N 
HETATM    2  N   UNL     1     -40.202 -54.311  14.926  1.00  0.00    -0.279 N 
HETATM    3  C   UNL     1     -40.008 -53.509  13.801  1.00  0.00     0.334 C 
HETATM    4  C   UNL     1     -42.395 -53.735  13.305  1.00  0.00     0.292 C 
HETATM    5  C   UNL     1     -42.536 -54.472  14.575  1.00  0.00     0.200 C 
HETATM    6  C   UNL     1     -41.458 -54.745  15.310  1.00  0.00     0.146 C 
HETATM    7  O   UNL     1     -38.935 -52.941  13.595  1.00  0.00    -0.246 OA
HETATM    8  O   UNL     1     -43.392 -53.440  12.643  1.00  0.00    -0.264 OA
HETATM    9  F   UNL     1     -43.770 -54.872  14.940  1.00  0.00    -0.199 F 
ENDROOT
BRANCH   1  10
HETATM   10  C   UNL     1     -40.909 -52.672  11.697  1.00  0.00     0.202 C 
BRANCH  10  11
HETATM   11  C   UNL     1     -41.146 -51.189  11.841  1.00  0.00     0.070 A 
HETATM   12  N   UNL     1     -42.307 -50.582  11.979  1.00  0.00    -0.351 N 
HETATM   13  C   UNL     1     -42.111 -49.215  12.183  1.00  0.00     0.050 A 
ATOM     14  HN  UNL     1     -43.217 -51.043  11.942  1.00  0.00     0.166 HD
HETATM   15  C   UNL     1     -43.102 -48.238  12.427  1.00  0.00     0.031 A 
HETATM   16  C   UNL     1     -40.776 -48.804  12.168  1.00  0.00     0.033 A 
HETATM   17  C   UNL     1     -42.729 -46.916  12.709  1.00  0.00     0.002 A 
HETATM   18  C   UNL     1     -41.387 -46.549  12.732  1.00  0.00     0.002 A 
HETATM   19  C   UNL     1     -40.391 -47.480  12.438  1.00  0.00     0.021 A 
HETATM   20  S   UNL     1     -39.776 -50.145  11.791  1.00  0.00    -0.073 SA
ENDBRANCH  10  11
ENDBRANCH   1  10
BRANCH   2  21
HETATM   21  C   UNL     1     -39.006 -54.729  15.637  1.00  0.00     0.232 C 
HETATM   22  O   UNL     1     -39.057 -56.134  15.942  1.00  0.00    -0.366 OA
HETATM   23  C   UNL     1     -38.225 -56.354  17.093  1.00  0.00     0.170 C 
HETATM   24  C   UNL     1     -37.721 -54.997  17.554  1.00  0.00     0.031 C 
HETATM   25  C   UNL     1     -38.745 -54.050  16.974  1.00  0.00     0.056 C 
ENDBRANCH   2  21
TORSDOF 3
ENDMDL
MODEL 8
REMARK VINA RESULT:      -6.0      3.616      5.481
REMARK  3 active torsions:
REMARK  status: ('A' for Active; 'I' for Inactive)
REMARK    1  A    between atoms: N_1  and  C_11 
REMARK    2  A    between atoms: N_2  and  C_12 
REMARK    3  A    between atoms: C_7  and  C_11 
ROOT
HETATM    1  N   UNL     1     -40.283 -52.245  12.859  1.00  0.00    -0.257 N 
HETATM    2  N   UNL     1     -39.225 -53.170  14.751  1.00  0.00    -0.279 N 
HETATM    3  C   UNL     1     -40.136 -53.336  13.707  1.00  0.00     0.334 C 
HETATM    4  C   UNL     1     -39.410 -51.173  12.814  1.00  0.00     0.292 C 
HETATM    5  C   UNL     1     -38.392 -51.134  13.881  1.00  0.00     0.200 C 
HETATM    6  C   UNL     1     -38.352 -52.098  14.800  1.00  0.00     0.146 C 
HETATM    7  O   UNL     1     -40.744 -54.394  13.547  1.00  0.00    -0.246 OA
HETATM    8  O   UNL     1     -39.425 -50.309  11.936  1.00  0.00    -0.264 OA
HETATM    9  F   UNL     1     -37.539 -50.091  13.902  1.00  0.00    -0.199 F 
ENDROOT
BRANCH   1  10
HETATM   10  C   UNL     1     -41.328 -52.315  11.842  1.00  0.00     0.202 C 
BRANCH  10  11
HETATM   11  C   UNL     1     -42.708 -52.310  12.454  1.00  0.00     0.070 A 
HETATM   12  N   UNL     1     -43.565 -53.311  12.481  1.00  0.00    -0.351 N 
HETATM   13  C   UNL     1     -44.693 -52.953  13.222  1.00  0.00     0.050 A 
ATOM     14  HN  UNL     1     -43.425 -54.214  12.027  1.00  0.00     0.166 HD
HETATM   15  C   UNL     1     -45.807 -53.767  13.527  1.00  0.00     0.031 A 
HETATM   16  C   UNL     1     -44.675 -51.651  13.728  1.00  0.00     0.033 A 
HETATM   17  C   UNL     1     -46.819 -53.284  14.369  1.00  0.00     0.002 A 
HETATM   18  C   UNL     1     -46.748 -51.998  14.894  1.00  0.00     0.002 A 
HETATM   19  C   UNL     1     -45.689 -51.153  14.563  1.00  0.00     0.021 A 
HETATM   20  S   UNL     1     -43.266 -50.847  13.172  1.00  0.00    -0.073 SA
ENDBRANCH  10  11
ENDBRANCH   1  10
BRANCH   2  21
HETATM   21  C   UNL     1     -39.290 -54.145  15.827  1.00  0.00     0.232 C 
HETATM   22  O   UNL     1     -38.914 -53.549  17.080  1.00  0.00    -0.366 OA
HETATM   23  C   UNL     1     -38.425 -54.602  17.927  1.00  0.00     0.170 C 
HETATM   24  C   UNL     1     -38.424 -55.880  17.106  1.00  0.00     0.031 C 
HETATM   25  C   UNL     1     -38.386 -55.362  15.687  1.00  0.00     0.056 C 
ENDBRANCH   2  21
TORSDOF 3
ENDMDL
MODEL 9
REMARK VINA RESULT:      -5.9      2.284      3.075
REMARK  3 active torsions:
REMARK  status: ('A' for Active; 'I' for Inactive)
REMARK    1  A    between atoms: N_1  and  C_11 
REMARK    2  A    between atoms: N_2  and  C_12 
REMARK    3  A    between atoms: C_7  and  C_11 
ROOT
HETATM    1  N   UNL     1     -40.130 -50.298  11.867  1.00  0.00    -0.257 N 
HETATM    2  N   UNL     1     -40.320 -51.969  13.519  1.00  0.00    -0.279 N 
HETATM    3  C   UNL     1     -40.920 -51.270  12.470  1.00  0.00     0.334 C 
HETATM    4  C   UNL     1     -38.762 -50.195  12.037  1.00  0.00     0.292 C 
HETATM    5  C   UNL     1     -38.181 -51.061  13.080  1.00  0.00     0.200 C 
HETATM    6  C   UNL     1     -38.965 -51.880  13.780  1.00  0.00     0.146 C 
HETATM    7  O   UNL     1     -42.066 -51.524  12.100  1.00  0.00    -0.246 OA
HETATM    8  O   UNL     1     -38.036 -49.468  11.356  1.00  0.00    -0.264 OA
HETATM    9  F   UNL     1     -36.855 -50.972  13.308  1.00  0.00    -0.199 F 
ENDROOT
BRANCH   1  10
HETATM   10  C   UNL     1     -40.758 -49.442  10.867  1.00  0.00     0.202 C 
BRANCH  10  11
HETATM   11  C   UNL     1     -40.718 -47.987  11.267  1.00  0.00     0.070 A 
HETATM   12  N   UNL     1     -40.057 -47.018  10.666  1.00  0.00    -0.351 N 
HETATM   13  C   UNL     1     -40.347 -45.795  11.273  1.00  0.00     0.050 A 
ATOM     14  HN  UNL     1     -39.427 -47.144   9.874  1.00  0.00     0.166 HD
HETATM   15  C   UNL     1     -39.880 -44.519  10.885  1.00  0.00     0.031 A 
HETATM   16  C   UNL     1     -41.219 -45.870  12.361  1.00  0.00     0.033 A 
HETATM   17  C   UNL     1     -40.346 -43.372  11.544  1.00  0.00     0.002 A 
HETATM   18  C   UNL     1     -41.250 -43.478  12.596  1.00  0.00     0.002 A 
HETATM   19  C   UNL     1     -41.683 -44.728  13.037  1.00  0.00     0.021 A 
HETATM   20  S   UNL     1     -41.589 -47.514  12.676  1.00  0.00    -0.073 SA
ENDBRANCH  10  11
ENDBRANCH   1  10
BRANCH   2  21
HETATM   21  C   UNL     1     -41.208 -52.743  14.370  1.00  0.00     0.232 C 
HETATM   22  O   UNL     1     -40.768 -52.702  15.739  1.00  0.00    -0.366 OA
HETATM   23  C   UNL     1     -41.262 -53.886  16.385  1.00  0.00     0.170 C 
HETATM   24  C   UNL     1     -41.957 -54.724  15.326  1.00  0.00     0.031 C 
HETATM   25  C   UNL     1     -41.329 -54.225  14.045  1.00  0.00     0.056 C 
ENDBRANCH   2  21
TORSDOF 3
ENDMDL
