MODEL 1
REMARK VINA RESULT:      -6.0      0.000      0.000
REMARK  6 active torsions:
REMARK  status: ('A' for Active; 'I' for Inactive)
REMARK    1  A    between atoms: C_2  and  C_4 
REMARK    2  A    between atoms: C_4  and  N_5 
REMARK    3  A    between atoms: C_4  and  C_13 
REMARK       I    between atoms: C_13  and  N_15 
REMARK    4  A    between atoms: N_15  and  C_16 
REMARK    5  A    between atoms: C_16  and  C_17 
REMARK    6  A    between atoms: C_17  and  C_18 
ROOT
HETATM    1  C   UNL     1     -41.566 -50.174  12.201  1.00  0.00     0.251 C 
HETATM    2  O   UNL     1     -42.716 -50.458  12.533  1.00  0.00    -0.271 OA
HETATM    3  N   UNL     1     -40.727 -51.113  11.622  1.00  0.00    -0.359 N 
HETATM    4  H   UNL     1     -39.757 -50.894  11.467  1.00  0.00     0.162 HD
ENDROOT
BRANCH   1   5
HETATM    5  C   UNL     1     -40.922 -48.752  12.424  1.00  0.00     0.317 C 
BRANCH   5   6
HETATM    6  C   UNL     1     -39.627 -48.998  13.302  1.00  0.00     0.020 C 
HETATM    7  C   UNL     1     -38.282 -48.980  12.565  1.00  0.00     0.012 C 
HETATM    8  C   UNL     1     -39.491 -47.924  14.411  1.00  0.00     0.012 C 
ENDBRANCH   5   6
BRANCH   5   9
HETATM    9  N   UNL     1     -40.745 -48.121  11.065  1.00  0.00     0.107 N 
HETATM   10  C   UNL     1     -40.342 -46.697  11.032  1.00  0.00     0.305 C 
HETATM   11  C   UNL     1     -41.440 -45.701  11.475  1.00  0.00     0.146 C 
HETATM   12  C   UNL     1     -40.976 -44.263  11.270  1.00  0.00     0.041 C 
HETATM   13  O   UNL     1     -42.646 -45.874  10.707  1.00  0.00    -0.378 OA
HETATM   14  C   UNL     1     -43.089 -47.236  10.765  1.00  0.00     0.146 C 
HETATM   15  C   UNL     1     -44.383 -47.376   9.979  1.00  0.00     0.041 C 
HETATM   16  C   UNL     1     -41.979 -48.168  10.224  1.00  0.00     0.305 C 
ENDBRANCH   5   9
ENDBRANCH   1   5
BRANCH   3  17
HETATM   17  C   UNL     1     -41.125 -52.507  11.495  1.00  0.00     0.128 C 
BRANCH  17  18
HETATM   18  C   UNL     1     -40.962 -53.261  12.809  1.00  0.00     0.076 C 
BRANCH  18  19
HETATM   19  C   UNL     1     -42.263 -53.851  13.274  1.00  0.00     0.010 A 
HETATM   20  C   UNL     1     -42.318 -54.591  14.453  1.00  0.00     0.025 A 
HETATM   21  C   UNL     1     -43.544 -55.095  14.874  1.00  0.00     0.003 A 
HETATM   22  C   UNL     1     -44.680 -54.852  14.112  1.00  0.00     0.017 A 
HETATM   23  C   UNL     1     -44.539 -54.106  12.950  1.00  0.00     0.088 A 
HETATM   24  N   UNL     1     -43.363 -53.606  12.516  1.00  0.00    -0.369 N 
ATOM     25  HN  UNL     1     -43.303 -53.065  11.653  1.00  0.00     0.165 HD
ENDBRANCH  18  19
ENDBRANCH  17  18
ENDBRANCH   3  17
TORSDOF 6
ENDMDL
MODEL 2
REMARK VINA RESULT:      -5.9      2.324      6.823
REMARK  6 active torsions:
REMARK  status: ('A' for Active; 'I' for Inactive)
REMARK    1  A    between atoms: C_2  and  C_4 
REMARK    2  A    between atoms: C_4  and  N_5 
REMARK    3  A    between atoms: C_4  and  C_13 
REMARK       I    between atoms: C_13  and  N_15 
REMARK    4  A    between atoms: N_15  and  C_16 
REMARK    5  A    between atoms: C_16  and  C_17 
REMARK    6  A    between atoms: C_17  and  C_18 
ROOT
HETATM    1  C   UNL     1     -42.205 -50.310  12.980  1.00  0.00     0.251 C 
HETATM    2  O   UNL     1     -41.982 -49.630  13.980  1.00  0.00    -0.271 OA
HETATM    3  N   UNL     1     -42.080 -49.783  11.704  1.00  0.00    -0.359 N 
HETATM    4  H   UNL     1     -42.380 -50.319  10.907  1.00  0.00     0.162 HD
ENDROOT
BRANCH   1   5
HETATM    5  C   UNL     1     -42.683 -51.812  13.038  1.00  0.00     0.317 C 
BRANCH   5   6
HETATM    6  C   UNL     1     -41.397 -52.661  13.400  1.00  0.00     0.020 C 
HETATM    7  C   UNL     1     -41.317 -54.076  12.812  1.00  0.00     0.012 C 
HETATM    8  C   UNL     1     -40.105 -51.953  12.917  1.00  0.00     0.012 C 
ENDBRANCH   5   6
BRANCH   5   9
HETATM    9  N   UNL     1     -43.858 -51.873  13.982  1.00  0.00     0.107 N 
HETATM   10  C   UNL     1     -44.276 -53.214  14.449  1.00  0.00     0.305 C 
HETATM   11  C   UNL     1     -44.952 -54.096  13.372  1.00  0.00     0.146 C 
HETATM   12  C   UNL     1     -45.471 -55.391  13.986  1.00  0.00     0.041 C 
HETATM   13  O   UNL     1     -46.079 -53.425  12.777  1.00  0.00    -0.378 OA
HETATM   14  C   UNL     1     -45.691 -52.143  12.266  1.00  0.00     0.146 C 
HETATM   15  C   UNL     1     -46.891 -51.480  11.610  1.00  0.00     0.041 C 
HETATM   16  C   UNL     1     -45.108 -51.281  13.412  1.00  0.00     0.305 C 
ENDBRANCH   5   9
ENDBRANCH   1   5
BRANCH   3  17
HETATM   17  C   UNL     1     -41.799 -48.371  11.493  1.00  0.00     0.128 C 
BRANCH  17  18
HETATM   18  C   UNL     1     -43.080 -47.558  11.353  1.00  0.00     0.076 C 
BRANCH  18  19
HETATM   19  C   UNL     1     -43.717 -47.753  10.007  1.00  0.00     0.010 A 
HETATM   20  C   UNL     1     -45.104 -47.773   9.882  1.00  0.00     0.025 A 
HETATM   21  C   UNL     1     -45.663 -47.922   8.617  1.00  0.00     0.003 A 
HETATM   22  C   UNL     1     -44.829 -48.049   7.514  1.00  0.00     0.017 A 
HETATM   23  C   UNL     1     -43.458 -48.020   7.724  1.00  0.00     0.088 A 
HETATM   24  N   UNL     1     -42.887 -47.878   8.939  1.00  0.00    -0.369 N 
ATOM     25  HN  UNL     1     -41.873 -47.865   9.050  1.00  0.00     0.165 HD
ENDBRANCH  18  19
ENDBRANCH  17  18
ENDBRANCH   3  17
TORSDOF 6
ENDMDL
MODEL 3
REMARK VINA RESULT:      -5.8      2.498      4.325
REMARK  6 active torsions:
REMARK  status: ('A' for Active; 'I' for Inactive)
REMARK    1  A    between atoms: C_2  and  C_4 
REMARK    2  A    between atoms: C_4  and  N_5 
REMARK    3  A    between atoms: C_4  and  C_13 
REMARK       I    between atoms: C_13  and  N_15 
REMARK    4  A    between atoms: N_15  and  C_16 
REMARK    5  A    between atoms: C_16  and  C_17 
REMARK    6  A    between atoms: C_17  and  C_18 
ROOT
HETATM    1  C   UNL     1     -41.678 -51.930  12.590  1.00  0.00     0.251 C 
HETATM    2  O   UNL     1     -41.289 -52.490  11.566  1.00  0.00    -0.271 OA
HETATM    3  N   UNL     1     -42.348 -52.625  13.585  1.00  0.00    -0.359 N 
HETATM    4  H   UNL     1     -42.760 -52.127  14.356  1.00  0.00     0.162 HD
ENDROOT
BRANCH   1   5
HETATM    5  C   UNL     1     -41.496 -50.387  12.862  1.00  0.00     0.317 C 
BRANCH   5   6
HETATM    6  C   UNL     1     -42.959 -49.799  13.007  1.00  0.00     0.020 C 
HETATM    7  C   UNL     1     -43.459 -49.543  14.434  1.00  0.00     0.012 C 
HETATM    8  C   UNL     1     -43.087 -48.433  12.287  1.00  0.00     0.012 C 
ENDBRANCH   5   6
BRANCH   5   9
HETATM    9  N   UNL     1     -40.558 -50.246  14.035  1.00  0.00     0.107 N 
HETATM   10  C   UNL     1     -40.158 -48.872  14.414  1.00  0.00     0.305 C 
HETATM   11  C   UNL     1     -39.197 -48.177  13.419  1.00  0.00     0.146 C 
HETATM   12  C   UNL     1     -38.735 -46.832  13.967  1.00  0.00     0.041 C 
HETATM   13  O   UNL     1     -38.018 -48.971  13.186  1.00  0.00    -0.378 OA
HETATM   14  C   UNL     1     -38.377 -50.295  12.765  1.00  0.00     0.146 C 
HETATM   15  C   UNL     1     -37.112 -51.092  12.490  1.00  0.00     0.041 C 
HETATM   16  C   UNL     1     -39.260 -50.963  13.846  1.00  0.00     0.305 C 
ENDBRANCH   5   9
ENDBRANCH   1   5
BRANCH   3  17
HETATM   17  C   UNL     1     -42.728 -54.019  13.409  1.00  0.00     0.128 C 
BRANCH  17  18
HETATM   18  C   UNL     1     -44.154 -54.153  12.891  1.00  0.00     0.076 C 
BRANCH  18  19
HETATM   19  C   UNL     1     -45.090 -53.210  13.593  1.00  0.00     0.010 A 
HETATM   20  C   UNL     1     -45.779 -52.237  12.873  1.00  0.00     0.025 A 
HETATM   21  C   UNL     1     -46.663 -51.403  13.548  1.00  0.00     0.003 A 
HETATM   22  C   UNL     1     -46.837 -51.557  14.918  1.00  0.00     0.017 A 
HETATM   23  C   UNL     1     -46.112 -52.550  15.560  1.00  0.00     0.088 A 
HETATM   24  N   UNL     1     -45.246 -53.374  14.933  1.00  0.00    -0.369 N 
ATOM     25  HN  UNL     1     -44.730 -54.090  15.444  1.00  0.00     0.165 HD
ENDBRANCH  18  19
ENDBRANCH  17  18
ENDBRANCH   3  17
TORSDOF 6
ENDMDL
MODEL 4
REMARK VINA RESULT:      -5.8      2.195      6.993
REMARK  6 active torsions:
REMARK  status: ('A' for Active; 'I' for Inactive)
REMARK    1  A    between atoms: C_2  and  C_4 
REMARK    2  A    between atoms: C_4  and  N_5 
REMARK    3  A    between atoms: C_4  and  C_13 
REMARK       I    between atoms: C_13  and  N_15 
REMARK    4  A    between atoms: N_15  and  C_16 
REMARK    5  A    between atoms: C_16  and  C_17 
REMARK    6  A    between atoms: C_17  and  C_18 
ROOT
HETATM    1  C   UNL     1     -43.402 -49.928  13.556  1.00  0.00     0.251 C 
HETATM    2  O   UNL     1     -42.859 -49.173  14.360  1.00  0.00    -0.271 OA
HETATM    3  N   UNL     1     -43.512 -49.599  12.214  1.00  0.00    -0.359 N 
HETATM    4  H   UNL     1     -44.061 -50.174  11.598  1.00  0.00     0.162 HD
ENDROOT
BRANCH   1   5
HETATM    5  C   UNL     1     -44.052 -51.308  13.959  1.00  0.00     0.317 C 
BRANCH   5   6
HETATM    6  C   UNL     1     -45.594 -51.172  13.627  1.00  0.00     0.020 C 
HETATM    7  C   UNL     1     -46.163 -52.147  12.588  1.00  0.00     0.012 C 
HETATM    8  C   UNL     1     -46.459 -51.387  14.894  1.00  0.00     0.012 C 
ENDBRANCH   5   6
BRANCH   5   9
HETATM    9  N   UNL     1     -43.271 -52.392  13.258  1.00  0.00     0.107 N 
HETATM   10  C   UNL     1     -43.401 -53.767  13.793  1.00  0.00     0.305 C 
HETATM   11  C   UNL     1     -42.713 -53.999  15.160  1.00  0.00     0.146 C 
HETATM   12  C   UNL     1     -42.782 -55.470  15.553  1.00  0.00     0.041 C 
HETATM   13  O   UNL     1     -41.321 -53.634  15.116  1.00  0.00    -0.378 OA
HETATM   14  C   UNL     1     -41.168 -52.286  14.650  1.00  0.00     0.146 C 
HETATM   15  C   UNL     1     -39.693 -51.919  14.654  1.00  0.00     0.041 C 
HETATM   16  C   UNL     1     -41.796 -52.147  13.243  1.00  0.00     0.305 C 
ENDBRANCH   5   9
ENDBRANCH   1   5
BRANCH   3  17
HETATM   17  C   UNL     1     -43.101 -48.293  11.719  1.00  0.00     0.128 C 
BRANCH  17  18
HETATM   18  C   UNL     1     -41.981 -48.407  10.694  1.00  0.00     0.076 C 
BRANCH  18  19
HETATM   19  C   UNL     1     -40.652 -48.657  11.349  1.00  0.00     0.010 A 
HETATM   20  C   UNL     1     -40.211 -47.833  12.381  1.00  0.00     0.025 A 
HETATM   21  C   UNL     1     -38.992 -48.112  12.990  1.00  0.00     0.003 A 
HETATM   22  C   UNL     1     -38.245 -49.200  12.555  1.00  0.00     0.017 A 
HETATM   23  C   UNL     1     -38.756 -49.971  11.520  1.00  0.00     0.088 A 
HETATM   24  N   UNL     1     -39.934 -49.724  10.910  1.00  0.00    -0.369 N 
ATOM     25  HN  UNL     1     -40.272 -50.314  10.150  1.00  0.00     0.165 HD
ENDBRANCH  18  19
ENDBRANCH  17  18
ENDBRANCH   3  17
TORSDOF 6
ENDMDL
MODEL 5
REMARK VINA RESULT:      -5.7      2.059      6.565
REMARK  6 active torsions:
REMARK  status: ('A' for Active; 'I' for Inactive)
REMARK    1  A    between atoms: C_2  and  C_4 
REMARK    2  A    between atoms: C_4  and  N_5 
REMARK    3  A    between atoms: C_4  and  C_13 
REMARK       I    between atoms: C_13  and  N_15 
REMARK    4  A    between atoms: N_15  and  C_16 
REMARK    5  A    between atoms: C_16  and  C_17 
REMARK    6  A    between atoms: C_17  and  C_18 
ROOT
HETATM    1  C   UNL     1     -42.612 -50.191  13.027  1.00  0.00     0.251 C 
HETATM    2  O   UNL     1     -42.624 -49.384  13.955  1.00  0.00    -0.271 OA
HETATM    3  N   UNL     1     -42.440 -49.782  11.714  1.00  0.00    -0.359 N 
HETATM    4  H   UNL     1     -42.551 -50.441  10.963  1.00  0.00     0.162 HD
ENDROOT
BRANCH   1   5
HETATM    5  C   UNL     1     -42.825 -51.742  13.219  1.00  0.00     0.317 C 
BRANCH   5   6
HETATM    6  C   UNL     1     -41.427 -52.314  13.691  1.00  0.00     0.020 C 
HETATM    7  C   UNL     1     -41.193 -52.401  15.205  1.00  0.00     0.012 C 
HETATM    8  C   UNL     1     -41.208 -53.757  13.169  1.00  0.00     0.012 C 
ENDBRANCH   5   6
BRANCH   5   9
HETATM    9  N   UNL     1     -44.009 -51.922  14.138  1.00  0.00     0.107 N 
HETATM   10  C   UNL     1     -44.374 -53.310  14.499  1.00  0.00     0.305 C 
HETATM   11  C   UNL     1     -44.998 -54.138  13.350  1.00  0.00     0.146 C 
HETATM   12  C   UNL     1     -45.467 -55.496  13.859  1.00  0.00     0.041 C 
HETATM   13  O   UNL     1     -46.145 -53.474  12.788  1.00  0.00    -0.378 OA
HETATM   14  C   UNL     1     -45.806 -52.141  12.379  1.00  0.00     0.146 C 
HETATM   15  C   UNL     1     -47.025 -51.483  11.755  1.00  0.00     0.041 C 
HETATM   16  C   UNL     1     -45.275 -51.343  13.594  1.00  0.00     0.305 C 
ENDBRANCH   5   9
ENDBRANCH   1   5
BRANCH   3  17
HETATM   17  C   UNL     1     -42.387 -48.370  11.363  1.00  0.00     0.128 C 
BRANCH  17  18
HETATM   18  C   UNL     1     -41.038 -47.988  10.767  1.00  0.00     0.076 C 
BRANCH  18  19
HETATM   19  C   UNL     1     -39.900 -48.584  11.546  1.00  0.00     0.010 A 
HETATM   20  C   UNL     1     -39.524 -48.038  12.771  1.00  0.00     0.025 A 
HETATM   21  C   UNL     1     -38.488 -48.634  13.482  1.00  0.00     0.003 A 
HETATM   22  C   UNL     1     -37.854 -49.753  12.957  1.00  0.00     0.017 A 
HETATM   23  C   UNL     1     -38.289 -50.233  11.730  1.00  0.00     0.088 A 
HETATM   24  N   UNL     1     -39.290 -49.676  11.016  1.00  0.00    -0.369 N 
ATOM     25  HN  UNL     1     -39.576 -50.060  10.115  1.00  0.00     0.165 HD
ENDBRANCH  18  19
ENDBRANCH  17  18
ENDBRANCH   3  17
TORSDOF 6
ENDMDL
MODEL 6
REMARK VINA RESULT:      -5.6      2.160      7.361
REMARK  6 active torsions:
REMARK  status: ('A' for Active; 'I' for Inactive)
REMARK    1  A    between atoms: C_2  and  C_4 
REMARK    2  A    between atoms: C_4  and  N_5 
REMARK    3  A    between atoms: C_4  and  C_13 
REMARK       I    between atoms: C_13  and  N_15 
REMARK    4  A    between atoms: N_15  and  C_16 
REMARK    5  A    between atoms: C_16  and  C_17 
REMARK    6  A    between atoms: C_17  and  C_18 
ROOT
HETATM    1  C   UNL     1     -42.636 -48.885  12.814  1.00  0.00     0.251 C 
HETATM    2  O   UNL     1     -42.101 -47.898  13.315  1.00  0.00    -0.271 OA
HETATM    3  N   UNL     1     -43.332 -48.803  11.618  1.00  0.00    -0.359 N 
HETATM    4  H   UNL     1     -43.860 -49.593  11.288  1.00  0.00     0.162 HD
ENDROOT
BRANCH   1   5
HETATM    5  C   UNL     1     -42.621 -50.316  13.480  1.00  0.00     0.317 C 
BRANCH   5   6
HETATM    6  C   UNL     1     -44.072 -50.530  14.074  1.00  0.00     0.020 C 
HETATM    7  C   UNL     1     -45.056 -51.338  13.217  1.00  0.00     0.012 C 
HETATM    8  C   UNL     1     -44.016 -51.276  15.431  1.00  0.00     0.012 C 
ENDBRANCH   5   6
BRANCH   5   9
HETATM    9  N   UNL     1     -42.134 -51.290  12.436  1.00  0.00     0.107 N 
HETATM   10  C   UNL     1     -41.866 -52.676  12.884  1.00  0.00     0.305 C 
HETATM   11  C   UNL     1     -40.616 -52.839  13.781  1.00  0.00     0.146 C 
HETATM   12  C   UNL     1     -40.348 -54.311  14.068  1.00  0.00     0.041 C 
HETATM   13  O   UNL     1     -39.439 -52.307  13.142  1.00  0.00    -0.378 OA
HETATM   14  C   UNL     1     -39.653 -50.946  12.745  1.00  0.00     0.146 C 
HETATM   15  C   UNL     1     -38.381 -50.404  12.112  1.00  0.00     0.041 C 
HETATM   16  C   UNL     1     -40.859 -50.869  11.779  1.00  0.00     0.305 C 
ENDBRANCH   5   9
ENDBRANCH   1   5
BRANCH   3  17
HETATM   17  C   UNL     1     -43.566 -47.523  10.966  1.00  0.00     0.128 C 
BRANCH  17  18
HETATM   18  C   UNL     1     -42.480 -47.204   9.946  1.00  0.00     0.076 C 
BRANCH  18  19
HETATM   19  C   UNL     1     -41.712 -45.970  10.322  1.00  0.00     0.010 A 
HETATM   20  C   UNL     1     -42.350 -44.913  10.967  1.00  0.00     0.025 A 
HETATM   21  C   UNL     1     -41.603 -43.798  11.332  1.00  0.00     0.003 A 
HETATM   22  C   UNL     1     -40.244 -43.763  11.044  1.00  0.00     0.017 A 
HETATM   23  C   UNL     1     -39.685 -44.857  10.399  1.00  0.00     0.088 A 
HETATM   24  N   UNL     1     -40.385 -45.951  10.032  1.00  0.00    -0.369 N 
ATOM     25  HN  UNL     1     -39.935 -46.733   9.555  1.00  0.00     0.165 HD
ENDBRANCH  18  19
ENDBRANCH  17  18
ENDBRANCH   3  17
TORSDOF 6
ENDMDL
MODEL 7
REMARK VINA RESULT:      -5.6      2.094      7.331
REMARK  6 active torsions:
REMARK  status: ('A' for Active; 'I' for Inactive)
REMARK    1  A    between atoms: C_2  and  C_4 
REMARK    2  A    between atoms: C_4  and  N_5 
REMARK    3  A    between atoms: C_4  and  C_13 
REMARK       I    between atoms: C_13  and  N_15 
REMARK    4  A    between atoms: N_15  and  C_16 
REMARK    5  A    between atoms: C_16  and  C_17 
REMARK    6  A    between atoms: C_17  and  C_18 
ROOT
HETATM    1  C   UNL     1     -42.276 -50.406  12.957  1.00  0.00     0.251 C 
HETATM    2  O   UNL     1     -41.815 -49.686  13.841  1.00  0.00    -0.271 OA
HETATM    3  N   UNL     1     -42.596 -49.902  11.706  1.00  0.00    -0.359 N 
HETATM    4  H   UNL     1     -43.080 -50.479  11.039  1.00  0.00     0.162 HD
ENDROOT
BRANCH   1   5
HETATM    5  C   UNL     1     -42.582 -51.941  13.155  1.00  0.00     0.317 C 
BRANCH   5   6
HETATM    6  C   UNL     1     -41.204 -52.608  13.554  1.00  0.00     0.020 C 
HETATM    7  C   UNL     1     -40.938 -52.796  15.053  1.00  0.00     0.012 C 
HETATM    8  C   UNL     1     -41.070 -54.026  12.943  1.00  0.00     0.012 C 
ENDBRANCH   5   6
BRANCH   5   9
HETATM    9  N   UNL     1     -43.728 -52.047  14.131  1.00  0.00     0.107 N 
HETATM   10  C   UNL     1     -44.167 -53.410  14.506  1.00  0.00     0.305 C 
HETATM   11  C   UNL     1     -44.902 -54.187  13.387  1.00  0.00     0.146 C 
HETATM   12  C   UNL     1     -45.436 -55.513  13.914  1.00  0.00     0.041 C 
HETATM   13  O   UNL     1     -46.029 -53.442  12.885  1.00  0.00    -0.378 OA
HETATM   14  C   UNL     1     -45.622 -52.133  12.465  1.00  0.00     0.146 C 
HETATM   15  C   UNL     1     -46.824 -51.390  11.905  1.00  0.00     0.041 C 
HETATM   16  C   UNL     1     -44.978 -51.381  13.654  1.00  0.00     0.305 C 
ENDBRANCH   5   9
ENDBRANCH   1   5
BRANCH   3  17
HETATM   17  C   UNL     1     -42.517 -48.476  11.422  1.00  0.00     0.128 C 
BRANCH  17  18
HETATM   18  C   UNL     1     -41.290 -48.136  10.586  1.00  0.00     0.076 C 
BRANCH  18  19
HETATM   19  C   UNL     1     -40.648 -46.856  11.039  1.00  0.00     0.010 A 
HETATM   20  C   UNL     1     -40.291 -46.681  12.373  1.00  0.00     0.025 A 
HETATM   21  C   UNL     1     -39.668 -45.497  12.753  1.00  0.00     0.003 A 
HETATM   22  C   UNL     1     -39.419 -44.520  11.798  1.00  0.00     0.017 A 
HETATM   23  C   UNL     1     -39.807 -44.772  10.490  1.00  0.00     0.088 A 
HETATM   24  N   UNL     1     -40.414 -45.910  10.092  1.00  0.00    -0.369 N 
ATOM     25  HN  UNL     1     -40.686 -46.054   9.119  1.00  0.00     0.165 HD
ENDBRANCH  18  19
ENDBRANCH  17  18
ENDBRANCH   3  17
TORSDOF 6
ENDMDL
MODEL 8
REMARK VINA RESULT:      -5.6      2.264      2.965
REMARK  6 active torsions:
REMARK  status: ('A' for Active; 'I' for Inactive)
REMARK    1  A    between atoms: C_2  and  C_4 
REMARK    2  A    between atoms: C_4  and  N_5 
REMARK    3  A    between atoms: C_4  and  C_13 
REMARK       I    between atoms: C_13  and  N_15 
REMARK    4  A    between atoms: N_15  and  C_16 
REMARK    5  A    between atoms: C_16  and  C_17 
REMARK    6  A    between atoms: C_17  and  C_18 
ROOT
HETATM    1  C   UNL     1     -40.203 -52.271  13.478  1.00  0.00     0.251 C 
HETATM    2  O   UNL     1     -39.839 -53.239  12.813  1.00  0.00    -0.271 OA
HETATM    3  N   UNL     1     -41.299 -52.345  14.325  1.00  0.00    -0.359 N 
HETATM    4  H   UNL     1     -41.650 -51.512  14.767  1.00  0.00     0.162 HD
ENDROOT
BRANCH   1   5
HETATM    5  C   UNL     1     -39.504 -50.859  13.416  1.00  0.00     0.317 C 
BRANCH   5   6
HETATM    6  C   UNL     1     -37.966 -51.127  13.677  1.00  0.00     0.020 C 
HETATM    7  C   UNL     1     -37.048 -51.129  12.448  1.00  0.00     0.012 C 
HETATM    8  C   UNL     1     -37.365 -50.058  14.624  1.00  0.00     0.012 C 
ENDBRANCH   5   6
BRANCH   5   9
HETATM    9  N   UNL     1     -39.897 -50.222  12.105  1.00  0.00     0.107 N 
HETATM   10  C   UNL     1     -39.460 -48.825  11.880  1.00  0.00     0.305 C 
HETATM   11  C   UNL     1     -40.191 -47.768  12.742  1.00  0.00     0.146 C 
HETATM   12  C   UNL     1     -39.774 -46.360  12.335  1.00  0.00     0.041 C 
HETATM   13  O   UNL     1     -41.619 -47.854  12.578  1.00  0.00    -0.378 OA
HETATM   14  C   UNL     1     -42.078 -49.187  12.843  1.00  0.00     0.146 C 
HETATM   15  C   UNL     1     -43.591 -49.234  12.701  1.00  0.00     0.041 C 
HETATM   16  C   UNL     1     -41.375 -50.179  11.886  1.00  0.00     0.305 C 
ENDBRANCH   5   9
ENDBRANCH   1   5
BRANCH   3  17
HETATM   17  C   UNL     1     -42.139 -53.532  14.372  1.00  0.00     0.128 C 
BRANCH  17  18
HETATM   18  C   UNL     1     -43.091 -53.595  13.184  1.00  0.00     0.076 C 
BRANCH  18  19
HETATM   19  C   UNL     1     -44.365 -52.846  13.454  1.00  0.00     0.010 A 
HETATM   20  C   UNL     1     -44.660 -52.403  14.741  1.00  0.00     0.025 A 
HETATM   21  C   UNL     1     -45.832 -51.682  14.951  1.00  0.00     0.003 A 
HETATM   22  C   UNL     1     -46.675 -51.423  13.878  1.00  0.00     0.017 A 
HETATM   23  C   UNL     1     -46.307 -51.900  12.628  1.00  0.00     0.088 A 
HETATM   24  N   UNL     1     -45.179 -52.603  12.394  1.00  0.00    -0.369 N 
ATOM     25  HN  UNL     1     -44.948 -52.939  11.459  1.00  0.00     0.165 HD
ENDBRANCH  18  19
ENDBRANCH  17  18
ENDBRANCH   3  17
TORSDOF 6
ENDMDL
MODEL 9
REMARK VINA RESULT:      -5.5      2.472      4.578
REMARK  6 active torsions:
REMARK  status: ('A' for Active; 'I' for Inactive)
REMARK    1  A    between atoms: C_2  and  C_4 
REMARK    2  A    between atoms: C_4  and  N_5 
REMARK    3  A    between atoms: C_4  and  C_13 
REMARK       I    between atoms: C_13  and  N_15 
REMARK    4  A    between atoms: N_15  and  C_16 
REMARK    5  A    between atoms: C_16  and  C_17 
REMARK    6  A    between atoms: C_17  and  C_18 
ROOT
HETATM    1  C   UNL     1     -43.744 -50.301  13.629  1.00  0.00     0.251 C 
HETATM    2  O   UNL     1     -44.028 -50.081  14.805  1.00  0.00    -0.271 OA
HETATM    3  N   UNL     1     -44.649 -50.897  12.764  1.00  0.00    -0.359 N 
HETATM    4  H   UNL     1     -44.356 -51.174  11.842  1.00  0.00     0.162 HD
ENDROOT
BRANCH   1   5
HETATM    5  C   UNL     1     -42.337 -49.968  12.996  1.00  0.00     0.317 C 
BRANCH   5   6
HETATM    6  C   UNL     1     -42.386 -48.432  12.618  1.00  0.00     0.020 C 
HETATM    7  C   UNL     1     -43.335 -48.033  11.480  1.00  0.00     0.012 C 
HETATM    8  C   UNL     1     -42.829 -47.572  13.828  1.00  0.00     0.012 C 
ENDBRANCH   5   6
BRANCH   5   9
HETATM    9  N   UNL     1     -41.286 -50.421  13.979  1.00  0.00     0.107 N 
HETATM   10  C   UNL     1     -39.890 -50.008  13.707  1.00  0.00     0.305 C 
HETATM   11  C   UNL     1     -39.227 -50.715  12.501  1.00  0.00     0.146 C 
HETATM   12  C   UNL     1     -37.756 -50.330  12.393  1.00  0.00     0.041 C 
HETATM   13  O   UNL     1     -39.284 -52.148  12.636  1.00  0.00    -0.378 OA
HETATM   14  C   UNL     1     -40.634 -52.581  12.848  1.00  0.00     0.146 C 
HETATM   15  C   UNL     1     -40.665 -54.098  12.947  1.00  0.00     0.041 C 
HETATM   16  C   UNL     1     -41.204 -51.907  14.119  1.00  0.00     0.305 C 
ENDBRANCH   5   9
ENDBRANCH   1   5
BRANCH   3  17
HETATM   17  C   UNL     1     -45.928 -51.402  13.240  1.00  0.00     0.128 C 
BRANCH  17  18
HETATM   18  C   UNL     1     -45.971 -52.925  13.229  1.00  0.00     0.076 C 
BRANCH  18  19
HETATM   19  C   UNL     1     -45.080 -53.513  14.286  1.00  0.00     0.010 A 
HETATM   20  C   UNL     1     -44.231 -54.573  13.980  1.00  0.00     0.025 A 
HETATM   21  C   UNL     1     -43.394 -55.072  14.972  1.00  0.00     0.003 A 
HETATM   22  C   UNL     1     -43.426 -54.505  16.240  1.00  0.00     0.017 A 
HETATM   23  C   UNL     1     -44.301 -53.452  16.463  1.00  0.00     0.088 A 
HETATM   24  N   UNL     1     -45.125 -52.948  15.520  1.00  0.00    -0.369 N 
ATOM     25  HN  UNL     1     -45.757 -52.173  15.727  1.00  0.00     0.165 HD
ENDBRANCH  18  19
ENDBRANCH  17  18
ENDBRANCH   3  17
TORSDOF 6
ENDMDL
