MODEL 1
REMARK VINA RESULT:      -6.2      0.000      0.000
REMARK  4 active torsions:
REMARK  status: ('A' for Active; 'I' for Inactive)
REMARK    1  A    between atoms: C_2  and  C_3 
REMARK       I    between atoms: C_2  and  N_12 
REMARK    2  A    between atoms: C_3  and  N_4 
REMARK    3  A    between atoms: N_12  and  C_13 
REMARK    4  A    between atoms: C_13  and  C_14 
ROOT
HETATM    1  O   UNL     1     -41.967 -49.449  12.703  1.00  0.00    -0.272 OA
HETATM    2  C   UNL     1     -41.363 -49.833  11.704  1.00  0.00     0.237 C 
HETATM    3  N   UNL     1     -41.137 -49.028  10.604  1.00  0.00    -0.359 N 
HETATM    4  H   UNL     1     -40.604 -49.384   9.820  1.00  0.00     0.162 HD
ENDROOT
BRANCH   2   5
HETATM    5  C   UNL     1     -40.716 -51.215  11.618  1.00  0.00     0.255 C 
BRANCH   5   6
HETATM    6  N   UNL     1     -41.515 -52.220  12.302  1.00  0.00    -0.246 N 
HETATM    7  N   UNL     1     -42.896 -52.179  12.029  1.00  0.00    -0.261 N 
HETATM    8  C   UNL     1     -43.755 -53.141  12.487  1.00  0.00     0.260 C 
HETATM    9  H   UNL     1     -43.196 -51.708  11.177  1.00  0.00     0.190 HD
HETATM   10  O   UNL     1     -44.925 -53.214  12.132  1.00  0.00    -0.267 OA
HETATM   11  C   UNL     1     -43.200 -54.105  13.452  1.00  0.00     0.081 C 
HETATM   12  C   UNL     1     -41.885 -54.170  13.678  1.00  0.00     0.081 C 
HETATM   13  C   UNL     1     -40.939 -53.248  13.015  1.00  0.00     0.262 C 
HETATM   14  O   UNL     1     -39.733 -53.403  13.161  1.00  0.00    -0.267 OA
ENDBRANCH   5   6
ENDBRANCH   2   5
BRANCH   3  15
HETATM   15  C   UNL     1     -41.690 -47.692  10.502  1.00  0.00     0.127 C 
BRANCH  15  16
HETATM   16  C   UNL     1     -42.949 -47.668   9.640  1.00  0.00     0.003 C 
HETATM   17  C   UNL     1     -43.136 -46.332   8.911  1.00  0.00     0.006 C 
HETATM   18  C   UNL     1     -44.643 -46.075   8.865  1.00  0.00     0.000 C 
HETATM   19  C   UNL     1     -45.298 -47.305   9.475  1.00  0.00     0.000 C 
HETATM   20  C   UNL     1     -44.246 -47.848  10.428  1.00  0.00     0.006 C 
ENDBRANCH  15  16
ENDBRANCH   3  15
TORSDOF 4
ENDMDL
MODEL 2
REMARK VINA RESULT:      -5.8      2.929      6.420
REMARK  4 active torsions:
REMARK  status: ('A' for Active; 'I' for Inactive)
REMARK    1  A    between atoms: C_2  and  C_3 
REMARK       I    between atoms: C_2  and  N_12 
REMARK    2  A    between atoms: C_3  and  N_4 
REMARK    3  A    between atoms: N_12  and  C_13 
REMARK    4  A    between atoms: C_13  and  C_14 
ROOT
HETATM    1  O   UNL     1     -42.957 -47.921  12.849  1.00  0.00    -0.272 OA
HETATM    2  C   UNL     1     -42.577 -48.715  11.991  1.00  0.00     0.237 C 
HETATM    3  N   UNL     1     -42.586 -50.084  12.175  1.00  0.00    -0.359 N 
HETATM    4  H   UNL     1     -42.295 -50.696  11.422  1.00  0.00     0.162 HD
ENDROOT
BRANCH   2   5
HETATM    5  C   UNL     1     -42.147 -48.269  10.594  1.00  0.00     0.255 C 
BRANCH   5   6
HETATM    6  N   UNL     1     -43.166 -47.447   9.961  1.00  0.00    -0.246 N 
HETATM    7  N   UNL     1     -44.430 -48.053   9.828  1.00  0.00    -0.261 N 
HETATM    8  C   UNL     1     -45.522 -47.360   9.380  1.00  0.00     0.260 C 
HETATM    9  H   UNL     1     -44.643 -48.842  10.435  1.00  0.00     0.190 HD
HETATM   10  O   UNL     1     -46.659 -47.818   9.407  1.00  0.00    -0.267 OA
HETATM   11  C   UNL     1     -45.267 -46.011   8.848  1.00  0.00     0.081 C 
HETATM   12  C   UNL     1     -44.080 -45.421   9.013  1.00  0.00     0.081 C 
HETATM   13  C   UNL     1     -42.960 -46.113   9.686  1.00  0.00     0.262 C 
HETATM   14  O   UNL     1     -41.920 -45.508   9.916  1.00  0.00    -0.267 OA
ENDBRANCH   5   6
ENDBRANCH   2   5
BRANCH   3  15
HETATM   15  C   UNL     1     -42.948 -50.688  13.442  1.00  0.00     0.127 C 
BRANCH  15  16
HETATM   16  C   UNL     1     -44.439 -50.538  13.730  1.00  0.00     0.003 C 
HETATM   17  C   UNL     1     -44.776 -50.762  15.210  1.00  0.00     0.006 C 
HETATM   18  C   UNL     1     -46.142 -51.448  15.240  1.00  0.00     0.000 C 
HETATM   19  C   UNL     1     -46.611 -51.517  13.794  1.00  0.00     0.000 C 
HETATM   20  C   UNL     1     -45.321 -51.544  12.990  1.00  0.00     0.006 C 
ENDBRANCH  15  16
ENDBRANCH   3  15
TORSDOF 4
ENDMDL
MODEL 3
REMARK VINA RESULT:      -5.8      2.669      3.792
REMARK  4 active torsions:
REMARK  status: ('A' for Active; 'I' for Inactive)
REMARK    1  A    between atoms: C_2  and  C_3 
REMARK       I    between atoms: C_2  and  N_12 
REMARK    2  A    between atoms: C_3  and  N_4 
REMARK    3  A    between atoms: N_12  and  C_13 
REMARK    4  A    between atoms: C_13  and  C_14 
ROOT
HETATM    1  O   UNL     1     -42.218 -50.818  12.726  1.00  0.00    -0.272 OA
HETATM    2  C   UNL     1     -41.351 -51.345  12.031  1.00  0.00     0.237 C 
HETATM    3  N   UNL     1     -40.494 -50.626  11.221  1.00  0.00    -0.359 N 
HETATM    4  H   UNL     1     -39.774 -51.107  10.696  1.00  0.00     0.162 HD
ENDROOT
BRANCH   2   5
HETATM    5  C   UNL     1     -41.071 -52.847  12.071  1.00  0.00     0.255 C 
BRANCH   5   6
HETATM    6  N   UNL     1     -41.977 -53.534  12.977  1.00  0.00    -0.246 N 
HETATM    7  N   UNL     1     -43.323 -53.575  12.566  1.00  0.00    -0.261 N 
HETATM    8  C   UNL     1     -44.266 -54.301  13.241  1.00  0.00     0.260 C 
HETATM    9  H   UNL     1     -43.520 -53.432  11.577  1.00  0.00     0.190 HD
HETATM   10  O   UNL     1     -45.401 -54.480  12.815  1.00  0.00    -0.267 OA
HETATM   11  C   UNL     1     -43.850 -54.868  14.535  1.00  0.00     0.081 C 
HETATM   12  C   UNL     1     -42.566 -54.866  14.904  1.00  0.00     0.081 C 
HETATM   13  C   UNL     1     -41.520 -54.251  14.061  1.00  0.00     0.262 C 
HETATM   14  O   UNL     1     -40.340 -54.360  14.375  1.00  0.00    -0.267 OA
ENDBRANCH   5   6
ENDBRANCH   2   5
BRANCH   3  15
HETATM   15  C   UNL     1     -40.622 -49.192  11.047  1.00  0.00     0.127 C 
BRANCH  15  16
HETATM   16  C   UNL     1     -39.529 -48.435  11.796  1.00  0.00     0.003 C 
HETATM   17  C   UNL     1     -38.297 -49.307  12.073  1.00  0.00     0.006 C 
HETATM   18  C   UNL     1     -37.757 -48.866  13.434  1.00  0.00     0.000 C 
HETATM   19  C   UNL     1     -38.620 -47.691  13.869  1.00  0.00     0.000 C 
HETATM   20  C   UNL     1     -39.951 -47.936  13.177  1.00  0.00     0.006 C 
ENDBRANCH  15  16
ENDBRANCH   3  15
TORSDOF 4
ENDMDL
MODEL 4
REMARK VINA RESULT:      -5.8      4.475      5.547
REMARK  4 active torsions:
REMARK  status: ('A' for Active; 'I' for Inactive)
REMARK    1  A    between atoms: C_2  and  C_3 
REMARK       I    between atoms: C_2  and  N_12 
REMARK    2  A    between atoms: C_3  and  N_4 
REMARK    3  A    between atoms: N_12  and  C_13 
REMARK    4  A    between atoms: C_13  and  C_14 
ROOT
HETATM    1  O   UNL     1     -45.285 -54.589  12.935  1.00  0.00    -0.272 OA
HETATM    2  C   UNL     1     -44.572 -53.622  12.676  1.00  0.00     0.237 C 
HETATM    3  N   UNL     1     -45.019 -52.317  12.742  1.00  0.00    -0.359 N 
HETATM    4  H   UNL     1     -44.381 -51.555  12.553  1.00  0.00     0.162 HD
ENDROOT
BRANCH   2   5
HETATM    5  C   UNL     1     -43.086 -53.764  12.349  1.00  0.00     0.255 C 
BRANCH   5   6
HETATM    6  N   UNL     1     -42.308 -54.083  13.535  1.00  0.00    -0.246 N 
HETATM    7  N   UNL     1     -43.007 -54.770  14.546  1.00  0.00    -0.261 N 
HETATM    8  C   UNL     1     -42.378 -55.259  15.659  1.00  0.00     0.260 C 
HETATM    9  H   UNL     1     -43.855 -55.268  14.280  1.00  0.00     0.190 HD
HETATM   10  O   UNL     1     -42.931 -55.993  16.469  1.00  0.00    -0.267 OA
HETATM   11  C   UNL     1     -40.976 -54.851  15.849  1.00  0.00     0.081 C 
HETATM   12  C   UNL     1     -40.302 -54.237  14.872  1.00  0.00     0.081 C 
HETATM   13  C   UNL     1     -40.945 -53.894  13.586  1.00  0.00     0.262 C 
HETATM   14  O   UNL     1     -40.273 -53.428  12.673  1.00  0.00    -0.267 OA
ENDBRANCH   5   6
ENDBRANCH   2   5
BRANCH   3  15
HETATM   15  C   UNL     1     -46.405 -51.991  13.022  1.00  0.00     0.127 C 
BRANCH  15  16
HETATM   16  C   UNL     1     -46.554 -51.275  14.361  1.00  0.00     0.003 C 
HETATM   17  C   UNL     1     -45.200 -50.923  14.991  1.00  0.00     0.006 C 
HETATM   18  C   UNL     1     -45.378 -51.073  16.503  1.00  0.00     0.000 C 
HETATM   19  C   UNL     1     -46.846 -51.409  16.722  1.00  0.00     0.000 C 
HETATM   20  C   UNL     1     -47.261 -52.102  15.435  1.00  0.00     0.006 C 
ENDBRANCH  15  16
ENDBRANCH   3  15
TORSDOF 4
ENDMDL
MODEL 5
REMARK VINA RESULT:      -5.7      1.709      2.720
REMARK  4 active torsions:
REMARK  status: ('A' for Active; 'I' for Inactive)
REMARK    1  A    between atoms: C_2  and  C_3 
REMARK       I    between atoms: C_2  and  N_12 
REMARK    2  A    between atoms: C_3  and  N_4 
REMARK    3  A    between atoms: N_12  and  C_13 
REMARK    4  A    between atoms: C_13  and  C_14 
ROOT
HETATM    1  O   UNL     1     -41.828 -49.631  12.789  1.00  0.00    -0.272 OA
HETATM    2  C   UNL     1     -41.256 -49.993  11.763  1.00  0.00     0.237 C 
HETATM    3  N   UNL     1     -40.986 -49.141  10.710  1.00  0.00    -0.359 N 
HETATM    4  H   UNL     1     -40.481 -49.482   9.902  1.00  0.00     0.162 HD
ENDROOT
BRANCH   2   5
HETATM    5  C   UNL     1     -40.696 -51.405  11.591  1.00  0.00     0.255 C 
BRANCH   5   6
HETATM    6  N   UNL     1     -41.503 -52.386  12.301  1.00  0.00    -0.246 N 
HETATM    7  N   UNL     1     -42.878 -52.365  12.000  1.00  0.00    -0.261 N 
HETATM    8  C   UNL     1     -43.740 -53.313  12.480  1.00  0.00     0.260 C 
HETATM    9  H   UNL     1     -43.164 -51.931  11.125  1.00  0.00     0.190 HD
HETATM   10  O   UNL     1     -44.903 -53.408  12.107  1.00  0.00    -0.267 OA
HETATM   11  C   UNL     1     -43.199 -54.234  13.494  1.00  0.00     0.081 C 
HETATM   12  C   UNL     1     -41.887 -54.283  13.747  1.00  0.00     0.081 C 
HETATM   13  C   UNL     1     -40.935 -53.382  13.064  1.00  0.00     0.262 C 
HETATM   14  O   UNL     1     -39.730 -53.523  13.239  1.00  0.00    -0.267 OA
ENDBRANCH   5   6
ENDBRANCH   2   5
BRANCH   3  15
HETATM   15  C   UNL     1     -41.455 -47.769  10.690  1.00  0.00     0.127 C 
BRANCH  15  16
HETATM   16  C   UNL     1     -40.343 -46.790  11.054  1.00  0.00     0.003 C 
HETATM   17  C   UNL     1     -40.300 -46.483  12.556  1.00  0.00     0.006 C 
HETATM   18  C   UNL     1     -39.886 -45.016  12.683  1.00  0.00     0.000 C 
HETATM   19  C   UNL     1     -39.602 -44.535  11.267  1.00  0.00     0.000 C 
HETATM   20  C   UNL     1     -40.482 -45.417  10.396  1.00  0.00     0.006 C 
ENDBRANCH  15  16
ENDBRANCH   3  15
TORSDOF 4
ENDMDL
MODEL 6
REMARK VINA RESULT:      -5.6      3.269      5.827
REMARK  4 active torsions:
REMARK  status: ('A' for Active; 'I' for Inactive)
REMARK    1  A    between atoms: C_2  and  C_3 
REMARK       I    between atoms: C_2  and  N_12 
REMARK    2  A    between atoms: C_3  and  N_4 
REMARK    3  A    between atoms: N_12  and  C_13 
REMARK    4  A    between atoms: C_13  and  C_14 
ROOT
HETATM    1  O   UNL     1     -41.615 -52.311  13.795  1.00  0.00    -0.272 OA
HETATM    2  C   UNL     1     -42.067 -51.990  12.698  1.00  0.00     0.237 C 
HETATM    3  N   UNL     1     -43.147 -52.622  12.113  1.00  0.00    -0.359 N 
HETATM    4  H   UNL     1     -43.502 -52.295  11.224  1.00  0.00     0.162 HD
ENDROOT
BRANCH   2   5
HETATM    5  C   UNL     1     -41.537 -50.790  11.912  1.00  0.00     0.255 C 
BRANCH   5   6
HETATM    6  N   UNL     1     -40.255 -50.340  12.431  1.00  0.00    -0.246 N 
HETATM    7  N   UNL     1     -39.190 -51.248  12.276  1.00  0.00    -0.261 N 
HETATM    8  C   UNL     1     -37.901 -50.913  12.587  1.00  0.00     0.260 C 
HETATM    9  H   UNL     1     -39.285 -51.971  11.565  1.00  0.00     0.190 HD
HETATM   10  O   UNL     1     -36.942 -51.625  12.313  1.00  0.00    -0.267 OA
HETATM   11  C   UNL     1     -37.709 -49.631  13.288  1.00  0.00     0.081 C 
HETATM   12  C   UNL     1     -38.710 -48.753  13.396  1.00  0.00     0.081 C 
HETATM   13  C   UNL     1     -40.059 -49.049  12.870  1.00  0.00     0.262 C 
HETATM   14  O   UNL     1     -40.926 -48.182  12.890  1.00  0.00    -0.267 OA
ENDBRANCH   5   6
ENDBRANCH   2   5
BRANCH   3  15
HETATM   15  C   UNL     1     -43.769 -53.790  12.707  1.00  0.00     0.127 C 
BRANCH  15  16
HETATM   16  C   UNL     1     -45.147 -53.464  13.277  1.00  0.00     0.003 C 
HETATM   17  C   UNL     1     -45.806 -52.272  12.571  1.00  0.00     0.006 C 
HETATM   18  C   UNL     1     -46.596 -51.521  13.643  1.00  0.00     0.000 C 
HETATM   19  C   UNL     1     -46.460 -52.341  14.917  1.00  0.00     0.000 C 
HETATM   20  C   UNL     1     -45.133 -53.062  14.751  1.00  0.00     0.006 C 
ENDBRANCH  15  16
ENDBRANCH   3  15
TORSDOF 4
ENDMDL
MODEL 7
REMARK VINA RESULT:      -5.6      2.620      5.338
REMARK  4 active torsions:
REMARK  status: ('A' for Active; 'I' for Inactive)
REMARK    1  A    between atoms: C_2  and  C_3 
REMARK       I    between atoms: C_2  and  N_12 
REMARK    2  A    between atoms: C_3  and  N_4 
REMARK    3  A    between atoms: N_12  and  C_13 
REMARK    4  A    between atoms: C_13  and  C_14 
ROOT
HETATM    1  O   UNL     1     -41.785 -52.286  14.427  1.00  0.00    -0.272 OA
HETATM    2  C   UNL     1     -41.979 -52.877  13.367  1.00  0.00     0.237 C 
HETATM    3  N   UNL     1     -43.048 -53.727  13.163  1.00  0.00    -0.359 N 
HETATM    4  H   UNL     1     -43.181 -54.162  12.259  1.00  0.00     0.162 HD
ENDROOT
BRANCH   2   5
HETATM    5  C   UNL     1     -41.106 -52.654  12.132  1.00  0.00     0.255 C 
BRANCH   5   6
HETATM    6  N   UNL     1     -40.836 -51.241  11.921  1.00  0.00    -0.246 N 
HETATM    7  N   UNL     1     -41.973 -50.434  11.721  1.00  0.00    -0.261 N 
HETATM    8  C   UNL     1     -41.890 -49.070  11.646  1.00  0.00     0.260 C 
HETATM    9  H   UNL     1     -42.869 -50.792  12.045  1.00  0.00     0.190 HD
HETATM   10  O   UNL     1     -42.876 -48.342  11.632  1.00  0.00    -0.267 OA
HETATM   11  C   UNL     1     -40.534 -48.501  11.577  1.00  0.00     0.081 C 
HETATM   12  C   UNL     1     -39.459 -49.259  11.810  1.00  0.00     0.081 C 
HETATM   13  C   UNL     1     -39.578 -50.705  12.092  1.00  0.00     0.262 C 
HETATM   14  O   UNL     1     -38.585 -51.350  12.406  1.00  0.00    -0.267 OA
ENDBRANCH   5   6
ENDBRANCH   2   5
BRANCH   3  15
HETATM   15  C   UNL     1     -43.972 -54.071  14.227  1.00  0.00     0.127 C 
BRANCH  15  16
HETATM   16  C   UNL     1     -45.328 -53.398  14.032  1.00  0.00     0.003 C 
HETATM   17  C   UNL     1     -45.531 -52.892  12.598  1.00  0.00     0.006 C 
HETATM   18  C   UNL     1     -46.338 -51.598  12.709  1.00  0.00     0.000 C 
HETATM   19  C   UNL     1     -46.669 -51.434  14.185  1.00  0.00     0.000 C 
HETATM   20  C   UNL     1     -45.537 -52.156  14.899  1.00  0.00     0.006 C 
ENDBRANCH  15  16
ENDBRANCH   3  15
TORSDOF 4
ENDMDL
MODEL 8
REMARK VINA RESULT:      -5.5      4.519      6.583
REMARK  4 active torsions:
REMARK  status: ('A' for Active; 'I' for Inactive)
REMARK    1  A    between atoms: C_2  and  C_3 
REMARK       I    between atoms: C_2  and  N_12 
REMARK    2  A    between atoms: C_3  and  N_4 
REMARK    3  A    between atoms: N_12  and  C_13 
REMARK    4  A    between atoms: C_13  and  C_14 
ROOT
HETATM    1  O   UNL     1     -43.414 -55.306  15.986  1.00  0.00    -0.272 OA
HETATM    2  C   UNL     1     -43.556 -54.941  14.821  1.00  0.00     0.237 C 
HETATM    3  N   UNL     1     -42.501 -54.545  14.021  1.00  0.00    -0.359 N 
HETATM    4  H   UNL     1     -42.669 -54.288  13.057  1.00  0.00     0.162 HD
ENDROOT
BRANCH   2   5
HETATM    5  C   UNL     1     -44.907 -54.983  14.108  1.00  0.00     0.255 C 
BRANCH   5   6
HETATM    6  N   UNL     1     -45.648 -53.747  14.301  1.00  0.00    -0.246 N 
HETATM    7  N   UNL     1     -45.962 -53.435  15.638  1.00  0.00    -0.261 N 
HETATM    8  C   UNL     1     -46.532 -52.242  15.989  1.00  0.00     0.260 C 
HETATM    9  H   UNL     1     -45.408 -53.877  16.369  1.00  0.00     0.190 HD
HETATM   10  O   UNL     1     -46.667 -51.885  17.154  1.00  0.00    -0.267 OA
HETATM   11  C   UNL     1     -46.992 -51.386  14.882  1.00  0.00     0.081 C 
HETATM   12  C   UNL     1     -46.657 -51.661  13.618  1.00  0.00     0.081 C 
HETATM   13  C   UNL     1     -45.860 -52.856  13.272  1.00  0.00     0.262 C 
HETATM   14  O   UNL     1     -45.480 -53.022  12.119  1.00  0.00    -0.267 OA
ENDBRANCH   5   6
ENDBRANCH   2   5
BRANCH   3  15
HETATM   15  C   UNL     1     -41.149 -54.428  14.533  1.00  0.00     0.127 C 
BRANCH  15  16
HETATM   16  C   UNL     1     -40.276 -53.570  13.621  1.00  0.00     0.003 C 
HETATM   17  C   UNL     1     -38.976 -53.127  14.303  1.00  0.00     0.006 C 
HETATM   18  C   UNL     1     -38.675 -51.721  13.783  1.00  0.00     0.000 C 
HETATM   19  C   UNL     1     -39.745 -51.420  12.743  1.00  0.00     0.000 C 
HETATM   20  C   UNL     1     -40.932 -52.261  13.183  1.00  0.00     0.006 C 
ENDBRANCH  15  16
ENDBRANCH   3  15
TORSDOF 4
ENDMDL
MODEL 9
REMARK VINA RESULT:      -5.3      2.781      7.127
REMARK  4 active torsions:
REMARK  status: ('A' for Active; 'I' for Inactive)
REMARK    1  A    between atoms: C_2  and  C_3 
REMARK       I    between atoms: C_2  and  N_12 
REMARK    2  A    between atoms: C_3  and  N_4 
REMARK    3  A    between atoms: N_12  and  C_13 
REMARK    4  A    between atoms: C_13  and  C_14 
ROOT
HETATM    1  O   UNL     1     -39.777 -48.897  12.150  1.00  0.00    -0.272 OA
HETATM    2  C   UNL     1     -40.745 -49.317  11.521  1.00  0.00     0.237 C 
HETATM    3  N   UNL     1     -41.144 -50.639  11.545  1.00  0.00    -0.359 N 
HETATM    4  H   UNL     1     -41.971 -50.926  11.036  1.00  0.00     0.162 HD
ENDROOT
BRANCH   2   5
HETATM    5  C   UNL     1     -41.666 -48.395  10.722  1.00  0.00     0.255 C 
BRANCH   5   6
HETATM    6  N   UNL     1     -41.420 -46.996  11.035  1.00  0.00    -0.246 N 
HETATM    7  N   UNL     1     -40.433 -46.369  10.251  1.00  0.00    -0.261 N 
HETATM    8  C   UNL     1     -40.188 -45.025  10.333  1.00  0.00     0.260 C 
HETATM    9  H   UNL     1     -40.202 -46.792   9.354  1.00  0.00     0.190 HD
HETATM   10  O   UNL     1     -39.451 -44.432   9.553  1.00  0.00    -0.267 OA
HETATM   11  C   UNL     1     -40.859 -44.304  11.428  1.00  0.00     0.081 C 
HETATM   12  C   UNL     1     -41.825 -44.888  12.143  1.00  0.00     0.081 C 
HETATM   13  C   UNL     1     -42.223 -46.291  11.904  1.00  0.00     0.262 C 
HETATM   14  O   UNL     1     -43.183 -46.763  12.503  1.00  0.00    -0.267 OA
ENDBRANCH   5   6
ENDBRANCH   2   5
BRANCH   3  15
HETATM   15  C   UNL     1     -40.382 -51.660  12.238  1.00  0.00     0.127 C 
BRANCH  15  16
HETATM   16  C   UNL     1     -41.210 -52.922  12.465  1.00  0.00     0.003 C 
HETATM   17  C   UNL     1     -42.718 -52.658  12.372  1.00  0.00     0.006 C 
HETATM   18  C   UNL     1     -43.379 -53.579  13.397  1.00  0.00     0.000 C 
HETATM   19  C   UNL     1     -42.260 -54.422  13.990  1.00  0.00     0.000 C 
HETATM   20  C   UNL     1     -41.026 -53.547  13.848  1.00  0.00     0.006 C 
ENDBRANCH  15  16
ENDBRANCH   3  15
TORSDOF 4
ENDMDL
