MODEL 1
REMARK VINA RESULT:      -6.1      0.000      0.000
REMARK  7 active torsions:
REMARK  status: ('A' for Active; 'I' for Inactive)
REMARK    1  A    between atoms: C_2  and  C_3 
REMARK    2  A    between atoms: C_3  and  N_4 
REMARK       I    between atoms: N_4  and  C_5 
REMARK    3  A    between atoms: C_5  and  C_7 
REMARK    4  A    between atoms: C_7  and  N_9 
REMARK       I    between atoms: N_9  and  C_10 
REMARK    5  A    between atoms: C_10  and  C_12 
REMARK    6  A    between atoms: C_12  and  C_13 
REMARK    7  A    between atoms: C_16  and  C_19 
ROOT
HETATM    1  N   UNL     1     -41.734 -51.715  11.992  1.00  0.00    -0.348 N 
HETATM    2  C   UNL     1     -40.870 -50.708  12.351  1.00  0.00     0.224 C 
HETATM    3  O   UNL     1     -40.536 -50.516  13.520  1.00  0.00    -0.273 OA
HETATM    4  H   UNL     1     -42.055 -51.811  11.033  1.00  0.00     0.163 HD
ENDROOT
BRANCH   2   5
HETATM    5  C   UNL     1     -40.378 -49.840  11.203  1.00  0.00     0.160 C 
BRANCH   5   6
HETATM    6  C   UNL     1     -41.258 -48.651  10.994  1.00  0.00     0.025 A 
HETATM    7  C   UNL     1     -41.359 -47.544  11.817  1.00  0.00     0.077 A 
HETATM    8  S   UNL     1     -42.499 -46.436  11.188  1.00  0.00    -0.086 SA
HETATM    9  C   UNL     1     -42.788 -47.497   9.866  1.00  0.00     0.054 A 
HETATM   10  N   UNL     1     -42.097 -48.620   9.886  1.00  0.00    -0.356 N 
ATOM     11  HN  UNL     1     -42.168 -49.360   9.188  1.00  0.00     0.166 HD
BRANCH   9  12
HETATM   12  C   UNL     1     -43.763 -47.106   8.785  1.00  0.00     0.035 C 
HETATM   13  C   UNL     1     -43.521 -47.934   7.523  1.00  0.00     0.016 C 
HETATM   14  C   UNL     1     -45.206 -47.262   9.266  1.00  0.00     0.016 C 
ENDBRANCH   9  12
ENDBRANCH   5   6
ENDBRANCH   2   5
BRANCH   1  15
HETATM   15  C   UNL     1     -42.284 -52.653  12.964  1.00  0.00     0.172 C 
HETATM   16  C   UNL     1     -41.565 -53.996  12.878  1.00  0.00     0.042 C 
BRANCH  15  17
HETATM   17  C   UNL     1     -43.793 -52.819  12.697  1.00  0.00     0.240 C 
HETATM   18  N   UNL     1     -44.557 -51.713  13.006  1.00  0.00    -0.359 N 
HETATM   19  H   UNL     1     -44.114 -50.903  13.421  1.00  0.00     0.162 HD
HETATM   20  O   UNL     1     -44.268 -53.861  12.245  1.00  0.00    -0.271 OA
BRANCH  18  21
HETATM   21  C   UNL     1     -45.997 -51.694  12.848  1.00  0.00     0.122 C 
BRANCH  21  22
HETATM   22  C   UNL     1     -46.729 -52.341  14.022  1.00  0.00     0.015 C 
HETATM   23  C   UNL     1     -46.983 -51.370  15.166  1.00  0.00     0.006 C 
ENDBRANCH  21  22
ENDBRANCH  18  21
ENDBRANCH  15  17
ENDBRANCH   1  15
TORSDOF 7
ENDMDL
MODEL 2
REMARK VINA RESULT:      -6.0      3.011      6.965
REMARK  7 active torsions:
REMARK  status: ('A' for Active; 'I' for Inactive)
REMARK    1  A    between atoms: C_2  and  C_3 
REMARK    2  A    between atoms: C_3  and  N_4 
REMARK       I    between atoms: N_4  and  C_5 
REMARK    3  A    between atoms: C_5  and  C_7 
REMARK    4  A    between atoms: C_7  and  N_9 
REMARK       I    between atoms: N_9  and  C_10 
REMARK    5  A    between atoms: C_10  and  C_12 
REMARK    6  A    between atoms: C_12  and  C_13 
REMARK    7  A    between atoms: C_16  and  C_19 
ROOT
HETATM    1  N   UNL     1     -41.773 -48.554  10.316  1.00  0.00    -0.348 N 
HETATM    2  C   UNL     1     -41.756 -49.224  11.516  1.00  0.00     0.224 C 
HETATM    3  O   UNL     1     -42.521 -48.938  12.437  1.00  0.00    -0.273 OA
HETATM    4  H   UNL     1     -41.086 -48.755   9.595  1.00  0.00     0.163 HD
ENDROOT
BRANCH   2   5
HETATM    5  C   UNL     1     -40.714 -50.325  11.626  1.00  0.00     0.160 C 
BRANCH   5   6
HETATM    6  C   UNL     1     -41.301 -51.589  12.166  1.00  0.00     0.025 A 
HETATM    7  C   UNL     1     -40.622 -52.600  12.822  1.00  0.00     0.077 A 
HETATM    8  S   UNL     1     -41.697 -53.857  13.253  1.00  0.00    -0.086 SA
HETATM    9  C   UNL     1     -42.994 -52.982  12.538  1.00  0.00     0.054 A 
HETATM   10  N   UNL     1     -42.660 -51.828  11.994  1.00  0.00    -0.356 N 
ATOM     11  HN  UNL     1     -43.306 -51.200  11.515  1.00  0.00     0.166 HD
BRANCH   9  12
HETATM   12  C   UNL     1     -44.394 -53.540  12.580  1.00  0.00     0.035 C 
HETATM   13  C   UNL     1     -44.525 -54.568  13.703  1.00  0.00     0.016 C 
HETATM   14  C   UNL     1     -45.424 -52.422  12.748  1.00  0.00     0.016 C 
ENDBRANCH   9  12
ENDBRANCH   5   6
ENDBRANCH   2   5
BRANCH   1  15
HETATM   15  C   UNL     1     -42.722 -47.484  10.034  1.00  0.00     0.172 C 
HETATM   16  C   UNL     1     -43.376 -47.694   8.671  1.00  0.00     0.042 C 
BRANCH  15  17
HETATM   17  C   UNL     1     -41.982 -46.133  10.086  1.00  0.00     0.240 C 
HETATM   18  N   UNL     1     -40.612 -46.233  10.214  1.00  0.00    -0.359 N 
HETATM   19  H   UNL     1     -40.188 -47.146  10.314  1.00  0.00     0.162 HD
HETATM   20  O   UNL     1     -42.576 -45.057  10.019  1.00  0.00    -0.271 OA
BRANCH  18  21
HETATM   21  C   UNL     1     -39.754 -45.069  10.308  1.00  0.00     0.122 C 
BRANCH  21  22
HETATM   22  C   UNL     1     -39.576 -44.580  11.744  1.00  0.00     0.015 C 
HETATM   23  C   UNL     1     -40.217 -43.221  11.989  1.00  0.00     0.006 C 
ENDBRANCH  21  22
ENDBRANCH  18  21
ENDBRANCH  15  17
ENDBRANCH   1  15
TORSDOF 7
ENDMDL
MODEL 3
REMARK VINA RESULT:      -6.0      2.254      5.664
REMARK  7 active torsions:
REMARK  status: ('A' for Active; 'I' for Inactive)
REMARK    1  A    between atoms: C_2  and  C_3 
REMARK    2  A    between atoms: C_3  and  N_4 
REMARK       I    between atoms: N_4  and  C_5 
REMARK    3  A    between atoms: C_5  and  C_7 
REMARK    4  A    between atoms: C_7  and  N_9 
REMARK       I    between atoms: N_9  and  C_10 
REMARK    5  A    between atoms: C_10  and  C_12 
REMARK    6  A    between atoms: C_12  and  C_13 
REMARK    7  A    between atoms: C_16  and  C_19 
ROOT
HETATM    1  N   UNL     1     -41.716 -49.351  11.262  1.00  0.00    -0.348 N 
HETATM    2  C   UNL     1     -40.909 -50.392  11.657  1.00  0.00     0.224 C 
HETATM    3  O   UNL     1     -39.682 -50.300  11.672  1.00  0.00    -0.273 OA
HETATM    4  H   UNL     1     -42.722 -49.469  11.186  1.00  0.00     0.163 HD
ENDROOT
BRANCH   2   5
HETATM    5  C   UNL     1     -41.643 -51.663  12.051  1.00  0.00     0.160 C 
BRANCH   5   6
HETATM    6  C   UNL     1     -42.740 -51.386  13.027  1.00  0.00     0.025 A 
HETATM    7  C   UNL     1     -42.599 -50.872  14.303  1.00  0.00     0.077 A 
HETATM    8  S   UNL     1     -44.125 -50.733  15.062  1.00  0.00    -0.086 SA
HETATM    9  C   UNL     1     -44.875 -51.368  13.650  1.00  0.00     0.054 A 
HETATM   10  N   UNL     1     -44.050 -51.684  12.670  1.00  0.00    -0.356 N 
ATOM     11  HN  UNL     1     -44.333 -52.088  11.777  1.00  0.00     0.166 HD
BRANCH   9  12
HETATM   12  C   UNL     1     -46.374 -51.513  13.592  1.00  0.00     0.035 C 
HETATM   13  C   UNL     1     -46.831 -51.771  12.157  1.00  0.00     0.016 C 
HETATM   14  C   UNL     1     -46.852 -52.630  14.521  1.00  0.00     0.016 C 
ENDBRANCH   9  12
ENDBRANCH   5   6
ENDBRANCH   2   5
BRANCH   1  15
HETATM   15  C   UNL     1     -41.178 -48.053  10.871  1.00  0.00     0.172 C 
HETATM   16  C   UNL     1     -40.793 -47.240  12.104  1.00  0.00     0.042 C 
BRANCH  15  17
HETATM   17  C   UNL     1     -42.234 -47.309  10.029  1.00  0.00     0.240 C 
HETATM   18  N   UNL     1     -43.186 -48.123   9.453  1.00  0.00    -0.359 N 
HETATM   19  H   UNL     1     -43.118 -49.126   9.565  1.00  0.00     0.162 HD
HETATM   20  O   UNL     1     -42.217 -46.086   9.889  1.00  0.00    -0.271 OA
BRANCH  18  21
HETATM   21  C   UNL     1     -44.241 -47.604   8.604  1.00  0.00     0.122 C 
BRANCH  21  22
HETATM   22  C   UNL     1     -45.567 -47.436   9.344  1.00  0.00     0.015 C 
HETATM   23  C   UNL     1     -46.667 -48.331   8.794  1.00  0.00     0.006 C 
ENDBRANCH  21  22
ENDBRANCH  18  21
ENDBRANCH  15  17
ENDBRANCH   1  15
TORSDOF 7
ENDMDL
MODEL 4
REMARK VINA RESULT:      -6.0      2.563      5.927
REMARK  7 active torsions:
REMARK  status: ('A' for Active; 'I' for Inactive)
REMARK    1  A    between atoms: C_2  and  C_3 
REMARK    2  A    between atoms: C_3  and  N_4 
REMARK       I    between atoms: N_4  and  C_5 
REMARK    3  A    between atoms: C_5  and  C_7 
REMARK    4  A    between atoms: C_7  and  N_9 
REMARK       I    between atoms: N_9  and  C_10 
REMARK    5  A    between atoms: C_10  and  C_12 
REMARK    6  A    between atoms: C_12  and  C_13 
REMARK    7  A    between atoms: C_16  and  C_19 
ROOT
HETATM    1  N   UNL     1     -41.688 -48.025  11.783  1.00  0.00    -0.348 N 
HETATM    2  C   UNL     1     -41.370 -49.346  11.987  1.00  0.00     0.224 C 
HETATM    3  O   UNL     1     -40.734 -50.002  11.162  1.00  0.00    -0.273 OA
HETATM    4  H   UNL     1     -42.276 -47.521  12.440  1.00  0.00     0.163 HD
ENDROOT
BRANCH   2   5
HETATM    5  C   UNL     1     -41.879 -49.939  13.291  1.00  0.00     0.160 C 
BRANCH   5   6
HETATM    6  C   UNL     1     -42.814 -51.080  13.051  1.00  0.00     0.025 A 
HETATM    7  C   UNL     1     -42.467 -52.370  12.696  1.00  0.00     0.077 A 
HETATM    8  S   UNL     1     -43.866 -53.336  12.519  1.00  0.00    -0.086 SA
HETATM    9  C   UNL     1     -44.843 -51.979  12.919  1.00  0.00     0.054 A 
HETATM   10  N   UNL     1     -44.183 -50.863  13.159  1.00  0.00    -0.356 N 
ATOM     11  HN  UNL     1     -44.615 -49.968  13.390  1.00  0.00     0.166 HD
BRANCH   9  12
HETATM   12  C   UNL     1     -46.342 -52.124  12.993  1.00  0.00     0.035 C 
HETATM   13  C   UNL     1     -46.889 -51.401  14.223  1.00  0.00     0.016 C 
HETATM   14  C   UNL     1     -47.006 -51.601  11.718  1.00  0.00     0.016 C 
ENDBRANCH   9  12
ENDBRANCH   5   6
ENDBRANCH   2   5
BRANCH   1  15
HETATM   15  C   UNL     1     -41.260 -47.294  10.595  1.00  0.00     0.172 C 
HETATM   16  C   UNL     1     -40.365 -46.120  10.982  1.00  0.00     0.042 C 
BRANCH  15  17
HETATM   17  C   UNL     1     -42.508 -46.806   9.834  1.00  0.00     0.240 C 
HETATM   18  N   UNL     1     -43.292 -47.813   9.311  1.00  0.00    -0.359 N 
HETATM   19  H   UNL     1     -42.995 -48.776   9.406  1.00  0.00     0.162 HD
HETATM   20  O   UNL     1     -42.773 -45.610   9.708  1.00  0.00    -0.271 OA
BRANCH  18  21
HETATM   21  C   UNL     1     -44.490 -47.544   8.540  1.00  0.00     0.122 C 
BRANCH  21  22
HETATM   22  C   UNL     1     -45.759 -47.575   9.389  1.00  0.00     0.015 C 
HETATM   23  C   UNL     1     -46.763 -48.614   8.912  1.00  0.00     0.006 C 
ENDBRANCH  21  22
ENDBRANCH  18  21
ENDBRANCH  15  17
ENDBRANCH   1  15
TORSDOF 7
ENDMDL
MODEL 5
REMARK VINA RESULT:      -5.8      2.348      5.920
REMARK  7 active torsions:
REMARK  status: ('A' for Active; 'I' for Inactive)
REMARK    1  A    between atoms: C_2  and  C_3 
REMARK    2  A    between atoms: C_3  and  N_4 
REMARK       I    between atoms: N_4  and  C_5 
REMARK    3  A    between atoms: C_5  and  C_7 
REMARK    4  A    between atoms: C_7  and  N_9 
REMARK       I    between atoms: N_9  and  C_10 
REMARK    5  A    between atoms: C_10  and  C_12 
REMARK    6  A    between atoms: C_12  and  C_13 
REMARK    7  A    between atoms: C_16  and  C_19 
ROOT
HETATM    1  N   UNL     1     -40.818 -50.437  11.095  1.00  0.00    -0.348 N 
HETATM    2  C   UNL     1     -41.327 -51.110  12.181  1.00  0.00     0.224 C 
HETATM    3  O   UNL     1     -41.509 -50.559  13.266  1.00  0.00    -0.273 OA
HETATM    4  H   UNL     1     -40.606 -50.925  10.230  1.00  0.00     0.163 HD
ENDROOT
BRANCH   2   5
HETATM    5  C   UNL     1     -41.626 -52.581  11.946  1.00  0.00     0.160 C 
BRANCH   5   6
HETATM    6  C   UNL     1     -42.854 -53.018  12.677  1.00  0.00     0.025 A 
HETATM    7  C   UNL     1     -42.952 -54.071  13.569  1.00  0.00     0.077 A 
HETATM    8  S   UNL     1     -44.552 -54.208  14.155  1.00  0.00    -0.086 SA
HETATM    9  C   UNL     1     -45.013 -52.865  13.185  1.00  0.00     0.054 A 
HETATM   10  N   UNL     1     -44.049 -52.344  12.451  1.00  0.00    -0.356 N 
ATOM     11  HN  UNL     1     -44.162 -51.559  11.810  1.00  0.00     0.166 HD
BRANCH   9  12
HETATM   12  C   UNL     1     -46.431 -52.355  13.227  1.00  0.00     0.035 C 
HETATM   13  C   UNL     1     -46.604 -51.352  14.367  1.00  0.00     0.016 C 
HETATM   14  C   UNL     1     -46.828 -51.728  11.890  1.00  0.00     0.016 C 
ENDBRANCH   9  12
ENDBRANCH   5   6
ENDBRANCH   2   5
BRANCH   1  15
HETATM   15  C   UNL     1     -40.495 -49.016  11.139  1.00  0.00     0.172 C 
HETATM   16  C   UNL     1     -39.557 -48.716  12.305  1.00  0.00     0.042 C 
BRANCH  15  17
HETATM   17  C   UNL     1     -41.804 -48.211  11.266  1.00  0.00     0.240 C 
HETATM   18  N   UNL     1     -42.628 -48.276  10.162  1.00  0.00    -0.359 N 
HETATM   19  H   UNL     1     -42.322 -48.785   9.342  1.00  0.00     0.162 HD
HETATM   20  O   UNL     1     -42.080 -47.564  12.277  1.00  0.00    -0.271 OA
BRANCH  18  21
HETATM   21  C   UNL     1     -43.886 -47.561  10.089  1.00  0.00     0.122 C 
BRANCH  21  22
HETATM   22  C   UNL     1     -44.246 -47.142   8.664  1.00  0.00     0.015 C 
HETATM   23  C   UNL     1     -43.487 -47.930   7.607  1.00  0.00     0.006 C 
ENDBRANCH  21  22
ENDBRANCH  18  21
ENDBRANCH  15  17
ENDBRANCH   1  15
TORSDOF 7
ENDMDL
MODEL 6
REMARK VINA RESULT:      -5.6      2.466      5.960
REMARK  7 active torsions:
REMARK  status: ('A' for Active; 'I' for Inactive)
REMARK    1  A    between atoms: C_2  and  C_3 
REMARK    2  A    between atoms: C_3  and  N_4 
REMARK       I    between atoms: N_4  and  C_5 
REMARK    3  A    between atoms: C_5  and  C_7 
REMARK    4  A    between atoms: C_7  and  N_9 
REMARK       I    between atoms: N_9  and  C_10 
REMARK    5  A    between atoms: C_10  and  C_12 
REMARK    6  A    between atoms: C_12  and  C_13 
REMARK    7  A    between atoms: C_16  and  C_19 
ROOT
HETATM    1  N   UNL     1     -39.872 -51.095  12.835  1.00  0.00    -0.348 N 
HETATM    2  C   UNL     1     -40.779 -52.110  12.644  1.00  0.00     0.224 C 
HETATM    3  O   UNL     1     -41.238 -52.378  11.534  1.00  0.00    -0.273 OA
HETATM    4  H   UNL     1     -39.560 -50.841  13.767  1.00  0.00     0.163 HD
ENDROOT
BRANCH   2   5
HETATM    5  C   UNL     1     -41.185 -52.858  13.903  1.00  0.00     0.160 C 
BRANCH   5   6
HETATM    6  C   UNL     1     -42.665 -53.056  13.974  1.00  0.00     0.025 A 
HETATM    7  C   UNL     1     -43.326 -54.224  14.307  1.00  0.00     0.077 A 
HETATM    8  S   UNL     1     -45.018 -53.988  14.250  1.00  0.00    -0.086 SA
HETATM    9  C   UNL     1     -44.765 -52.352  13.783  1.00  0.00     0.054 A 
HETATM   10  N   UNL     1     -43.503 -51.992  13.658  1.00  0.00    -0.356 N 
ATOM     11  HN  UNL     1     -43.186 -51.066  13.372  1.00  0.00     0.166 HD
BRANCH   9  12
HETATM   12  C   UNL     1     -45.945 -51.440  13.564  1.00  0.00     0.035 C 
HETATM   13  C   UNL     1     -46.721 -51.861  12.317  1.00  0.00     0.016 C 
HETATM   14  C   UNL     1     -46.860 -51.425  14.790  1.00  0.00     0.016 C 
ENDBRANCH   9  12
ENDBRANCH   5   6
ENDBRANCH   2   5
BRANCH   1  15
HETATM   15  C   UNL     1     -39.359 -50.290  11.732  1.00  0.00     0.172 C 
HETATM   16  C   UNL     1     -37.858 -50.063  11.889  1.00  0.00     0.042 C 
BRANCH  15  17
HETATM   17  C   UNL     1     -40.118 -48.949  11.697  1.00  0.00     0.240 C 
HETATM   18  N   UNL     1     -40.936 -48.780  10.600  1.00  0.00    -0.359 N 
HETATM   19  H   UNL     1     -40.957 -49.492   9.881  1.00  0.00     0.162 HD
HETATM   20  O   UNL     1     -39.994 -48.104  12.584  1.00  0.00    -0.271 OA
BRANCH  18  21
HETATM   21  C   UNL     1     -41.706 -47.571  10.384  1.00  0.00     0.122 C 
BRANCH  21  22
HETATM   22  C   UNL     1     -43.211 -47.828  10.345  1.00  0.00     0.015 C 
HETATM   23  C   UNL     1     -43.829 -47.504   8.992  1.00  0.00     0.006 C 
ENDBRANCH  21  22
ENDBRANCH  18  21
ENDBRANCH  15  17
ENDBRANCH   1  15
TORSDOF 7
ENDMDL
MODEL 7
REMARK VINA RESULT:      -5.5      1.635      2.306
REMARK  7 active torsions:
REMARK  status: ('A' for Active; 'I' for Inactive)
REMARK    1  A    between atoms: C_2  and  C_3 
REMARK    2  A    between atoms: C_3  and  N_4 
REMARK       I    between atoms: N_4  and  C_5 
REMARK    3  A    between atoms: C_5  and  C_7 
REMARK    4  A    between atoms: C_7  and  N_9 
REMARK       I    between atoms: N_9  and  C_10 
REMARK    5  A    between atoms: C_10  and  C_12 
REMARK    6  A    between atoms: C_12  and  C_13 
REMARK    7  A    between atoms: C_16  and  C_19 
ROOT
HETATM    1  N   UNL     1     -41.764 -51.756  11.924  1.00  0.00    -0.348 N 
HETATM    2  C   UNL     1     -40.892 -50.729  12.200  1.00  0.00     0.224 C 
HETATM    3  O   UNL     1     -40.463 -50.520  13.335  1.00  0.00    -0.273 OA
HETATM    4  H   UNL     1     -42.163 -51.868  10.997  1.00  0.00     0.163 HD
ENDROOT
BRANCH   2   5
HETATM    5  C   UNL     1     -40.515 -49.866  11.007  1.00  0.00     0.160 C 
BRANCH   5   6
HETATM    6  C   UNL     1     -41.036 -48.472  11.149  1.00  0.00     0.025 A 
HETATM    7  C   UNL     1     -42.343 -48.102  11.405  1.00  0.00     0.077 A 
HETATM    8  S   UNL     1     -42.478 -46.399  11.474  1.00  0.00    -0.086 SA
HETATM    9  C   UNL     1     -40.793 -46.262  11.157  1.00  0.00     0.054 A 
HETATM   10  N   UNL     1     -40.158 -47.405  10.991  1.00  0.00    -0.356 N 
ATOM     11  HN  UNL     1     -39.165 -47.495  10.778  1.00  0.00     0.166 HD
BRANCH   9  12
HETATM   12  C   UNL     1     -40.145 -44.902  11.101  1.00  0.00     0.035 C 
HETATM   13  C   UNL     1     -39.335 -44.749   9.814  1.00  0.00     0.016 C 
HETATM   14  C   UNL     1     -41.190 -43.792  11.218  1.00  0.00     0.016 C 
ENDBRANCH   9  12
ENDBRANCH   5   6
ENDBRANCH   2   5
BRANCH   1  15
HETATM   15  C   UNL     1     -42.213 -52.693  12.947  1.00  0.00     0.172 C 
HETATM   16  C   UNL     1     -41.452 -54.012  12.836  1.00  0.00     0.042 C 
BRANCH  15  17
HETATM   17  C   UNL     1     -43.729 -52.918  12.787  1.00  0.00     0.240 C 
HETATM   18  N   UNL     1     -44.490 -51.769  12.849  1.00  0.00    -0.359 N 
HETATM   19  H   UNL     1     -44.039 -50.883  13.039  1.00  0.00     0.162 HD
HETATM   20  O   UNL     1     -44.211 -54.038  12.619  1.00  0.00    -0.271 OA
BRANCH  18  21
HETATM   21  C   UNL     1     -45.935 -51.788  12.747  1.00  0.00     0.122 C 
BRANCH  21  22
HETATM   22  C   UNL     1     -46.626 -51.414  14.057  1.00  0.00     0.015 C 
HETATM   23  C   UNL     1     -46.908 -52.621  14.941  1.00  0.00     0.006 C 
ENDBRANCH  21  22
ENDBRANCH  18  21
ENDBRANCH  15  17
ENDBRANCH   1  15
TORSDOF 7
ENDMDL
MODEL 8
REMARK VINA RESULT:      -5.5      3.587      6.621
REMARK  7 active torsions:
REMARK  status: ('A' for Active; 'I' for Inactive)
REMARK    1  A    between atoms: C_2  and  C_3 
REMARK    2  A    between atoms: C_3  and  N_4 
REMARK       I    between atoms: N_4  and  C_5 
REMARK    3  A    between atoms: C_5  and  C_7 
REMARK    4  A    between atoms: C_7  and  N_9 
REMARK       I    between atoms: N_9  and  C_10 
REMARK    5  A    between atoms: C_10  and  C_12 
REMARK    6  A    between atoms: C_12  and  C_13 
REMARK    7  A    between atoms: C_16  and  C_19 
ROOT
HETATM    1  N   UNL     1     -39.419 -50.977  11.902  1.00  0.00    -0.348 N 
HETATM    2  C   UNL     1     -40.792 -51.032  11.896  1.00  0.00     0.224 C 
HETATM    3  O   UNL     1     -41.489 -50.017  11.932  1.00  0.00    -0.273 OA
HETATM    4  H   UNL     1     -38.862 -51.826  11.946  1.00  0.00     0.163 HD
ENDROOT
BRANCH   2   5
HETATM    5  C   UNL     1     -41.382 -52.432  11.863  1.00  0.00     0.160 C 
BRANCH   5   6
HETATM    6  C   UNL     1     -42.584 -52.545  12.745  1.00  0.00     0.025 A 
HETATM    7  C   UNL     1     -42.724 -53.371  13.845  1.00  0.00     0.077 A 
HETATM    8  S   UNL     1     -44.273 -53.174  14.543  1.00  0.00    -0.086 SA
HETATM    9  C   UNL     1     -44.659 -52.010  13.338  1.00  0.00     0.054 A 
HETATM   10  N   UNL     1     -43.708 -51.781  12.452  1.00  0.00    -0.356 N 
ATOM     11  HN  UNL     1     -43.786 -51.137  11.666  1.00  0.00     0.166 HD
BRANCH   9  12
HETATM   12  C   UNL     1     -46.000 -51.322  13.356  1.00  0.00     0.035 C 
HETATM   13  C   UNL     1     -46.850 -51.777  12.170  1.00  0.00     0.016 C 
HETATM   14  C   UNL     1     -46.730 -51.581  14.675  1.00  0.00     0.016 C 
ENDBRANCH   9  12
ENDBRANCH   5   6
ENDBRANCH   2   5
BRANCH   1  15
HETATM   15  C   UNL     1     -38.688 -49.715  11.911  1.00  0.00     0.172 C 
HETATM   16  C   UNL     1     -37.329 -49.879  11.237  1.00  0.00     0.042 C 
BRANCH  15  17
HETATM   17  C   UNL     1     -38.526 -49.243  13.369  1.00  0.00     0.240 C 
HETATM   18  N   UNL     1     -37.936 -50.164  14.209  1.00  0.00    -0.359 N 
HETATM   19  H   UNL     1     -37.697 -51.080  13.853  1.00  0.00     0.162 HD
HETATM   20  O   UNL     1     -38.898 -48.130  13.743  1.00  0.00    -0.271 OA
BRANCH  18  21
HETATM   21  C   UNL     1     -37.727 -49.906  15.620  1.00  0.00     0.122 C 
BRANCH  21  22
HETATM   22  C   UNL     1     -36.298 -49.469  15.936  1.00  0.00     0.015 C 
HETATM   23  C   UNL     1     -36.156 -47.959  16.057  1.00  0.00     0.006 C 
ENDBRANCH  21  22
ENDBRANCH  18  21
ENDBRANCH  15  17
ENDBRANCH   1  15
TORSDOF 7
ENDMDL
MODEL 9
REMARK VINA RESULT:      -5.3      3.862      6.536
REMARK  7 active torsions:
REMARK  status: ('A' for Active; 'I' for Inactive)
REMARK    1  A    between atoms: C_2  and  C_3 
REMARK    2  A    between atoms: C_3  and  N_4 
REMARK       I    between atoms: N_4  and  C_5 
REMARK    3  A    between atoms: C_5  and  C_7 
REMARK    4  A    between atoms: C_7  and  N_9 
REMARK       I    between atoms: N_9  and  C_10 
REMARK    5  A    between atoms: C_10  and  C_12 
REMARK    6  A    between atoms: C_12  and  C_13 
REMARK    7  A    between atoms: C_16  and  C_19 
ROOT
HETATM    1  N   UNL     1     -42.006 -48.837  10.871  1.00  0.00    -0.348 N 
HETATM    2  C   UNL     1     -40.734 -49.074  11.335  1.00  0.00     0.224 C 
HETATM    3  O   UNL     1     -39.971 -48.162  11.651  1.00  0.00    -0.273 OA
HETATM    4  H   UNL     1     -42.595 -49.598  10.546  1.00  0.00     0.163 HD
ENDROOT
BRANCH   2   5
HETATM    5  C   UNL     1     -40.338 -50.539  11.408  1.00  0.00     0.160 C 
BRANCH   5   6
HETATM    6  C   UNL     1     -39.702 -50.875  12.718  1.00  0.00     0.025 A 
HETATM    7  C   UNL     1     -40.077 -51.888  13.581  1.00  0.00     0.077 A 
HETATM    8  S   UNL     1     -39.074 -51.894  14.966  1.00  0.00    -0.086 SA
HETATM    9  C   UNL     1     -38.209 -50.548  14.333  1.00  0.00     0.054 A 
HETATM   10  N   UNL     1     -38.639 -50.101  13.169  1.00  0.00    -0.356 N 
ATOM     11  HN  UNL     1     -38.248 -49.302  12.671  1.00  0.00     0.166 HD
BRANCH   9  12
HETATM   12  C   UNL     1     -37.040 -49.978  15.094  1.00  0.00     0.035 C 
HETATM   13  C   UNL     1     -37.078 -48.450  15.065  1.00  0.00     0.016 C 
HETATM   14  C   UNL     1     -37.022 -50.491  16.535  1.00  0.00     0.016 C 
ENDBRANCH   9  12
ENDBRANCH   5   6
ENDBRANCH   2   5
BRANCH   1  15
HETATM   15  C   UNL     1     -42.556 -47.490  10.758  1.00  0.00     0.172 C 
HETATM   16  C   UNL     1     -43.205 -47.065  12.073  1.00  0.00     0.042 C 
BRANCH  15  17
HETATM   17  C   UNL     1     -43.580 -47.465   9.606  1.00  0.00     0.240 C 
HETATM   18  N   UNL     1     -44.838 -47.027   9.965  1.00  0.00    -0.359 N 
HETATM   19  H   UNL     1     -45.029 -46.804  10.933  1.00  0.00     0.162 HD
HETATM   20  O   UNL     1     -43.287 -47.811   8.461  1.00  0.00    -0.271 OA
BRANCH  18  21
HETATM   21  C   UNL     1     -45.936 -46.963   9.021  1.00  0.00     0.122 C 
BRANCH  21  22
HETATM   22  C   UNL     1     -46.769 -48.243   8.995  1.00  0.00     0.015 C 
HETATM   23  C   UNL     1     -46.531 -49.077   7.745  1.00  0.00     0.006 C 
ENDBRANCH  21  22
ENDBRANCH  18  21
ENDBRANCH  15  17
ENDBRANCH   1  15
TORSDOF 7
ENDMDL
