MODEL 1
REMARK VINA RESULT:      -6.5      0.000      0.000
REMARK  5 active torsions:
REMARK  status: ('A' for Active; 'I' for Inactive)
REMARK    1  A    between atoms: C_2  and  C_3 
REMARK    2  A    between atoms: N_9  and  C_10 
REMARK    3  A    between atoms: C_10  and  C_11 
REMARK    4  A    between atoms: C_11  and  N_12 
REMARK       I    between atoms: N_12  and  C_13 
REMARK       I    between atoms: C_13  and  N_15 
REMARK    5  A    between atoms: N_15  and  C_16 
ROOT
HETATM    1  N   UNL     1     -41.936 -50.610  11.835  1.00  0.00    -0.342 N 
HETATM    2  C   UNL     1     -42.501 -51.236  12.918  1.00  0.00     0.316 C 
HETATM    3  O   UNL     1     -42.008 -51.220  14.035  1.00  0.00    -0.247 OA
HETATM    4  N   UNL     1     -43.662 -51.881  12.585  1.00  0.00    -0.338 N 
HETATM    5  H   UNL     1     -42.603 -50.300  11.142  1.00  0.00     0.164 HD
HETATM    6  H   UNL     1     -43.718 -52.179  11.621  1.00  0.00     0.164 HD
ENDROOT
BRANCH   1   7
HETATM    7  C   UNL     1     -40.754 -49.781  12.019  1.00  0.00     0.144 C 
BRANCH   7   8
HETATM    8  C   UNL     1     -41.039 -48.351  12.495  1.00  0.00     0.151 C 
BRANCH   8   9
HETATM    9  N   UNL     1     -41.047 -47.389  11.415  1.00  0.00    -0.329 N 
HETATM   10  C   UNL     1     -42.102 -47.012  10.624  1.00  0.00     0.098 A 
HETATM   11  N   UNL     1     -41.684 -46.086   9.784  1.00  0.00    -0.288 N 
HETATM   12  N   UNL     1     -40.352 -45.849  10.033  1.00  0.00    -0.295 N 
ATOM     13  HN  UNL     1     -42.250 -45.624   9.072  1.00  0.00     0.188 HD
HETATM   14  C   UNL     1     -39.986 -46.634  11.018  1.00  0.00     0.201 A 
ATOM     15  HN  UNL     1     -39.757 -45.183   9.540  1.00  0.00     0.187 HD
BRANCH  10  16
HETATM   16  C   UNL     1     -43.480 -47.566  10.703  1.00  0.00     0.073 C 
HETATM   17  C   UNL     1     -44.256 -47.332   9.418  1.00  0.00     0.013 C 
ENDBRANCH  10  16
ENDBRANCH   8   9
ENDBRANCH   7   8
ENDBRANCH   1   7
BRANCH   4  18
HETATM   18  C   UNL     1     -44.324 -52.719  13.573  1.00  0.00     0.093 C 
HETATM   19  C   UNL     1     -44.194 -54.211  13.236  1.00  0.00     0.026 C 
HETATM   20  C   UNL     1     -45.493 -54.870  13.698  1.00  0.00     0.003 C 
HETATM   21  C   UNL     1     -46.298 -53.778  14.391  1.00  0.00     0.011 C 
HETATM   22  C   UNL     1     -45.838 -52.461  13.737  1.00  0.00    -0.027 C 
HETATM   23  C   UNL     1     -46.113 -51.280  14.676  1.00  0.00     0.017 C 
HETATM   24  C   UNL     1     -46.567 -52.230  12.404  1.00  0.00     0.017 C 
ENDBRANCH   4  18
TORSDOF 5
ENDMDL
MODEL 2
REMARK VINA RESULT:      -6.2      1.040      1.960
REMARK  5 active torsions:
REMARK  status: ('A' for Active; 'I' for Inactive)
REMARK    1  A    between atoms: C_2  and  C_3 
REMARK    2  A    between atoms: N_9  and  C_10 
REMARK    3  A    between atoms: C_10  and  C_11 
REMARK    4  A    between atoms: C_11  and  N_12 
REMARK       I    between atoms: N_12  and  C_13 
REMARK       I    between atoms: C_13  and  N_15 
REMARK    5  A    between atoms: N_15  and  C_16 
ROOT
HETATM    1  N   UNL     1     -42.179 -50.435  11.850  1.00  0.00    -0.342 N 
HETATM    2  C   UNL     1     -42.862 -50.959  12.920  1.00  0.00     0.316 C 
HETATM    3  O   UNL     1     -42.753 -50.533  14.059  1.00  0.00    -0.247 OA
HETATM    4  N   UNL     1     -43.656 -52.012  12.552  1.00  0.00    -0.338 N 
HETATM    5  H   UNL     1     -42.662 -50.528  10.967  1.00  0.00     0.164 HD
HETATM    6  H   UNL     1     -43.338 -52.516  11.736  1.00  0.00     0.164 HD
ENDROOT
BRANCH   1   7
HETATM    7  C   UNL     1     -41.369 -49.240  12.029  1.00  0.00     0.144 C 
BRANCH   7   8
HETATM    8  C   UNL     1     -41.136 -48.423  10.752  1.00  0.00     0.151 C 
BRANCH   8   9
HETATM    9  N   UNL     1     -42.068 -47.326  10.607  1.00  0.00    -0.329 N 
HETATM   10  C   UNL     1     -41.849 -45.992  10.837  1.00  0.00     0.098 A 
HETATM   11  N   UNL     1     -42.954 -45.333  10.552  1.00  0.00    -0.288 N 
HETATM   12  N   UNL     1     -43.897 -46.237  10.124  1.00  0.00    -0.295 N 
ATOM     13  HN  UNL     1     -43.087 -44.325  10.634  1.00  0.00     0.188 HD
HETATM   14  C   UNL     1     -43.349 -47.428  10.157  1.00  0.00     0.201 A 
ATOM     15  HN  UNL     1     -44.850 -46.020   9.833  1.00  0.00     0.187 HD
BRANCH  10  16
HETATM   16  C   UNL     1     -40.577 -45.401  11.333  1.00  0.00     0.073 C 
HETATM   17  C   UNL     1     -39.684 -44.947  10.190  1.00  0.00     0.013 C 
ENDBRANCH  10  16
ENDBRANCH   8   9
ENDBRANCH   7   8
ENDBRANCH   1   7
BRANCH   4  18
HETATM   18  C   UNL     1     -44.344 -52.782  13.577  1.00  0.00     0.093 C 
HETATM   19  C   UNL     1     -44.226 -54.293  13.330  1.00  0.00     0.026 C 
HETATM   20  C   UNL     1     -45.540 -54.909  13.809  1.00  0.00     0.003 C 
HETATM   21  C   UNL     1     -46.343 -53.769  14.424  1.00  0.00     0.011 C 
HETATM   22  C   UNL     1     -45.856 -52.499  13.701  1.00  0.00    -0.027 C 
HETATM   23  C   UNL     1     -46.132 -51.262  14.564  1.00  0.00     0.017 C 
HETATM   24  C   UNL     1     -46.562 -52.339  12.344  1.00  0.00     0.017 C 
ENDBRANCH   4  18
TORSDOF 5
ENDMDL
MODEL 3
REMARK VINA RESULT:      -6.1      3.219      4.587
REMARK  5 active torsions:
REMARK  status: ('A' for Active; 'I' for Inactive)
REMARK    1  A    between atoms: C_2  and  C_3 
REMARK    2  A    between atoms: N_9  and  C_10 
REMARK    3  A    between atoms: C_10  and  C_11 
REMARK    4  A    between atoms: C_11  and  N_12 
REMARK       I    between atoms: N_12  and  C_13 
REMARK       I    between atoms: C_13  and  N_15 
REMARK    5  A    between atoms: N_15  and  C_16 
ROOT
HETATM    1  N   UNL     1     -41.274 -51.601  15.812  1.00  0.00    -0.342 N 
HETATM    2  C   UNL     1     -42.436 -50.988  15.413  1.00  0.00     0.316 C 
HETATM    3  O   UNL     1     -42.461 -49.952  14.768  1.00  0.00    -0.247 OA
HETATM    4  N   UNL     1     -43.544 -51.671  15.838  1.00  0.00    -0.338 N 
HETATM    5  H   UNL     1     -41.347 -52.604  15.904  1.00  0.00     0.164 HD
HETATM    6  H   UNL     1     -43.409 -52.215  16.679  1.00  0.00     0.164 HD
ENDROOT
BRANCH   1   7
HETATM    7  C   UNL     1     -39.994 -51.079  15.360  1.00  0.00     0.144 C 
BRANCH   7   8
HETATM    8  C   UNL     1     -39.312 -51.907  14.264  1.00  0.00     0.151 C 
BRANCH   8   9
HETATM    9  N   UNL     1     -40.006 -51.847  12.997  1.00  0.00    -0.329 N 
HETATM   10  C   UNL     1     -40.777 -52.815  12.406  1.00  0.00     0.098 A 
HETATM   11  N   UNL     1     -41.249 -52.337  11.272  1.00  0.00    -0.288 N 
HETATM   12  N   UNL     1     -40.793 -51.048  11.124  1.00  0.00    -0.295 N 
ATOM     13  HN  UNL     1     -41.849 -52.837  10.616  1.00  0.00     0.188 HD
HETATM   14  C   UNL     1     -40.053 -50.767  12.170  1.00  0.00     0.201 A 
ATOM     15  HN  UNL     1     -40.994 -50.425  10.342  1.00  0.00     0.187 HD
BRANCH  10  16
HETATM   16  C   UNL     1     -41.026 -54.174  12.957  1.00  0.00     0.073 C 
HETATM   17  C   UNL     1     -42.415 -54.289  13.564  1.00  0.00     0.013 C 
ENDBRANCH  10  16
ENDBRANCH   8   9
ENDBRANCH   7   8
ENDBRANCH   1   7
BRANCH   4  18
HETATM   18  C   UNL     1     -44.864 -51.094  15.632  1.00  0.00     0.093 C 
HETATM   19  C   UNL     1     -45.630 -50.936  16.952  1.00  0.00     0.026 C 
HETATM   20  C   UNL     1     -47.103 -51.181  16.625  1.00  0.00     0.003 C 
HETATM   21  C   UNL     1     -47.176 -51.363  15.114  1.00  0.00     0.011 C 
HETATM   22  C   UNL     1     -45.794 -51.908  14.707  1.00  0.00    -0.027 C 
HETATM   23  C   UNL     1     -45.524 -51.609  13.227  1.00  0.00     0.017 C 
HETATM   24  C   UNL     1     -45.716 -53.425  14.941  1.00  0.00     0.017 C 
ENDBRANCH   4  18
TORSDOF 5
ENDMDL
MODEL 4
REMARK VINA RESULT:      -6.0      3.468      7.334
REMARK  5 active torsions:
REMARK  status: ('A' for Active; 'I' for Inactive)
REMARK    1  A    between atoms: C_2  and  C_3 
REMARK    2  A    between atoms: N_9  and  C_10 
REMARK    3  A    between atoms: C_10  and  C_11 
REMARK    4  A    between atoms: C_11  and  N_12 
REMARK       I    between atoms: N_12  and  C_13 
REMARK       I    between atoms: C_13  and  N_15 
REMARK    5  A    between atoms: N_15  and  C_16 
ROOT
HETATM    1  N   UNL     1     -41.946 -53.098  14.006  1.00  0.00    -0.342 N 
HETATM    2  C   UNL     1     -40.834 -52.534  13.433  1.00  0.00     0.316 C 
HETATM    3  O   UNL     1     -40.343 -52.930  12.386  1.00  0.00    -0.247 OA
HETATM    4  N   UNL     1     -40.345 -51.497  14.181  1.00  0.00    -0.338 N 
HETATM    5  H   UNL     1     -42.501 -52.454  14.551  1.00  0.00     0.164 HD
HETATM    6  H   UNL     1     -40.549 -51.556  15.169  1.00  0.00     0.164 HD
ENDROOT
BRANCH   1   7
HETATM    7  C   UNL     1     -42.668 -54.145  13.297  1.00  0.00     0.144 C 
BRANCH   7   8
HETATM    8  C   UNL     1     -43.911 -53.668  12.538  1.00  0.00     0.151 C 
BRANCH   8   9
HETATM    9  N   UNL     1     -45.136 -53.864  13.281  1.00  0.00    -0.329 N 
HETATM   10  C   UNL     1     -46.192 -53.000  13.419  1.00  0.00     0.098 A 
HETATM   11  N   UNL     1     -47.117 -53.586  14.153  1.00  0.00    -0.288 N 
HETATM   12  N   UNL     1     -46.669 -54.841  14.490  1.00  0.00    -0.295 N 
ATOM     13  HN  UNL     1     -48.012 -53.178  14.425  1.00  0.00     0.188 HD
HETATM   14  C   UNL     1     -45.481 -54.996  13.955  1.00  0.00     0.201 A 
ATOM     15  HN  UNL     1     -47.170 -55.528  15.054  1.00  0.00     0.187 HD
BRANCH  10  16
HETATM   16  C   UNL     1     -46.268 -51.632  12.839  1.00  0.00     0.073 C 
HETATM   17  C   UNL     1     -47.122 -51.600  11.583  1.00  0.00     0.013 C 
ENDBRANCH  10  16
ENDBRANCH   8   9
ENDBRANCH   7   8
ENDBRANCH   1   7
BRANCH   4  18
HETATM   18  C   UNL     1     -39.087 -50.871  13.803  1.00  0.00     0.093 C 
HETATM   19  C   UNL     1     -38.136 -50.735  15.000  1.00  0.00     0.026 C 
HETATM   20  C   UNL     1     -37.360 -49.436  14.785  1.00  0.00     0.003 C 
HETATM   21  C   UNL     1     -37.792 -48.905  13.423  1.00  0.00     0.011 C 
HETATM   22  C   UNL     1     -39.216 -49.451  13.212  1.00  0.00    -0.027 C 
HETATM   23  C   UNL     1     -39.551 -49.488  11.716  1.00  0.00     0.017 C 
HETATM   24  C   UNL     1     -40.249 -48.576  13.942  1.00  0.00     0.017 C 
ENDBRANCH   4  18
TORSDOF 5
ENDMDL
MODEL 5
REMARK VINA RESULT:      -5.9      1.225      1.841
REMARK  5 active torsions:
REMARK  status: ('A' for Active; 'I' for Inactive)
REMARK    1  A    between atoms: C_2  and  C_3 
REMARK    2  A    between atoms: N_9  and  C_10 
REMARK    3  A    between atoms: C_10  and  C_11 
REMARK    4  A    between atoms: C_11  and  N_12 
REMARK       I    between atoms: N_12  and  C_13 
REMARK       I    between atoms: C_13  and  N_15 
REMARK    5  A    between atoms: N_15  and  C_16 
ROOT
HETATM    1  N   UNL     1     -41.830 -50.725  11.625  1.00  0.00    -0.342 N 
HETATM    2  C   UNL     1     -42.305 -51.412  12.715  1.00  0.00     0.316 C 
HETATM    3  O   UNL     1     -41.626 -51.662  13.699  1.00  0.00    -0.247 OA
HETATM    4  N   UNL     1     -43.612 -51.786  12.551  1.00  0.00    -0.338 N 
HETATM    5  H   UNL     1     -42.535 -50.198  11.130  1.00  0.00     0.164 HD
HETATM    6  H   UNL     1     -43.899 -51.909  11.590  1.00  0.00     0.164 HD
ENDROOT
BRANCH   1   7
HETATM    7  C   UNL     1     -40.492 -50.152  11.663  1.00  0.00     0.144 C 
BRANCH   7   8
HETATM    8  C   UNL     1     -40.449 -48.620  11.655  1.00  0.00     0.151 C 
BRANCH   8   9
HETATM    9  N   UNL     1     -41.713 -48.022  11.283  1.00  0.00    -0.329 N 
HETATM   10  C   UNL     1     -42.605 -47.360  12.086  1.00  0.00     0.098 A 
HETATM   11  N   UNL     1     -43.611 -46.947  11.340  1.00  0.00    -0.288 N 
HETATM   12  N   UNL     1     -43.371 -47.332  10.042  1.00  0.00    -0.295 N 
ATOM     13  HN  UNL     1     -44.427 -46.431  11.669  1.00  0.00     0.188 HD
HETATM   14  C   UNL     1     -42.225 -47.971  10.023  1.00  0.00     0.201 A 
ATOM     15  HN  UNL     1     -43.975 -47.154   9.240  1.00  0.00     0.187 HD
BRANCH  10  16
HETATM   16  C   UNL     1     -42.458 -47.153  13.552  1.00  0.00     0.073 C 
HETATM   17  C   UNL     1     -43.004 -48.330  14.344  1.00  0.00     0.013 C 
ENDBRANCH  10  16
ENDBRANCH   8   9
ENDBRANCH   7   8
ENDBRANCH   1   7
BRANCH   4  18
HETATM   18  C   UNL     1     -44.240 -52.646  13.543  1.00  0.00     0.093 C 
HETATM   19  C   UNL     1     -44.149 -54.127  13.152  1.00  0.00     0.026 C 
HETATM   20  C   UNL     1     -45.435 -54.783  13.654  1.00  0.00     0.003 C 
HETATM   21  C   UNL     1     -46.189 -53.703  14.420  1.00  0.00     0.011 C 
HETATM   22  C   UNL     1     -45.740 -52.373  13.787  1.00  0.00    -0.027 C 
HETATM   23  C   UNL     1     -45.952 -51.219  14.775  1.00  0.00     0.017 C 
HETATM   24  C   UNL     1     -46.528 -52.088  12.498  1.00  0.00     0.017 C 
ENDBRANCH   4  18
TORSDOF 5
ENDMDL
MODEL 6
REMARK VINA RESULT:      -5.8      2.019      3.449
REMARK  5 active torsions:
REMARK  status: ('A' for Active; 'I' for Inactive)
REMARK    1  A    between atoms: C_2  and  C_3 
REMARK    2  A    between atoms: N_9  and  C_10 
REMARK    3  A    between atoms: C_10  and  C_11 
REMARK    4  A    between atoms: C_11  and  N_12 
REMARK       I    between atoms: N_12  and  C_13 
REMARK       I    between atoms: C_13  and  N_15 
REMARK    5  A    between atoms: N_15  and  C_16 
ROOT
HETATM    1  N   UNL     1     -43.029 -49.641  14.813  1.00  0.00    -0.342 N 
HETATM    2  C   UNL     1     -43.777 -50.537  14.091  1.00  0.00     0.316 C 
HETATM    3  O   UNL     1     -44.094 -50.362  12.925  1.00  0.00    -0.247 OA
HETATM    4  N   UNL     1     -44.128 -51.628  14.841  1.00  0.00    -0.338 N 
HETATM    5  H   UNL     1     -42.466 -50.062  15.538  1.00  0.00     0.164 HD
HETATM    6  H   UNL     1     -44.190 -51.456  15.834  1.00  0.00     0.164 HD
ENDROOT
BRANCH   1   7
HETATM    7  C   UNL     1     -42.472 -48.471  14.150  1.00  0.00     0.144 C 
BRANCH   7   8
HETATM    8  C   UNL     1     -41.018 -48.624  13.690  1.00  0.00     0.151 C 
BRANCH   8   9
HETATM    9  N   UNL     1     -40.903 -48.971  12.291  1.00  0.00    -0.329 N 
HETATM   10  C   UNL     1     -40.080 -49.903  11.713  1.00  0.00     0.098 A 
HETATM   11  N   UNL     1     -40.316 -49.922  10.416  1.00  0.00    -0.288 N 
HETATM   12  N   UNL     1     -41.304 -49.005  10.145  1.00  0.00    -0.295 N 
ATOM     13  HN  UNL     1     -39.847 -50.515   9.732  1.00  0.00     0.188 HD
HETATM   14  C   UNL     1     -41.650 -48.446  11.281  1.00  0.00     0.201 A 
ATOM     15  HN  UNL     1     -41.697 -48.797   9.227  1.00  0.00     0.187 HD
BRANCH  10  16
HETATM   16  C   UNL     1     -39.087 -50.742  12.436  1.00  0.00     0.073 C 
HETATM   17  C   UNL     1     -37.662 -50.411  12.022  1.00  0.00     0.013 C 
ENDBRANCH  10  16
ENDBRANCH   8   9
ENDBRANCH   7   8
ENDBRANCH   1   7
BRANCH   4  18
HETATM   18  C   UNL     1     -45.042 -52.615  14.285  1.00  0.00     0.093 C 
HETATM   19  C   UNL     1     -46.136 -53.008  15.287  1.00  0.00     0.026 C 
HETATM   20  C   UNL     1     -46.434 -54.486  15.038  1.00  0.00     0.003 C 
HETATM   21  C   UNL     1     -45.597 -54.889  13.831  1.00  0.00     0.011 C 
HETATM   22  C   UNL     1     -44.383 -53.941  13.849  1.00  0.00    -0.027 C 
HETATM   23  C   UNL     1     -43.774 -53.836  12.444  1.00  0.00     0.017 C 
HETATM   24  C   UNL     1     -43.312 -54.444  14.830  1.00  0.00     0.017 C 
ENDBRANCH   4  18
TORSDOF 5
ENDMDL
MODEL 7
REMARK VINA RESULT:      -5.8      3.151      4.347
REMARK  5 active torsions:
REMARK  status: ('A' for Active; 'I' for Inactive)
REMARK    1  A    between atoms: C_2  and  C_3 
REMARK    2  A    between atoms: N_9  and  C_10 
REMARK    3  A    between atoms: C_10  and  C_11 
REMARK    4  A    between atoms: C_11  and  N_12 
REMARK       I    between atoms: N_12  and  C_13 
REMARK       I    between atoms: C_13  and  N_15 
REMARK    5  A    between atoms: N_15  and  C_16 
ROOT
HETATM    1  N   UNL     1     -41.221 -51.892  15.684  1.00  0.00    -0.342 N 
HETATM    2  C   UNL     1     -42.351 -51.186  15.357  1.00  0.00     0.316 C 
HETATM    3  O   UNL     1     -42.327 -50.077  14.847  1.00  0.00    -0.247 OA
HETATM    4  N   UNL     1     -43.492 -51.870  15.683  1.00  0.00    -0.338 N 
HETATM    5  H   UNL     1     -41.335 -52.895  15.648  1.00  0.00     0.164 HD
HETATM    6  H   UNL     1     -43.389 -52.520  16.450  1.00  0.00     0.164 HD
ENDROOT
BRANCH   1   7
HETATM    7  C   UNL     1     -39.914 -51.371  15.311  1.00  0.00     0.144 C 
BRANCH   7   8
HETATM    8  C   UNL     1     -39.251 -52.085  14.127  1.00  0.00     0.151 C 
BRANCH   8   9
HETATM    9  N   UNL     1     -39.979 -51.916  12.888  1.00  0.00    -0.329 N 
HETATM   10  C   UNL     1     -39.939 -50.857  12.019  1.00  0.00     0.098 A 
HETATM   11  N   UNL     1     -40.731 -51.124  10.999  1.00  0.00    -0.288 N 
HETATM   12  N   UNL     1     -41.284 -52.367  11.197  1.00  0.00    -0.295 N 
ATOM     13  HN  UNL     1     -40.904 -50.513  10.200  1.00  0.00     0.188 HD
HETATM   14  C   UNL     1     -40.818 -52.832  12.332  1.00  0.00     0.201 A 
ATOM     15  HN  UNL     1     -41.937 -52.841  10.574  1.00  0.00     0.187 HD
BRANCH  10  16
HETATM   16  C   UNL     1     -39.139 -49.617  12.207  1.00  0.00     0.073 C 
HETATM   17  C   UNL     1     -37.757 -49.738  11.587  1.00  0.00     0.013 C 
ENDBRANCH  10  16
ENDBRANCH   8   9
ENDBRANCH   7   8
ENDBRANCH   1   7
BRANCH   4  18
HETATM   18  C   UNL     1     -44.784 -51.217  15.541  1.00  0.00     0.093 C 
HETATM   19  C   UNL     1     -45.523 -51.117  16.883  1.00  0.00     0.026 C 
HETATM   20  C   UNL     1     -47.011 -51.267  16.565  1.00  0.00     0.003 C 
HETATM   21  C   UNL     1     -47.114 -51.337  15.046  1.00  0.00     0.011 C 
HETATM   22  C   UNL     1     -45.766 -51.918  14.578  1.00  0.00    -0.027 C 
HETATM   23  C   UNL     1     -45.502 -51.528  13.118  1.00  0.00     0.017 C 
HETATM   24  C   UNL     1     -45.759 -53.450  14.703  1.00  0.00     0.017 C 
ENDBRANCH   4  18
TORSDOF 5
ENDMDL
MODEL 8
REMARK VINA RESULT:      -5.8      1.555      1.856
REMARK  5 active torsions:
REMARK  status: ('A' for Active; 'I' for Inactive)
REMARK    1  A    between atoms: C_2  and  C_3 
REMARK    2  A    between atoms: N_9  and  C_10 
REMARK    3  A    between atoms: C_10  and  C_11 
REMARK    4  A    between atoms: C_11  and  N_12 
REMARK       I    between atoms: N_12  and  C_13 
REMARK       I    between atoms: C_13  and  N_15 
REMARK    5  A    between atoms: N_15  and  C_16 
ROOT
HETATM    1  N   UNL     1     -42.356 -49.948  13.704  1.00  0.00    -0.342 N 
HETATM    2  C   UNL     1     -43.223 -50.670  14.485  1.00  0.00     0.316 C 
HETATM    3  O   UNL     1     -43.392 -50.457  15.676  1.00  0.00    -0.247 OA
HETATM    4  N   UNL     1     -43.853 -51.654  13.771  1.00  0.00    -0.338 N 
HETATM    5  H   UNL     1     -42.628 -49.887  12.733  1.00  0.00     0.164 HD
HETATM    6  H   UNL     1     -43.334 -51.996  12.974  1.00  0.00     0.164 HD
ENDROOT
BRANCH   1   7
HETATM    7  C   UNL     1     -41.678 -48.789  14.265  1.00  0.00     0.144 C 
BRANCH   7   8
HETATM    8  C   UNL     1     -40.675 -48.112  13.323  1.00  0.00     0.151 C 
BRANCH   8   9
HETATM    9  N   UNL     1     -40.695 -48.665  11.987  1.00  0.00    -0.329 N 
HETATM   10  C   UNL     1     -41.415 -48.235  10.902  1.00  0.00     0.098 A 
HETATM   11  N   UNL     1     -41.114 -49.001   9.872  1.00  0.00    -0.288 N 
HETATM   12  N   UNL     1     -40.187 -49.930  10.282  1.00  0.00    -0.295 N 
ATOM     13  HN  UNL     1     -41.503 -48.919   8.932  1.00  0.00     0.188 HD
HETATM   14  C   UNL     1     -39.941 -49.712  11.552  1.00  0.00     0.201 A 
ATOM     15  HN  UNL     1     -39.766 -50.656   9.703  1.00  0.00     0.187 HD
BRANCH  10  16
HETATM   16  C   UNL     1     -42.376 -47.100  10.900  1.00  0.00     0.073 C 
HETATM   17  C   UNL     1     -43.815 -47.580  10.995  1.00  0.00     0.013 C 
ENDBRANCH  10  16
ENDBRANCH   8   9
ENDBRANCH   7   8
ENDBRANCH   1   7
BRANCH   4  18
HETATM   18  C   UNL     1     -44.700 -52.612  14.466  1.00  0.00     0.093 C 
HETATM   19  C   UNL     1     -44.362 -54.059  14.079  1.00  0.00     0.026 C 
HETATM   20  C   UNL     1     -45.682 -54.828  14.099  1.00  0.00     0.003 C 
HETATM   21  C   UNL     1     -46.735 -53.848  14.602  1.00  0.00     0.011 C 
HETATM   22  C   UNL     1     -46.213 -52.456  14.201  1.00  0.00    -0.027 C 
HETATM   23  C   UNL     1     -46.837 -51.380  15.099  1.00  0.00     0.017 C 
HETATM   24  C   UNL     1     -46.550 -52.149  12.733  1.00  0.00     0.017 C 
ENDBRANCH   4  18
TORSDOF 5
ENDMDL
MODEL 9
REMARK VINA RESULT:      -5.6      1.661      2.399
REMARK  5 active torsions:
REMARK  status: ('A' for Active; 'I' for Inactive)
REMARK    1  A    between atoms: C_2  and  C_3 
REMARK    2  A    between atoms: N_9  and  C_10 
REMARK    3  A    between atoms: C_10  and  C_11 
REMARK    4  A    between atoms: C_11  and  N_12 
REMARK       I    between atoms: N_12  and  C_13 
REMARK       I    between atoms: C_13  and  N_15 
REMARK    5  A    between atoms: N_15  and  C_16 
ROOT
HETATM    1  N   UNL     1     -41.863 -50.321  11.755  1.00  0.00    -0.342 N 
HETATM    2  C   UNL     1     -41.880 -51.656  12.071  1.00  0.00     0.316 C 
HETATM    3  O   UNL     1     -40.974 -52.425  11.787  1.00  0.00    -0.247 OA
HETATM    4  N   UNL     1     -43.031 -52.012  12.721  1.00  0.00    -0.338 N 
HETATM    5  H   UNL     1     -42.379 -49.738  12.399  1.00  0.00     0.164 HD
HETATM    6  H   UNL     1     -43.832 -51.434  12.509  1.00  0.00     0.164 HD
ENDROOT
BRANCH   1   7
HETATM    7  C   UNL     1     -40.671 -49.737  11.157  1.00  0.00     0.144 C 
BRANCH   7   8
HETATM    8  C   UNL     1     -40.471 -48.245  11.446  1.00  0.00     0.151 C 
BRANCH   8   9
HETATM    9  N   UNL     1     -41.717 -47.540  11.657  1.00  0.00    -0.329 N 
HETATM   10  C   UNL     1     -42.718 -47.298  10.752  1.00  0.00     0.098 A 
HETATM   11  N   UNL     1     -43.688 -46.651  11.367  1.00  0.00    -0.288 N 
HETATM   12  N   UNL     1     -43.325 -46.477  12.681  1.00  0.00    -0.295 N 
ATOM     13  HN  UNL     1     -44.559 -46.333  10.940  1.00  0.00     0.188 HD
HETATM   14  C   UNL     1     -42.142 -47.021  12.842  1.00  0.00     0.201 A 
ATOM     15  HN  UNL     1     -43.876 -46.009  13.401  1.00  0.00     0.187 HD
BRANCH  10  16
HETATM   16  C   UNL     1     -42.699 -47.696   9.319  1.00  0.00     0.073 C 
HETATM   17  C   UNL     1     -43.972 -47.279   8.602  1.00  0.00     0.013 C 
ENDBRANCH  10  16
ENDBRANCH   8   9
ENDBRANCH   7   8
ENDBRANCH   1   7
BRANCH   4  18
HETATM   18  C   UNL     1     -43.287 -53.416  13.007  1.00  0.00     0.093 C 
HETATM   19  C   UNL     1     -44.736 -53.808  12.683  1.00  0.00     0.026 C 
HETATM   20  C   UNL     1     -45.138 -54.855  13.721  1.00  0.00     0.003 C 
HETATM   21  C   UNL     1     -43.890 -55.131  14.550  1.00  0.00     0.011 C 
HETATM   22  C   UNL     1     -43.063 -53.834  14.476  1.00  0.00    -0.027 C 
HETATM   23  C   UNL     1     -41.585 -54.132  14.761  1.00  0.00     0.017 C 
HETATM   24  C   UNL     1     -43.577 -52.800  15.492  1.00  0.00     0.017 C 
ENDBRANCH   4  18
TORSDOF 5
ENDMDL
