MODEL 1
REMARK VINA RESULT:      -6.8      0.000      0.000
REMARK  3 active torsions:
REMARK  status: ('A' for Active; 'I' for Inactive)
REMARK       I    between atoms: C_2  and  N_3 
REMARK       I    between atoms: C_2  and  N_11 
REMARK    1  A    between atoms: N_3  and  C_4 
REMARK    2  A    between atoms: N_11  and  C_12 
REMARK    3  A    between atoms: C_18  and  N_19 
ROOT
HETATM    1  O   UNL     1     -41.953 -49.633  13.455  1.00  0.00    -0.247 OA
HETATM    2  C   UNL     1     -42.088 -50.036  12.300  1.00  0.00     0.321 C 
HETATM    3  N   UNL     1     -42.132 -49.137  11.256  1.00  0.00    -0.337 N 
HETATM    4  N   UNL     1     -42.172 -51.351  11.905  1.00  0.00    -0.306 N 
HETATM    5  H   UNL     1     -42.392 -49.471  10.338  1.00  0.00     0.164 HD
HETATM    6  H   UNL     1     -42.114 -51.577  10.925  1.00  0.00     0.171 HD
ENDROOT
BRANCH   4   7
HETATM    7  C   UNL     1     -42.063 -52.471  12.778  1.00  0.00     0.075 A 
HETATM    8  C   UNL     1     -40.826 -53.062  13.049  1.00  0.00     0.034 A 
HETATM    9  C   UNL     1     -40.749 -54.176  13.874  1.00  0.00     0.019 A 
HETATM   10  C   UNL     1     -41.921 -54.658  14.414  1.00  0.00     0.089 A 
HETATM   11  N   UNL     1     -43.129 -54.078  14.238  1.00  0.00    -0.355 N 
HETATM   12  C   UNL     1     -43.208 -52.981  13.440  1.00  0.00     0.109 A 
ATOM     13  HN  UNL     1     -43.961 -54.455  14.692  1.00  0.00     0.166 HD
BRANCH  12  14
HETATM   14  N   UNL     1     -44.418 -52.296  13.380  1.00  0.00    -0.267 NA
HETATM   15  C   UNL     1     -45.066 -52.001  14.664  1.00  0.00     0.097 C 
HETATM   16  C   UNL     1     -46.392 -51.359  14.224  1.00  0.00     0.016 C 
HETATM   17  C   UNL     1     -46.514 -51.700  12.732  1.00  0.00     0.016 C 
HETATM   18  C   UNL     1     -45.482 -52.807  12.526  1.00  0.00     0.097 C 
ENDBRANCH  12  14
ENDBRANCH   4   7
BRANCH   3  19
HETATM   19  C   UNL     1     -42.104 -47.692  11.510  1.00  0.00     0.101 C 
HETATM   20  C   UNL     1     -43.230 -46.928  10.768  1.00  0.00     0.041 C 
HETATM   21  C   UNL     1     -42.694 -45.650  10.131  1.00  0.00     0.142 C 
HETATM   22  S   UNL     1     -41.070 -45.384  10.777  1.00  0.00     0.146 S 
HETATM   23  O   UNL     1     -40.180 -44.979   9.711  1.00  0.00    -0.228 OA
HETATM   24  O   UNL     1     -41.195 -44.626  12.010  1.00  0.00    -0.228 OA
HETATM   25  C   UNL     1     -40.742 -47.065  11.216  1.00  0.00     0.165 C 
ENDBRANCH   3  19
TORSDOF 3
ENDMDL
MODEL 2
REMARK VINA RESULT:      -6.7      3.721      7.651
REMARK  3 active torsions:
REMARK  status: ('A' for Active; 'I' for Inactive)
REMARK       I    between atoms: C_2  and  N_3 
REMARK       I    between atoms: C_2  and  N_11 
REMARK    1  A    between atoms: N_3  and  C_4 
REMARK    2  A    between atoms: N_11  and  C_12 
REMARK    3  A    between atoms: C_18  and  N_19 
ROOT
HETATM    1  O   UNL     1     -42.798 -49.964  13.564  1.00  0.00    -0.247 OA
HETATM    2  C   UNL     1     -42.496 -50.656  12.593  1.00  0.00     0.321 C 
HETATM    3  N   UNL     1     -42.871 -51.981  12.545  1.00  0.00    -0.337 N 
HETATM    4  N   UNL     1     -41.819 -50.229  11.474  1.00  0.00    -0.306 N 
HETATM    5  H   UNL     1     -42.488 -52.568  11.816  1.00  0.00     0.164 HD
HETATM    6  H   UNL     1     -41.768 -50.831  10.667  1.00  0.00     0.171 HD
ENDROOT
BRANCH   4   7
HETATM    7  C   UNL     1     -41.401 -48.888  11.238  1.00  0.00     0.075 A 
HETATM    8  C   UNL     1     -42.300 -47.916  10.792  1.00  0.00     0.034 A 
HETATM    9  C   UNL     1     -41.861 -46.624  10.534  1.00  0.00     0.019 A 
HETATM   10  C   UNL     1     -40.529 -46.344  10.742  1.00  0.00     0.089 A 
HETATM   11  N   UNL     1     -39.638 -47.231  11.240  1.00  0.00    -0.355 N 
HETATM   12  C   UNL     1     -40.065 -48.494  11.505  1.00  0.00     0.109 A 
ATOM     13  HN  UNL     1     -38.670 -46.960  11.412  1.00  0.00     0.166 HD
BRANCH  12  14
HETATM   14  N   UNL     1     -39.193 -49.361  12.157  1.00  0.00    -0.267 NA
HETATM   15  C   UNL     1     -38.709 -48.933  13.475  1.00  0.00     0.097 C 
HETATM   16  C   UNL     1     -37.711 -50.044  13.836  1.00  0.00     0.016 C 
HETATM   17  C   UNL     1     -37.461 -50.788  12.517  1.00  0.00     0.016 C 
HETATM   18  C   UNL     1     -38.010 -49.837  11.454  1.00  0.00     0.097 C 
ENDBRANCH  12  14
ENDBRANCH   4   7
BRANCH   3  19
HETATM   19  C   UNL     1     -43.557 -52.607  13.680  1.00  0.00     0.101 C 
HETATM   20  C   UNL     1     -42.661 -53.611  14.449  1.00  0.00     0.041 C 
HETATM   21  C   UNL     1     -43.428 -54.887  14.778  1.00  0.00     0.142 C 
HETATM   22  S   UNL     1     -45.136 -54.573  14.441  1.00  0.00     0.146 S 
HETATM   23  O   UNL     1     -45.716 -55.710  13.762  1.00  0.00    -0.228 OA
HETATM   24  O   UNL     1     -45.731 -53.998  15.636  1.00  0.00    -0.228 OA
HETATM   25  C   UNL     1     -44.881 -53.259  13.286  1.00  0.00     0.165 C 
ENDBRANCH   3  19
TORSDOF 3
ENDMDL
MODEL 3
REMARK VINA RESULT:      -6.4      3.399      7.235
REMARK  3 active torsions:
REMARK  status: ('A' for Active; 'I' for Inactive)
REMARK       I    between atoms: C_2  and  N_3 
REMARK       I    between atoms: C_2  and  N_11 
REMARK    1  A    between atoms: N_3  and  C_4 
REMARK    2  A    between atoms: N_11  and  C_12 
REMARK    3  A    between atoms: C_18  and  N_19 
ROOT
HETATM    1  O   UNL     1     -43.123 -49.197  13.394  1.00  0.00    -0.247 OA
HETATM    2  C   UNL     1     -42.837 -49.945  12.459  1.00  0.00     0.321 C 
HETATM    3  N   UNL     1     -43.314 -51.238  12.439  1.00  0.00    -0.337 N 
HETATM    4  N   UNL     1     -42.085 -49.613  11.357  1.00  0.00    -0.306 N 
HETATM    5  H   UNL     1     -42.950 -51.879  11.747  1.00  0.00     0.164 HD
HETATM    6  H   UNL     1     -42.050 -50.246  10.574  1.00  0.00     0.171 HD
ENDROOT
BRANCH   4   7
HETATM    7  C   UNL     1     -41.553 -48.318  11.096  1.00  0.00     0.075 A 
HETATM    8  C   UNL     1     -40.304 -47.934  11.590  1.00  0.00     0.034 A 
HETATM    9  C   UNL     1     -39.821 -46.653  11.354  1.00  0.00     0.019 A 
HETATM   10  C   UNL     1     -40.607 -45.797  10.616  1.00  0.00     0.089 A 
HETATM   11  N   UNL     1     -41.789 -46.146  10.057  1.00  0.00    -0.355 N 
HETATM   12  C   UNL     1     -42.260 -47.402  10.276  1.00  0.00     0.109 A 
ATOM     13  HN  UNL     1     -42.313 -45.483   9.486  1.00  0.00     0.166 HD
BRANCH  12  14
HETATM   14  N   UNL     1     -43.394 -47.810   9.581  1.00  0.00    -0.267 NA
HETATM   15  C   UNL     1     -43.319 -47.750   8.116  1.00  0.00     0.097 C 
HETATM   16  C   UNL     1     -44.742 -48.153   7.698  1.00  0.00     0.016 C 
HETATM   17  C   UNL     1     -45.575 -48.036   8.982  1.00  0.00     0.016 C 
HETATM   18  C   UNL     1     -44.683 -47.224   9.921  1.00  0.00     0.097 C 
ENDBRANCH  12  14
ENDBRANCH   4   7
BRANCH   3  19
HETATM   19  C   UNL     1     -44.093 -51.767  13.564  1.00  0.00     0.101 C 
HETATM   20  C   UNL     1     -43.204 -52.302  14.715  1.00  0.00     0.041 C 
HETATM   21  C   UNL     1     -43.728 -53.636  15.235  1.00  0.00     0.142 C 
HETATM   22  S   UNL     1     -45.335 -53.876  14.538  1.00  0.00     0.146 S 
HETATM   23  O   UNL     1     -45.476 -55.246  14.097  1.00  0.00    -0.228 OA
HETATM   24  O   UNL     1     -46.305 -53.240  15.414  1.00  0.00    -0.228 OA
HETATM   25  C   UNL     1     -45.112 -52.822  13.136  1.00  0.00     0.165 C 
ENDBRANCH   3  19
TORSDOF 3
ENDMDL
MODEL 4
REMARK VINA RESULT:      -6.2      3.608      6.744
REMARK  3 active torsions:
REMARK  status: ('A' for Active; 'I' for Inactive)
REMARK       I    between atoms: C_2  and  N_3 
REMARK       I    between atoms: C_2  and  N_11 
REMARK    1  A    between atoms: N_3  and  C_4 
REMARK    2  A    between atoms: N_11  and  C_12 
REMARK    3  A    between atoms: C_18  and  N_19 
ROOT
HETATM    1  O   UNL     1     -42.155 -51.834  13.588  1.00  0.00    -0.247 OA
HETATM    2  C   UNL     1     -42.016 -51.956  12.372  1.00  0.00     0.321 C 
HETATM    3  N   UNL     1     -42.923 -52.696  11.644  1.00  0.00    -0.337 N 
HETATM    4  N   UNL     1     -41.027 -51.381  11.608  1.00  0.00    -0.306 N 
HETATM    5  H   UNL     1     -42.712 -52.909  10.678  1.00  0.00     0.164 HD
HETATM    6  H   UNL     1     -41.100 -51.408  10.603  1.00  0.00     0.171 HD
ENDROOT
BRANCH   4   7
HETATM    7  C   UNL     1     -40.024 -50.500  12.105  1.00  0.00     0.075 A 
HETATM    8  C   UNL     1     -38.785 -50.983  12.536  1.00  0.00     0.034 A 
HETATM    9  C   UNL     1     -37.836 -50.109  13.051  1.00  0.00     0.019 A 
HETATM   10  C   UNL     1     -38.157 -48.771  13.108  1.00  0.00     0.089 A 
HETATM   11  N   UNL     1     -39.313 -48.250  12.638  1.00  0.00    -0.355 N 
HETATM   12  C   UNL     1     -40.241 -49.099  12.122  1.00  0.00     0.109 A 
ATOM     13  HN  UNL     1     -39.485 -47.246  12.670  1.00  0.00     0.166 HD
BRANCH  12  14
HETATM   14  N   UNL     1     -41.361 -48.553  11.503  1.00  0.00    -0.267 NA
HETATM   15  C   UNL     1     -41.143 -47.329  10.721  1.00  0.00     0.097 C 
HETATM   16  C   UNL     1     -42.571 -46.958  10.288  1.00  0.00     0.016 C 
HETATM   17  C   UNL     1     -43.484 -47.805  11.185  1.00  0.00     0.016 C 
HETATM   18  C   UNL     1     -42.554 -48.291  12.296  1.00  0.00     0.097 C 
ENDBRANCH  12  14
ENDBRANCH   4   7
BRANCH   3  19
HETATM   19  C   UNL     1     -44.011 -53.416  12.314  1.00  0.00     0.101 C 
HETATM   20  C   UNL     1     -45.090 -52.469  12.900  1.00  0.00     0.041 C 
HETATM   21  C   UNL     1     -45.496 -52.907  14.303  1.00  0.00     0.142 C 
HETATM   22  S   UNL     1     -44.815 -54.517  14.567  1.00  0.00     0.146 S 
HETATM   23  O   UNL     1     -44.254 -54.597  15.898  1.00  0.00    -0.228 OA
HETATM   24  O   UNL     1     -45.766 -55.496  14.068  1.00  0.00    -0.228 OA
HETATM   25  C   UNL     1     -43.510 -54.388  13.381  1.00  0.00     0.165 C 
ENDBRANCH   3  19
TORSDOF 3
ENDMDL
MODEL 5
REMARK VINA RESULT:      -6.1      3.728      7.627
REMARK  3 active torsions:
REMARK  status: ('A' for Active; 'I' for Inactive)
REMARK       I    between atoms: C_2  and  N_3 
REMARK       I    between atoms: C_2  and  N_11 
REMARK    1  A    between atoms: N_3  and  C_4 
REMARK    2  A    between atoms: N_11  and  C_12 
REMARK    3  A    between atoms: C_18  and  N_19 
ROOT
HETATM    1  O   UNL     1     -42.817 -48.913  12.353  1.00  0.00    -0.247 OA
HETATM    2  C   UNL     1     -42.006 -49.084  11.444  1.00  0.00     0.321 C 
HETATM    3  N   UNL     1     -41.052 -50.074  11.547  1.00  0.00    -0.337 N 
HETATM    4  N   UNL     1     -41.957 -48.388  10.259  1.00  0.00    -0.306 N 
HETATM    5  H   UNL     1     -40.306 -50.103  10.866  1.00  0.00     0.164 HD
HETATM    6  H   UNL     1     -41.361 -48.716   9.516  1.00  0.00     0.171 HD
ENDROOT
BRANCH   4   7
HETATM    7  C   UNL     1     -42.884 -47.378   9.870  1.00  0.00     0.075 A 
HETATM    8  C   UNL     1     -44.067 -47.699   9.200  1.00  0.00     0.034 A 
HETATM    9  C   UNL     1     -44.938 -46.694   8.799  1.00  0.00     0.019 A 
HETATM   10  C   UNL     1     -44.597 -45.392   9.093  1.00  0.00     0.089 A 
HETATM   11  N   UNL     1     -43.499 -45.039   9.801  1.00  0.00    -0.355 N 
HETATM   12  C   UNL     1     -42.650 -46.020  10.206  1.00  0.00     0.109 A 
ATOM     13  HN  UNL     1     -43.314 -44.062  10.025  1.00  0.00     0.166 HD
BRANCH  12  14
HETATM   14  N   UNL     1     -41.607 -45.676  11.060  1.00  0.00    -0.267 NA
HETATM   15  C   UNL     1     -41.957 -44.843  12.217  1.00  0.00     0.097 C 
HETATM   16  C   UNL     1     -40.585 -44.573  12.855  1.00  0.00     0.016 C 
HETATM   17  C   UNL     1     -39.568 -44.973  11.778  1.00  0.00     0.016 C 
HETATM   18  C   UNL     1     -40.406 -45.069  10.504  1.00  0.00     0.097 C 
ENDBRANCH  12  14
ENDBRANCH   4   7
BRANCH   3  19
HETATM   19  C   UNL     1     -40.936 -50.877  12.769  1.00  0.00     0.101 C 
HETATM   20  C   UNL     1     -39.596 -50.650  13.515  1.00  0.00     0.041 C 
HETATM   21  C   UNL     1     -38.997 -51.974  13.978  1.00  0.00     0.142 C 
HETATM   22  S   UNL     1     -40.241 -53.213  13.768  1.00  0.00     0.146 S 
HETATM   23  O   UNL     1     -39.651 -54.407  13.205  1.00  0.00    -0.228 OA
HETATM   24  O   UNL     1     -41.052 -53.245  14.974  1.00  0.00    -0.228 OA
HETATM   25  C   UNL     1     -41.170 -52.367  12.524  1.00  0.00     0.165 C 
ENDBRANCH   3  19
TORSDOF 3
ENDMDL
MODEL 6
REMARK VINA RESULT:      -6.1      1.463      3.334
REMARK  3 active torsions:
REMARK  status: ('A' for Active; 'I' for Inactive)
REMARK       I    between atoms: C_2  and  N_3 
REMARK       I    between atoms: C_2  and  N_11 
REMARK    1  A    between atoms: N_3  and  C_4 
REMARK    2  A    between atoms: N_11  and  C_12 
REMARK    3  A    between atoms: C_18  and  N_19 
ROOT
HETATM    1  O   UNL     1     -43.304 -50.088  13.358  1.00  0.00    -0.247 OA
HETATM    2  C   UNL     1     -42.683 -50.574  12.414  1.00  0.00     0.321 C 
HETATM    3  N   UNL     1     -41.949 -49.759  11.578  1.00  0.00    -0.337 N 
HETATM    4  N   UNL     1     -42.604 -51.910  12.097  1.00  0.00    -0.306 N 
HETATM    5  H   UNL     1     -41.571 -50.152  10.726  1.00  0.00     0.164 HD
HETATM    6  H   UNL     1     -41.938 -52.216  11.406  1.00  0.00     0.171 HD
ENDROOT
BRANCH   4   7
HETATM    7  C   UNL     1     -43.196 -52.961  12.854  1.00  0.00     0.075 A 
HETATM    8  C   UNL     1     -44.457 -53.469  12.528  1.00  0.00     0.034 A 
HETATM    9  C   UNL     1     -45.030 -54.469  13.303  1.00  0.00     0.019 A 
HETATM   10  C   UNL     1     -44.312 -54.938  14.380  1.00  0.00     0.089 A 
HETATM   11  N   UNL     1     -43.062 -54.528  14.693  1.00  0.00    -0.355 N 
HETATM   12  C   UNL     1     -42.492 -53.558  13.930  1.00  0.00     0.109 A 
ATOM     13  HN  UNL     1     -42.559 -54.937  15.480  1.00  0.00     0.166 HD
BRANCH  12  14
HETATM   14  N   UNL     1     -41.155 -53.245  14.155  1.00  0.00    -0.267 NA
HETATM   15  C   UNL     1     -40.167 -54.226  13.690  1.00  0.00     0.097 C 
HETATM   16  C   UNL     1     -38.844 -53.624  14.191  1.00  0.00     0.016 C 
HETATM   17  C   UNL     1     -39.263 -52.555  15.210  1.00  0.00     0.016 C 
HETATM   18  C   UNL     1     -40.727 -52.883  15.499  1.00  0.00     0.097 C 
ENDBRANCH  12  14
ENDBRANCH   4   7
BRANCH   3  19
HETATM   19  C   UNL     1     -41.966 -48.303  11.748  1.00  0.00     0.101 C 
HETATM   20  C   UNL     1     -42.886 -47.586  10.726  1.00  0.00     0.041 C 
HETATM   21  C   UNL     1     -42.206 -46.346  10.155  1.00  0.00     0.142 C 
HETATM   22  S   UNL     1     -40.769 -46.037  11.137  1.00  0.00     0.146 S 
HETATM   23  O   UNL     1     -39.657 -45.692  10.280  1.00  0.00    -0.228 OA
HETATM   24  O   UNL     1     -41.164 -45.209  12.265  1.00  0.00    -0.228 OA
HETATM   25  C   UNL     1     -40.567 -47.689  11.735  1.00  0.00     0.165 C 
ENDBRANCH   3  19
TORSDOF 3
ENDMDL
MODEL 7
REMARK VINA RESULT:      -6.0      3.627      7.400
REMARK  3 active torsions:
REMARK  status: ('A' for Active; 'I' for Inactive)
REMARK       I    between atoms: C_2  and  N_3 
REMARK       I    between atoms: C_2  and  N_11 
REMARK    1  A    between atoms: N_3  and  C_4 
REMARK    2  A    between atoms: N_11  and  C_12 
REMARK    3  A    between atoms: C_18  and  N_19 
ROOT
HETATM    1  O   UNL     1     -42.413 -50.960  12.981  1.00  0.00    -0.247 OA
HETATM    2  C   UNL     1     -41.819 -51.423  12.008  1.00  0.00     0.321 C 
HETATM    3  N   UNL     1     -41.941 -52.760  11.697  1.00  0.00    -0.337 N 
HETATM    4  N   UNL     1     -41.032 -50.717  11.128  1.00  0.00    -0.306 N 
HETATM    5  H   UNL     1     -41.333 -53.152  10.990  1.00  0.00     0.164 HD
HETATM    6  H   UNL     1     -40.727 -51.157  10.275  1.00  0.00     0.171 HD
ENDROOT
BRANCH   4   7
HETATM    7  C   UNL     1     -40.818 -49.310  11.177  1.00  0.00     0.075 A 
HETATM    8  C   UNL     1     -41.754 -48.416  10.650  1.00  0.00     0.034 A 
HETATM    9  C   UNL     1     -41.507 -47.049  10.676  1.00  0.00     0.019 A 
HETATM   10  C   UNL     1     -40.327 -46.620  11.242  1.00  0.00     0.089 A 
HETATM   11  N   UNL     1     -39.426 -47.441  11.828  1.00  0.00    -0.355 N 
HETATM   12  C   UNL     1     -39.669 -48.778  11.815  1.00  0.00     0.109 A 
ATOM     13  HN  UNL     1     -38.586 -47.067  12.268  1.00  0.00     0.166 HD
BRANCH  12  14
HETATM   14  N   UNL     1     -38.824 -49.608  12.546  1.00  0.00    -0.267 NA
HETATM   15  C   UNL     1     -38.340 -49.081  13.829  1.00  0.00     0.097 C 
HETATM   16  C   UNL     1     -37.373 -50.182  14.293  1.00  0.00     0.016 C 
HETATM   17  C   UNL     1     -37.130 -51.040  13.044  1.00  0.00     0.016 C 
HETATM   18  C   UNL     1     -37.647 -50.170  11.899  1.00  0.00     0.097 C 
ENDBRANCH  12  14
ENDBRANCH   4   7
BRANCH   3  19
HETATM   19  C   UNL     1     -42.706 -53.664  12.562  1.00  0.00     0.101 C 
HETATM   20  C   UNL     1     -44.231 -53.390  12.522  1.00  0.00     0.041 C 
HETATM   21  C   UNL     1     -44.828 -53.420  13.925  1.00  0.00     0.142 C 
HETATM   22  S   UNL     1     -43.597 -54.085  15.005  1.00  0.00     0.146 S 
HETATM   23  O   UNL     1     -43.557 -53.319  16.231  1.00  0.00    -0.228 OA
HETATM   24  O   UNL     1     -43.729 -55.533  15.000  1.00  0.00    -0.228 OA
HETATM   25  C   UNL     1     -42.199 -53.675  14.003  1.00  0.00     0.165 C 
ENDBRANCH   3  19
TORSDOF 3
ENDMDL
MODEL 8
REMARK VINA RESULT:      -5.9      1.077      1.662
REMARK  3 active torsions:
REMARK  status: ('A' for Active; 'I' for Inactive)
REMARK       I    between atoms: C_2  and  N_3 
REMARK       I    between atoms: C_2  and  N_11 
REMARK    1  A    between atoms: N_3  and  C_4 
REMARK    2  A    between atoms: N_11  and  C_12 
REMARK    3  A    between atoms: C_18  and  N_19 
ROOT
HETATM    1  O   UNL     1     -41.752 -49.643  13.294  1.00  0.00    -0.247 OA
HETATM    2  C   UNL     1     -41.952 -50.134  12.183  1.00  0.00     0.321 C 
HETATM    3  N   UNL     1     -41.986 -49.326  11.067  1.00  0.00    -0.337 N 
HETATM    4  N   UNL     1     -42.121 -51.471  11.907  1.00  0.00    -0.306 N 
HETATM    5  H   UNL     1     -42.298 -49.721  10.191  1.00  0.00     0.164 HD
HETATM    6  H   UNL     1     -42.112 -51.782  10.948  1.00  0.00     0.171 HD
ENDROOT
BRANCH   4   7
HETATM    7  C   UNL     1     -42.039 -52.517  12.870  1.00  0.00     0.075 A 
HETATM    8  C   UNL     1     -40.811 -53.080  13.227  1.00  0.00     0.034 A 
HETATM    9  C   UNL     1     -40.760 -54.124  14.141  1.00  0.00     0.019 A 
HETATM   10  C   UNL     1     -41.949 -54.567  14.678  1.00  0.00     0.089 A 
HETATM   11  N   UNL     1     -43.152 -54.007  14.417  1.00  0.00    -0.355 N 
HETATM   12  C   UNL     1     -43.206 -52.977  13.532  1.00  0.00     0.109 A 
ATOM     13  HN  UNL     1     -43.998 -54.349  14.873  1.00  0.00     0.166 HD
BRANCH  12  14
HETATM   14  N   UNL     1     -44.414 -52.304  13.378  1.00  0.00    -0.267 NA
HETATM   15  C   UNL     1     -45.107 -51.915  14.612  1.00  0.00     0.097 C 
HETATM   16  C   UNL     1     -46.417 -51.314  14.078  1.00  0.00     0.016 C 
HETATM   17  C   UNL     1     -46.486 -51.767  12.613  1.00  0.00     0.016 C 
HETATM   18  C   UNL     1     -45.445 -52.883  12.529  1.00  0.00     0.097 C 
ENDBRANCH  12  14
ENDBRANCH   4   7
BRANCH   3  19
HETATM   19  C   UNL     1     -41.871 -47.869  11.194  1.00  0.00     0.101 C 
HETATM   20  C   UNL     1     -40.496 -47.419  11.751  1.00  0.00     0.041 C 
HETATM   21  C   UNL     1     -40.665 -46.332  12.807  1.00  0.00     0.142 C 
HETATM   22  S   UNL     1     -42.345 -45.785  12.733  1.00  0.00     0.146 S 
HETATM   23  O   UNL     1     -42.867 -45.627  14.072  1.00  0.00    -0.228 OA
HETATM   24  O   UNL     1     -42.430 -44.727  11.739  1.00  0.00    -0.228 OA
HETATM   25  C   UNL     1     -43.009 -47.253  12.005  1.00  0.00     0.165 C 
ENDBRANCH   3  19
TORSDOF 3
ENDMDL
MODEL 9
REMARK VINA RESULT:      -5.8      1.906      3.649
REMARK  3 active torsions:
REMARK  status: ('A' for Active; 'I' for Inactive)
REMARK       I    between atoms: C_2  and  N_3 
REMARK       I    between atoms: C_2  and  N_11 
REMARK    1  A    between atoms: N_3  and  C_4 
REMARK    2  A    between atoms: N_11  and  C_12 
REMARK    3  A    between atoms: C_18  and  N_19 
ROOT
HETATM    1  O   UNL     1     -42.535 -49.503  13.400  1.00  0.00    -0.247 OA
HETATM    2  C   UNL     1     -42.283 -49.974  12.291  1.00  0.00     0.321 C 
HETATM    3  N   UNL     1     -42.252 -49.154  11.183  1.00  0.00    -0.337 N 
HETATM    4  N   UNL     1     -41.979 -51.287  12.019  1.00  0.00    -0.306 N 
HETATM    5  H   UNL     1     -42.193 -49.577  10.267  1.00  0.00     0.164 HD
HETATM    6  H   UNL     1     -41.628 -51.535  11.107  1.00  0.00     0.171 HD
ENDROOT
BRANCH   4   7
HETATM    7  C   UNL     1     -41.858 -52.314  12.999  1.00  0.00     0.075 A 
HETATM    8  C   UNL     1     -42.744 -53.393  13.032  1.00  0.00     0.034 A 
HETATM    9  C   UNL     1     -42.629 -54.364  14.019  1.00  0.00     0.019 A 
HETATM   10  C   UNL     1     -41.615 -54.224  14.941  1.00  0.00     0.089 A 
HETATM   11  N   UNL     1     -40.692 -53.237  14.907  1.00  0.00    -0.355 N 
HETATM   12  C   UNL     1     -40.794 -52.292  13.935  1.00  0.00     0.109 A 
ATOM     13  HN  UNL     1     -39.937 -53.202  15.592  1.00  0.00     0.166 HD
BRANCH  12  14
HETATM   14  N   UNL     1     -39.762 -51.366  13.806  1.00  0.00    -0.267 NA
HETATM   15  C   UNL     1     -38.427 -51.910  13.528  1.00  0.00     0.097 C 
HETATM   16  C   UNL     1     -37.546 -50.651  13.562  1.00  0.00     0.016 C 
HETATM   17  C   UNL     1     -38.421 -49.579  14.225  1.00  0.00     0.016 C 
HETATM   18  C   UNL     1     -39.559 -50.379  14.858  1.00  0.00     0.097 C 
ENDBRANCH  12  14
ENDBRANCH   4   7
BRANCH   3  19
HETATM   19  C   UNL     1     -42.600 -47.733  11.294  1.00  0.00     0.101 C 
HETATM   20  C   UNL     1     -43.542 -47.253  10.160  1.00  0.00     0.041 C 
HETATM   21  C   UNL     1     -43.091 -45.905   9.609  1.00  0.00     0.142 C 
HETATM   22  S   UNL     1     -41.864 -45.271  10.714  1.00  0.00     0.146 S 
HETATM   23  O   UNL     1     -40.770 -44.706   9.957  1.00  0.00    -0.228 OA
HETATM   24  O   UNL     1     -42.544 -44.530  11.764  1.00  0.00    -0.228 OA
HETATM   25  C   UNL     1     -41.374 -46.828  11.394  1.00  0.00     0.165 C 
ENDBRANCH   3  19
TORSDOF 3
ENDMDL
