MODEL 1
REMARK VINA RESULT:      -6.7      0.000      0.000
REMARK  5 active torsions:
REMARK  status: ('A' for Active; 'I' for Inactive)
REMARK    1  A    between atoms: C_2  and  C_4 
REMARK    2  A    between atoms: C_4  and  N_5 
REMARK    3  A    between atoms: C_9  and  C_10 
REMARK    4  A    between atoms: C_10  and  N_11 
REMARK       I    between atoms: N_11  and  C_12 
REMARK       I    between atoms: C_12  and  N_14 
REMARK    5  A    between atoms: N_14  and  C_15 
ROOT
HETATM    1  N   UNL     1     -40.793 -49.405  10.469  1.00  0.00    -0.340 N 
HETATM    2  C   UNL     1     -41.640 -48.322  10.529  1.00  0.00     0.320 C 
HETATM    3  O   UNL     1     -41.647 -47.559  11.488  1.00  0.00    -0.247 OA
HETATM    4  N   UNL     1     -42.463 -48.239   9.430  1.00  0.00    -0.306 N 
HETATM    5  H   UNL     1     -40.999 -50.146   9.816  1.00  0.00     0.164 HD
HETATM    6  H   UNL     1     -42.439 -48.973   8.741  1.00  0.00     0.171 HD
ENDROOT
BRANCH   1   7
HETATM    7  C   UNL     1     -40.043 -49.805  11.648  1.00  0.00     0.158 C 
BRANCH   7   8
HETATM    8  C   UNL     1     -40.800 -50.827  12.515  1.00  0.00     0.167 C 
HETATM    9  O   UNL     1     -39.880 -51.345  13.503  1.00  0.00    -0.381 OA
HETATM   10  C   UNL     1     -40.541 -52.274  14.374  1.00  0.00     0.198 C 
HETATM   11  C   UNL     1     -41.218 -53.421  13.599  1.00  0.00     0.298 C 
HETATM   12  N   UNL     1     -42.132 -52.978  12.521  1.00  0.00     0.093 N 
HETATM   13  C   UNL     1     -41.404 -51.989  11.694  1.00  0.00     0.305 C 
BRANCH  12  14
HETATM   14  C   UNL     1     -43.419 -52.494  13.048  1.00  0.00     0.276 C 
BRANCH  14  15
HETATM   15  C   UNL     1     -44.660 -53.302  12.595  1.00  0.00     0.006 C 
HETATM   16  C   UNL     1     -44.925 -54.521  13.481  1.00  0.00     0.011 C 
HETATM   17  C   UNL     1     -45.899 -52.402  12.576  1.00  0.00     0.011 C 
ENDBRANCH  14  15
ENDBRANCH  12  14
ENDBRANCH   7   8
ENDBRANCH   1   7
BRANCH   4  18
HETATM   18  C   UNL     1     -43.408 -47.244   9.277  1.00  0.00     0.070 A 
HETATM   19  C   UNL     1     -43.283 -45.833   9.299  1.00  0.00     0.138 A 
HETATM   20  N   UNL     1     -44.454 -45.217   9.113  1.00  0.00    -0.310 N 
HETATM   21  N   UNL     1     -45.324 -46.227   8.982  1.00  0.00    -0.310 N 
ATOM     22  HN  UNL     1     -44.642 -44.215   9.078  1.00  0.00     0.186 HD
HETATM   23  C   UNL     1     -44.747 -47.465   9.060  1.00  0.00     0.138 A 
HETATM   24  H   UNL     1     -46.301 -45.997   8.844  1.00  0.00     0.186 HD
ENDBRANCH   4  18
TORSDOF 5
ENDMDL
MODEL 2
REMARK VINA RESULT:      -6.2      1.998      2.930
REMARK  5 active torsions:
REMARK  status: ('A' for Active; 'I' for Inactive)
REMARK    1  A    between atoms: C_2  and  C_4 
REMARK    2  A    between atoms: C_4  and  N_5 
REMARK    3  A    between atoms: C_9  and  C_10 
REMARK    4  A    between atoms: C_10  and  N_11 
REMARK       I    between atoms: N_11  and  C_12 
REMARK       I    between atoms: C_12  and  N_14 
REMARK    5  A    between atoms: N_14  and  C_15 
ROOT
HETATM    1  N   UNL     1     -41.119 -51.492  11.383  1.00  0.00    -0.340 N 
HETATM    2  C   UNL     1     -41.173 -50.183  11.804  1.00  0.00     0.320 C 
HETATM    3  O   UNL     1     -40.741 -49.837  12.897  1.00  0.00    -0.247 OA
HETATM    4  N   UNL     1     -41.781 -49.362  10.884  1.00  0.00    -0.306 N 
HETATM    5  H   UNL     1     -41.713 -51.782  10.621  1.00  0.00     0.164 HD
HETATM    6  H   UNL     1     -42.184 -49.766  10.054  1.00  0.00     0.171 HD
ENDROOT
BRANCH   1   7
HETATM    7  C   UNL     1     -40.755 -52.541  12.323  1.00  0.00     0.158 C 
BRANCH   7   8
HETATM    8  C   UNL     1     -41.920 -52.940  13.245  1.00  0.00     0.167 C 
HETATM    9  O   UNL     1     -41.668 -54.280  13.729  1.00  0.00    -0.381 OA
HETATM   10  C   UNL     1     -42.701 -54.695  14.634  1.00  0.00     0.198 C 
HETATM   11  C   UNL     1     -44.105 -54.592  14.006  1.00  0.00     0.298 C 
HETATM   12  N   UNL     1     -44.423 -53.268  13.426  1.00  0.00     0.093 N 
HETATM   13  C   UNL     1     -43.297 -52.882  12.544  1.00  0.00     0.305 C 
BRANCH  12  14
HETATM   14  C   UNL     1     -44.748 -52.272  14.461  1.00  0.00     0.276 C 
BRANCH  14  15
HETATM   15  C   UNL     1     -45.970 -51.373  14.146  1.00  0.00     0.006 C 
HETATM   16  C   UNL     1     -46.594 -51.682  12.784  1.00  0.00     0.011 C 
HETATM   17  C   UNL     1     -47.030 -51.519  15.242  1.00  0.00     0.011 C 
ENDBRANCH  14  15
ENDBRANCH  12  14
ENDBRANCH   7   8
ENDBRANCH   1   7
BRANCH   4  18
HETATM   18  C   UNL     1     -41.964 -48.009  11.094  1.00  0.00     0.070 A 
HETATM   19  C   UNL     1     -43.071 -47.291  11.606  1.00  0.00     0.138 A 
HETATM   20  N   UNL     1     -42.847 -45.973  11.647  1.00  0.00    -0.310 N 
HETATM   21  N   UNL     1     -41.607 -45.850  11.154  1.00  0.00    -0.310 N 
ATOM     22  HN  UNL     1     -43.472 -45.237  11.975  1.00  0.00     0.186 HD
HETATM   23  C   UNL     1     -41.027 -47.042  10.819  1.00  0.00     0.138 A 
HETATM   24  H   UNL     1     -41.220 -44.917  11.072  1.00  0.00     0.186 HD
ENDBRANCH   4  18
TORSDOF 5
ENDMDL
MODEL 3
REMARK VINA RESULT:      -6.1      2.861      4.699
REMARK  5 active torsions:
REMARK  status: ('A' for Active; 'I' for Inactive)
REMARK    1  A    between atoms: C_2  and  C_4 
REMARK    2  A    between atoms: C_4  and  N_5 
REMARK    3  A    between atoms: C_9  and  C_10 
REMARK    4  A    between atoms: C_10  and  N_11 
REMARK       I    between atoms: N_11  and  C_12 
REMARK       I    between atoms: C_12  and  N_14 
REMARK    5  A    between atoms: N_14  and  C_15 
ROOT
HETATM    1  N   UNL     1     -40.908 -49.370  10.516  1.00  0.00    -0.340 N 
HETATM    2  C   UNL     1     -42.019 -48.564  10.603  1.00  0.00     0.320 C 
HETATM    3  O   UNL     1     -42.700 -48.508  11.620  1.00  0.00    -0.247 OA
HETATM    4  N   UNL     1     -42.268 -47.886   9.433  1.00  0.00    -0.306 N 
HETATM    5  H   UNL     1     -40.542 -49.596   9.603  1.00  0.00     0.164 HD
HETATM    6  H   UNL     1     -41.697 -48.075   8.624  1.00  0.00     0.171 HD
ENDROOT
BRANCH   1   7
HETATM    7  C   UNL     1     -40.644 -50.355  11.554  1.00  0.00     0.158 C 
BRANCH   7   8
HETATM    8  C   UNL     1     -39.404 -50.009  12.397  1.00  0.00     0.167 C 
HETATM    9  O   UNL     1     -38.462 -51.100  12.275  1.00  0.00    -0.381 OA
HETATM   10  C   UNL     1     -37.261 -50.817  13.006  1.00  0.00     0.198 C 
HETATM   11  C   UNL     1     -37.540 -50.493  14.487  1.00  0.00     0.298 C 
HETATM   12  N   UNL     1     -38.544 -49.427  14.704  1.00  0.00     0.093 N 
HETATM   13  C   UNL     1     -39.733 -49.758  13.886  1.00  0.00     0.305 C 
BRANCH  12  14
HETATM   14  C   UNL     1     -37.993 -48.086  14.453  1.00  0.00     0.276 C 
BRANCH  14  15
HETATM   15  C   UNL     1     -38.932 -46.910  14.822  1.00  0.00     0.006 C 
HETATM   16  C   UNL     1     -38.735 -46.428  16.261  1.00  0.00     0.011 C 
HETATM   17  C   UNL     1     -38.720 -45.741  13.855  1.00  0.00     0.011 C 
ENDBRANCH  14  15
ENDBRANCH  12  14
ENDBRANCH   7   8
ENDBRANCH   1   7
BRANCH   4  18
HETATM   18  C   UNL     1     -43.339 -47.028   9.277  1.00  0.00     0.070 A 
HETATM   19  C   UNL     1     -44.677 -47.277   8.884  1.00  0.00     0.138 A 
HETATM   20  N   UNL     1     -45.412 -46.161   8.852  1.00  0.00    -0.310 N 
HETATM   21  N   UNL     1     -44.547 -45.204   9.213  1.00  0.00    -0.310 N 
ATOM     22  HN  UNL     1     -46.398 -46.061   8.611  1.00  0.00     0.186 HD
HETATM   23  C   UNL     1     -43.292 -45.672   9.492  1.00  0.00     0.138 A 
HETATM   24  H   UNL     1     -44.882 -44.248   9.246  1.00  0.00     0.186 HD
ENDBRANCH   4  18
TORSDOF 5
ENDMDL
MODEL 4
REMARK VINA RESULT:      -6.0      2.716      6.718
REMARK  5 active torsions:
REMARK  status: ('A' for Active; 'I' for Inactive)
REMARK    1  A    between atoms: C_2  and  C_4 
REMARK    2  A    between atoms: C_4  and  N_5 
REMARK    3  A    between atoms: C_9  and  C_10 
REMARK    4  A    between atoms: C_10  and  N_11 
REMARK       I    between atoms: N_11  and  C_12 
REMARK       I    between atoms: C_12  and  N_14 
REMARK    5  A    between atoms: N_14  and  C_15 
ROOT
HETATM    1  N   UNL     1     -42.249 -52.255  11.737  1.00  0.00    -0.340 N 
HETATM    2  C   UNL     1     -43.067 -52.715  12.742  1.00  0.00     0.320 C 
HETATM    3  O   UNL     1     -42.661 -52.862  13.890  1.00  0.00    -0.247 OA
HETATM    4  N   UNL     1     -44.335 -53.006  12.296  1.00  0.00    -0.306 N 
HETATM    5  H   UNL     1     -42.528 -52.404  10.778  1.00  0.00     0.164 HD
HETATM    6  H   UNL     1     -44.538 -52.936  11.312  1.00  0.00     0.171 HD
ENDROOT
BRANCH   1   7
HETATM    7  C   UNL     1     -40.816 -52.149  11.959  1.00  0.00     0.158 C 
BRANCH   7   8
HETATM    8  C   UNL     1     -40.290 -50.716  11.762  1.00  0.00     0.167 C 
HETATM    9  O   UNL     1     -38.890 -50.700  12.124  1.00  0.00    -0.381 OA
HETATM   10  C   UNL     1     -38.328 -49.396  11.919  1.00  0.00     0.198 C 
HETATM   11  C   UNL     1     -39.104 -48.299  12.674  1.00  0.00     0.298 C 
HETATM   12  N   UNL     1     -40.561 -48.285  12.409  1.00  0.00     0.093 N 
HETATM   13  C   UNL     1     -41.063 -49.666  12.592  1.00  0.00     0.305 C 
BRANCH  12  14
HETATM   14  C   UNL     1     -40.881 -47.694  11.099  1.00  0.00     0.276 C 
BRANCH  14  15
HETATM   15  C   UNL     1     -41.072 -46.157  11.101  1.00  0.00     0.006 C 
HETATM   16  C   UNL     1     -39.922 -45.420  10.412  1.00  0.00     0.011 C 
HETATM   17  C   UNL     1     -42.397 -45.787  10.427  1.00  0.00     0.011 C 
ENDBRANCH  14  15
ENDBRANCH  12  14
ENDBRANCH   7   8
ENDBRANCH   1   7
BRANCH   4  18
HETATM   18  C   UNL     1     -45.326 -53.498  13.123  1.00  0.00     0.070 A 
HETATM   19  C   UNL     1     -45.520 -54.788  13.672  1.00  0.00     0.138 A 
HETATM   20  N   UNL     1     -46.619 -54.857  14.429  1.00  0.00    -0.310 N 
HETATM   21  N   UNL     1     -47.129 -53.620  14.357  1.00  0.00    -0.310 N 
ATOM     22  HN  UNL     1     -46.984 -55.660  14.942  1.00  0.00     0.186 HD
HETATM   23  C   UNL     1     -46.385 -52.761  13.596  1.00  0.00     0.138 A 
HETATM   24  H   UNL     1     -47.993 -53.433  14.852  1.00  0.00     0.186 HD
ENDBRANCH   4  18
TORSDOF 5
ENDMDL
MODEL 5
REMARK VINA RESULT:      -6.0      1.631      3.101
REMARK  5 active torsions:
REMARK  status: ('A' for Active; 'I' for Inactive)
REMARK    1  A    between atoms: C_2  and  C_4 
REMARK    2  A    between atoms: C_4  and  N_5 
REMARK    3  A    between atoms: C_9  and  C_10 
REMARK    4  A    between atoms: C_10  and  N_11 
REMARK       I    between atoms: N_11  and  C_12 
REMARK       I    between atoms: C_12  and  N_14 
REMARK    5  A    between atoms: N_14  and  C_15 
ROOT
HETATM    1  N   UNL     1     -40.756 -49.305  10.435  1.00  0.00    -0.340 N 
HETATM    2  C   UNL     1     -41.643 -48.258  10.531  1.00  0.00     0.320 C 
HETATM    3  O   UNL     1     -41.633 -47.487  11.483  1.00  0.00    -0.247 OA
HETATM    4  N   UNL     1     -42.525 -48.220   9.476  1.00  0.00    -0.306 N 
HETATM    5  H   UNL     1     -40.963 -50.061   9.799  1.00  0.00     0.164 HD
HETATM    6  H   UNL     1     -42.505 -48.959   8.792  1.00  0.00     0.171 HD
ENDROOT
BRANCH   1   7
HETATM    7  C   UNL     1     -39.929 -49.662  11.577  1.00  0.00     0.158 C 
BRANCH   7   8
HETATM    8  C   UNL     1     -40.364 -50.984  12.233  1.00  0.00     0.167 C 
HETATM    9  O   UNL     1     -41.730 -51.251  11.838  1.00  0.00    -0.381 OA
HETATM   10  C   UNL     1     -42.181 -52.499  12.384  1.00  0.00     0.198 C 
HETATM   11  C   UNL     1     -42.031 -52.554  13.917  1.00  0.00     0.298 C 
HETATM   12  N   UNL     1     -40.675 -52.229  14.414  1.00  0.00     0.093 N 
HETATM   13  C   UNL     1     -40.255 -50.961  13.775  1.00  0.00     0.305 C 
BRANCH  12  14
HETATM   14  C   UNL     1     -39.732 -53.343  14.222  1.00  0.00     0.276 C 
BRANCH  14  15
HETATM   15  C   UNL     1     -38.972 -53.787  15.497  1.00  0.00     0.006 C 
HETATM   16  C   UNL     1     -39.654 -53.317  16.783  1.00  0.00     0.011 C 
HETATM   17  C   UNL     1     -38.825 -55.312  15.521  1.00  0.00     0.011 C 
ENDBRANCH  14  15
ENDBRANCH  12  14
ENDBRANCH   7   8
ENDBRANCH   1   7
BRANCH   4  18
HETATM   18  C   UNL     1     -43.518 -47.267   9.365  1.00  0.00     0.070 A 
HETATM   19  C   UNL     1     -43.447 -45.882   9.076  1.00  0.00     0.138 A 
HETATM   20  N   UNL     1     -44.652 -45.304   9.064  1.00  0.00    -0.310 N 
HETATM   21  N   UNL     1     -45.487 -46.311   9.352  1.00  0.00    -0.310 N 
ATOM     22  HN  UNL     1     -44.882 -44.328   8.878  1.00  0.00     0.186 HD
HETATM   23  C   UNL     1     -44.860 -47.513   9.529  1.00  0.00     0.138 A 
HETATM   24  H   UNL     1     -46.477 -46.104   9.414  1.00  0.00     0.186 HD
ENDBRANCH   4  18
TORSDOF 5
ENDMDL
MODEL 6
REMARK VINA RESULT:      -6.0      1.675      2.393
REMARK  5 active torsions:
REMARK  status: ('A' for Active; 'I' for Inactive)
REMARK    1  A    between atoms: C_2  and  C_4 
REMARK    2  A    between atoms: C_4  and  N_5 
REMARK    3  A    between atoms: C_9  and  C_10 
REMARK    4  A    between atoms: C_10  and  N_11 
REMARK       I    between atoms: N_11  and  C_12 
REMARK       I    between atoms: C_12  and  N_14 
REMARK    5  A    between atoms: N_14  and  C_15 
ROOT
HETATM    1  N   UNL     1     -40.428 -47.166  10.639  1.00  0.00    -0.340 N 
HETATM    2  C   UNL     1     -41.742 -46.761  10.607  1.00  0.00     0.320 C 
HETATM    3  O   UNL     1     -42.283 -46.242  11.576  1.00  0.00    -0.247 OA
HETATM    4  N   UNL     1     -42.345 -47.036   9.402  1.00  0.00    -0.306 N 
HETATM    5  H   UNL     1     -40.104 -47.820   9.942  1.00  0.00     0.164 HD
HETATM    6  H   UNL     1     -41.835 -47.550   8.702  1.00  0.00     0.171 HD
ENDROOT
BRANCH   1   7
HETATM    7  C   UNL     1     -39.711 -47.201  11.904  1.00  0.00     0.158 C 
BRANCH   7   8
HETATM    8  C   UNL     1     -39.748 -48.588  12.569  1.00  0.00     0.167 C 
HETATM    9  O   UNL     1     -38.608 -48.690  13.454  1.00  0.00    -0.381 OA
HETATM   10  C   UNL     1     -38.610 -49.950  14.141  1.00  0.00     0.198 C 
HETATM   11  C   UNL     1     -38.662 -51.145  13.169  1.00  0.00     0.298 C 
HETATM   12  N   UNL     1     -39.765 -51.088  12.184  1.00  0.00     0.093 N 
HETATM   13  C   UNL     1     -39.732 -49.750  11.550  1.00  0.00     0.305 C 
BRANCH  12  14
HETATM   14  C   UNL     1     -41.063 -51.442  12.782  1.00  0.00     0.276 C 
BRANCH  14  15
HETATM   15  C   UNL     1     -41.656 -52.794  12.313  1.00  0.00     0.006 C 
HETATM   16  C   UNL     1     -41.049 -53.990  13.047  1.00  0.00     0.011 C 
HETATM   17  C   UNL     1     -43.177 -52.796  12.496  1.00  0.00     0.011 C 
ENDBRANCH  14  15
ENDBRANCH  12  14
ENDBRANCH   7   8
ENDBRANCH   1   7
BRANCH   4  18
HETATM   18  C   UNL     1     -43.668 -46.733   9.141  1.00  0.00     0.070 A 
HETATM   19  C   UNL     1     -44.324 -45.487   9.000  1.00  0.00     0.138 A 
HETATM   20  N   UNL     1     -45.630 -45.626   8.751  1.00  0.00    -0.310 N 
HETATM   21  N   UNL     1     -45.809 -46.954   8.743  1.00  0.00    -0.310 N 
ATOM     22  HN  UNL     1     -46.326 -44.895   8.602  1.00  0.00     0.186 HD
HETATM   23  C   UNL     1     -44.661 -47.666   8.959  1.00  0.00     0.138 A 
HETATM   24  H   UNL     1     -46.746 -47.306   8.585  1.00  0.00     0.186 HD
ENDBRANCH   4  18
TORSDOF 5
ENDMDL
MODEL 7
REMARK VINA RESULT:      -5.9      2.730      4.697
REMARK  5 active torsions:
REMARK  status: ('A' for Active; 'I' for Inactive)
REMARK    1  A    between atoms: C_2  and  C_4 
REMARK    2  A    between atoms: C_4  and  N_5 
REMARK    3  A    between atoms: C_9  and  C_10 
REMARK    4  A    between atoms: C_10  and  N_11 
REMARK       I    between atoms: N_11  and  C_12 
REMARK       I    between atoms: C_12  and  N_14 
REMARK    5  A    between atoms: N_14  and  C_15 
ROOT
HETATM    1  N   UNL     1     -41.691 -49.322  11.103  1.00  0.00    -0.340 N 
HETATM    2  C   UNL     1     -42.678 -48.369  11.013  1.00  0.00     0.320 C 
HETATM    3  O   UNL     1     -43.140 -47.820  12.006  1.00  0.00    -0.247 OA
HETATM    4  N   UNL     1     -43.081 -48.153   9.716  1.00  0.00    -0.306 N 
HETATM    5  H   UNL     1     -41.533 -49.935  10.316  1.00  0.00     0.164 HD
HETATM    6  H   UNL     1     -42.700 -48.726   8.980  1.00  0.00     0.171 HD
ENDROOT
BRANCH   1   7
HETATM    7  C   UNL     1     -41.329 -49.871  12.400  1.00  0.00     0.158 C 
BRANCH   7   8
HETATM    8  C   UNL     1     -39.813 -49.826  12.661  1.00  0.00     0.167 C 
HETATM    9  O   UNL     1     -39.136 -50.066  11.405  1.00  0.00    -0.381 OA
HETATM   10  C   UNL     1     -37.713 -49.992  11.573  1.00  0.00     0.198 C 
HETATM   11  C   UNL     1     -37.203 -50.952  12.666  1.00  0.00     0.298 C 
HETATM   12  N   UNL     1     -37.889 -50.817  13.971  1.00  0.00     0.093 N 
HETATM   13  C   UNL     1     -39.347 -50.854  13.717  1.00  0.00     0.305 C 
BRANCH  12  14
HETATM   14  C   UNL     1     -37.435 -49.632  14.717  1.00  0.00     0.276 C 
BRANCH  14  15
HETATM   15  C   UNL     1     -37.078 -49.888  16.203  1.00  0.00     0.006 C 
HETATM   16  C   UNL     1     -37.688 -51.184  16.740  1.00  0.00     0.011 C 
HETATM   17  C   UNL     1     -35.557 -49.922  16.383  1.00  0.00     0.011 C 
ENDBRANCH  14  15
ENDBRANCH  12  14
ENDBRANCH   7   8
ENDBRANCH   1   7
BRANCH   4  18
HETATM   18  C   UNL     1     -44.072 -47.251   9.380  1.00  0.00     0.070 A 
HETATM   19  C   UNL     1     -45.464 -47.431   9.189  1.00  0.00     0.138 A 
HETATM   20  N   UNL     1     -46.083 -46.292   8.863  1.00  0.00    -0.310 N 
HETATM   21  N   UNL     1     -45.091 -45.391   8.837  1.00  0.00    -0.310 N 
ATOM     22  HN  UNL     1     -47.075 -46.143   8.678  1.00  0.00     0.186 HD
HETATM   23  C   UNL     1     -43.866 -45.912   9.152  1.00  0.00     0.138 A 
HETATM   24  H   UNL     1     -45.323 -44.436   8.593  1.00  0.00     0.186 HD
ENDBRANCH   4  18
TORSDOF 5
ENDMDL
MODEL 8
REMARK VINA RESULT:      -5.7      1.866      2.113
REMARK  5 active torsions:
REMARK  status: ('A' for Active; 'I' for Inactive)
REMARK    1  A    between atoms: C_2  and  C_4 
REMARK    2  A    between atoms: C_4  and  N_5 
REMARK    3  A    between atoms: C_9  and  C_10 
REMARK    4  A    between atoms: C_10  and  N_11 
REMARK       I    between atoms: N_11  and  C_12 
REMARK       I    between atoms: C_12  and  N_14 
REMARK    5  A    between atoms: N_14  and  C_15 
ROOT
HETATM    1  N   UNL     1     -39.593 -49.849  11.162  1.00  0.00    -0.340 N 
HETATM    2  C   UNL     1     -40.023 -48.602  11.551  1.00  0.00     0.320 C 
HETATM    3  O   UNL     1     -39.665 -48.095  12.607  1.00  0.00    -0.247 OA
HETATM    4  N   UNL     1     -40.896 -48.043  10.647  1.00  0.00    -0.306 N 
HETATM    5  H   UNL     1     -40.107 -50.338  10.443  1.00  0.00     0.164 HD
HETATM    6  H   UNL     1     -41.197 -48.585   9.853  1.00  0.00     0.171 HD
ENDROOT
BRANCH   1   7
HETATM    7  C   UNL     1     -38.882 -50.698  12.105  1.00  0.00     0.158 C 
BRANCH   7   8
HETATM    8  C   UNL     1     -39.822 -51.642  12.877  1.00  0.00     0.167 C 
HETATM    9  O   UNL     1     -39.059 -52.805  13.273  1.00  0.00    -0.381 OA
HETATM   10  C   UNL     1     -39.870 -53.707  14.039  1.00  0.00     0.198 C 
HETATM   11  C   UNL     1     -41.152 -54.120  13.289  1.00  0.00     0.298 C 
HETATM   12  N   UNL     1     -41.963 -52.986  12.790  1.00  0.00     0.093 N 
HETATM   13  C   UNL     1     -41.057 -52.075  12.054  1.00  0.00     0.305 C 
BRANCH  12  14
HETATM   14  C   UNL     1     -42.730 -52.336  13.866  1.00  0.00     0.276 C 
BRANCH  14  15
HETATM   15  C   UNL     1     -44.268 -52.491  13.763  1.00  0.00     0.006 C 
HETATM   16  C   UNL     1     -45.001 -51.149  13.815  1.00  0.00     0.011 C 
HETATM   17  C   UNL     1     -44.640 -53.230  12.474  1.00  0.00     0.011 C 
ENDBRANCH  14  15
ENDBRANCH  12  14
ENDBRANCH   7   8
ENDBRANCH   1   7
BRANCH   4  18
HETATM   18  C   UNL     1     -41.472 -46.802  10.832  1.00  0.00     0.070 A 
HETATM   19  C   UNL     1     -40.971 -45.500  10.588  1.00  0.00     0.138 A 
HETATM   20  N   UNL     1     -41.852 -44.548  10.909  1.00  0.00    -0.310 N 
HETATM   21  N   UNL     1     -42.908 -45.237  11.365  1.00  0.00    -0.310 N 
ATOM     22  HN  UNL     1     -41.747 -43.537  10.827  1.00  0.00     0.186 HD
HETATM   23  C   UNL     1     -42.737 -46.593  11.328  1.00  0.00     0.138 A 
HETATM   24  H   UNL     1     -43.712 -44.713  11.688  1.00  0.00     0.186 HD
ENDBRANCH   4  18
TORSDOF 5
ENDMDL
MODEL 9
REMARK VINA RESULT:      -5.6     18.624     20.914
REMARK  5 active torsions:
REMARK  status: ('A' for Active; 'I' for Inactive)
REMARK    1  A    between atoms: C_2  and  C_4 
REMARK    2  A    between atoms: C_4  and  N_5 
REMARK    3  A    between atoms: C_9  and  C_10 
REMARK    4  A    between atoms: C_10  and  N_11 
REMARK       I    between atoms: N_11  and  C_12 
REMARK       I    between atoms: C_12  and  N_14 
REMARK    5  A    between atoms: N_14  and  C_15 
ROOT
HETATM    1  N   UNL     1     -30.902 -50.923  -5.671  1.00  0.00    -0.340 N 
HETATM    2  C   UNL     1     -30.483 -52.095  -5.085  1.00  0.00     0.320 C 
HETATM    3  O   UNL     1     -31.217 -52.752  -4.356  1.00  0.00    -0.247 OA
HETATM    4  N   UNL     1     -29.177 -52.397  -5.391  1.00  0.00    -0.306 N 
HETATM    5  H   UNL     1     -30.207 -50.285  -6.030  1.00  0.00     0.164 HD
HETATM    6  H   UNL     1     -28.633 -51.740  -5.926  1.00  0.00     0.171 HD
ENDROOT
BRANCH   1   7
HETATM    7  C   UNL     1     -32.153 -50.311  -5.254  1.00  0.00     0.158 C 
BRANCH   7   8
HETATM    8  C   UNL     1     -32.006 -48.810  -4.948  1.00  0.00     0.167 C 
HETATM    9  O   UNL     1     -30.596 -48.519  -4.807  1.00  0.00    -0.381 OA
HETATM   10  C   UNL     1     -30.388 -47.120  -4.564  1.00  0.00     0.198 C 
HETATM   11  C   UNL     1     -31.180 -46.616  -3.341  1.00  0.00     0.298 C 
HETATM   12  N   UNL     1     -32.627 -46.929  -3.374  1.00  0.00     0.093 N 
HETATM   13  C   UNL     1     -32.767 -48.372  -3.676  1.00  0.00     0.305 C 
BRANCH  12  14
HETATM   14  C   UNL     1     -33.365 -46.045  -4.292  1.00  0.00     0.276 C 
BRANCH  14  15
HETATM   15  C   UNL     1     -34.878 -45.901  -3.990  1.00  0.00     0.006 C 
HETATM   16  C   UNL     1     -35.263 -44.478  -3.581  1.00  0.00     0.011 C 
HETATM   17  C   UNL     1     -35.703 -46.327  -5.208  1.00  0.00     0.011 C 
ENDBRANCH  14  15
ENDBRANCH  12  14
ENDBRANCH   7   8
ENDBRANCH   1   7
BRANCH   4  18
HETATM   18  C   UNL     1     -28.534 -53.518  -4.903  1.00  0.00     0.070 A 
HETATM   19  C   UNL     1     -28.778 -54.895  -5.120  1.00  0.00     0.138 A 
HETATM   20  N   UNL     1     -27.921 -55.674  -4.452  1.00  0.00    -0.310 N 
HETATM   21  N   UNL     1     -27.139 -54.799  -3.805  1.00  0.00    -0.310 N 
ATOM     22  HN  UNL     1     -27.872 -56.693  -4.439  1.00  0.00     0.186 HD
HETATM   23  C   UNL     1     -27.456 -53.491  -4.051  1.00  0.00     0.138 A 
HETATM   24  H   UNL     1     -26.408 -55.166  -3.208  1.00  0.00     0.186 HD
ENDBRANCH   4  18
TORSDOF 5
ENDMDL
