MODEL 1
REMARK VINA RESULT:      -6.3      0.000      0.000
REMARK  6 active torsions:
REMARK  status: ('A' for Active; 'I' for Inactive)
REMARK    1  A    between atoms: C_2  and  C_4 
REMARK    2  A    between atoms: C_4  and  O_5 
REMARK    3  A    between atoms: O_5  and  C_6 
REMARK    4  A    between atoms: C_6  and  C_8 
REMARK       I    between atoms: C_8  and  N_10 
REMARK    5  A    between atoms: N_10  and  C_11 
REMARK    6  A    between atoms: C_13  and  C_18 
ROOT
HETATM    1  C   UNL     1     -43.116 -47.153  10.215  1.00  0.00     0.104 A 
HETATM    2  C   UNL     1     -44.220 -47.869   9.932  1.00  0.00     0.052 A 
HETATM    3  C   UNL     1     -45.365 -47.302   9.241  1.00  0.00     0.065 A 
HETATM    4  C   UNL     1     -45.330 -46.002   8.900  1.00  0.00     0.107 A 
HETATM    5  N   UNL     1     -44.235 -45.227   9.195  1.00  0.00    -0.331 N 
HETATM    6  C   UNL     1     -43.106 -45.694   9.830  1.00  0.00     0.272 A 
HETATM    7  O   UNL     1     -42.137 -44.977  10.062  1.00  0.00    -0.266 OA
HETATM    8  H   UNL     1     -44.213 -44.252   8.921  1.00  0.00     0.168 HD
ENDROOT
BRANCH   1   9
HETATM    9  N   UNL     1     -41.992 -47.641  10.849  1.00  0.00    -0.320 N 
HETATM   10  C   UNL     1     -41.857 -47.913  12.195  1.00  0.00     0.251 C 
HETATM   11  O   UNL     1     -42.783 -47.886  13.006  1.00  0.00    -0.270 OA
HETATM   12  H   UNL     1     -41.206 -47.897  10.251  1.00  0.00     0.169 HD
BRANCH  10  13
HETATM   13  C   UNL     1     -40.436 -48.330  12.623  1.00  0.00     0.209 C 
HETATM   14  C   UNL     1     -39.599 -47.058  12.756  1.00  0.00     0.050 C 
BRANCH  13  15
HETATM   15  O   UNL     1     -39.859 -49.251  11.692  1.00  0.00    -0.377 OA
BRANCH  15  16
HETATM   16  C   UNL     1     -39.558 -50.524  12.270  1.00  0.00     0.172 C 
BRANCH  16  17
HETATM   17  C   UNL     1     -38.040 -50.727  12.311  1.00  0.00     0.001 C 
HETATM   18  C   UNL     1     -37.371 -49.906  11.209  1.00  0.00     0.011 C 
HETATM   19  C   UNL     1     -37.466 -50.357  13.678  1.00  0.00     0.011 C 
ENDBRANCH  16  17
ENDBRANCH  15  16
ENDBRANCH  13  15
ENDBRANCH  10  13
ENDBRANCH   1   9
BRANCH   3  20
HETATM   20  C   UNL     1     -46.535 -48.188   8.914  1.00  0.00     0.418 C 
HETATM   21  F   UNL     1     -46.665 -49.247   9.752  1.00  0.00    -0.166 F 
HETATM   22  F   UNL     1     -47.708 -47.504   8.967  1.00  0.00    -0.166 F 
HETATM   23  F   UNL     1     -46.438 -48.693   7.657  1.00  0.00    -0.166 F 
ENDBRANCH   3  20
TORSDOF 6
ENDMDL
MODEL 2
REMARK VINA RESULT:      -6.2      5.069      7.024
REMARK  6 active torsions:
REMARK  status: ('A' for Active; 'I' for Inactive)
REMARK    1  A    between atoms: C_2  and  C_4 
REMARK    2  A    between atoms: C_4  and  O_5 
REMARK    3  A    between atoms: O_5  and  C_6 
REMARK    4  A    between atoms: C_6  and  C_8 
REMARK       I    between atoms: C_8  and  N_10 
REMARK    5  A    between atoms: N_10  and  C_11 
REMARK    6  A    between atoms: C_13  and  C_18 
ROOT
HETATM    1  C   UNL     1     -42.269 -51.572  12.913  1.00  0.00     0.104 A 
HETATM    2  C   UNL     1     -42.723 -50.312  12.783  1.00  0.00     0.052 A 
HETATM    3  C   UNL     1     -42.079 -49.333  11.925  1.00  0.00     0.065 A 
HETATM    4  C   UNL     1     -40.967 -49.693  11.261  1.00  0.00     0.107 A 
HETATM    5  N   UNL     1     -40.453 -50.960  11.388  1.00  0.00    -0.331 N 
HETATM    6  C   UNL     1     -41.014 -51.948  12.166  1.00  0.00     0.272 A 
HETATM    7  O   UNL     1     -40.537 -53.077  12.241  1.00  0.00    -0.266 OA
HETATM    8  H   UNL     1     -39.622 -51.226  10.872  1.00  0.00     0.168 HD
ENDROOT
BRANCH   1   9
HETATM    9  N   UNL     1     -42.849 -52.549  13.696  1.00  0.00    -0.320 N 
HETATM   10  C   UNL     1     -43.804 -53.464  13.301  1.00  0.00     0.251 C 
HETATM   11  O   UNL     1     -44.174 -53.623  12.138  1.00  0.00    -0.270 OA
HETATM   12  H   UNL     1     -42.481 -52.653  14.641  1.00  0.00     0.169 HD
BRANCH  10  13
HETATM   13  C   UNL     1     -44.350 -54.349  14.438  1.00  0.00     0.209 C 
HETATM   14  C   UNL     1     -45.346 -55.333  13.824  1.00  0.00     0.050 C 
BRANCH  13  15
HETATM   15  O   UNL     1     -44.950 -53.561  15.470  1.00  0.00    -0.377 OA
BRANCH  15  16
HETATM   16  C   UNL     1     -46.356 -53.370  15.291  1.00  0.00     0.172 C 
BRANCH  16  17
HETATM   17  C   UNL     1     -46.649 -51.886  15.047  1.00  0.00     0.001 C 
HETATM   18  C   UNL     1     -45.550 -51.025  15.668  1.00  0.00     0.011 C 
HETATM   19  C   UNL     1     -46.788 -51.583  13.555  1.00  0.00     0.011 C 
ENDBRANCH  16  17
ENDBRANCH  15  16
ENDBRANCH  13  15
ENDBRANCH  10  13
ENDBRANCH   1   9
BRANCH   3  20
HETATM   20  C   UNL     1     -42.685 -47.963  11.793  1.00  0.00     0.418 C 
HETATM   21  F   UNL     1     -41.841 -47.045  11.257  1.00  0.00    -0.166 F 
HETATM   22  F   UNL     1     -43.791 -47.981  11.004  1.00  0.00    -0.166 F 
HETATM   23  F   UNL     1     -43.077 -47.476  12.999  1.00  0.00    -0.166 F 
ENDBRANCH   3  20
TORSDOF 6
ENDMDL
MODEL 3
REMARK VINA RESULT:      -6.0      3.995      6.694
REMARK  6 active torsions:
REMARK  status: ('A' for Active; 'I' for Inactive)
REMARK    1  A    between atoms: C_2  and  C_4 
REMARK    2  A    between atoms: C_4  and  O_5 
REMARK    3  A    between atoms: O_5  and  C_6 
REMARK    4  A    between atoms: C_6  and  C_8 
REMARK       I    between atoms: C_8  and  N_10 
REMARK    5  A    between atoms: N_10  and  C_11 
REMARK    6  A    between atoms: C_13  and  C_18 
ROOT
HETATM    1  C   UNL     1     -41.936 -51.918  12.233  1.00  0.00     0.104 A 
HETATM    2  C   UNL     1     -43.199 -52.332  12.442  1.00  0.00     0.052 A 
HETATM    3  C   UNL     1     -43.512 -53.547  13.175  1.00  0.00     0.065 A 
HETATM    4  C   UNL     1     -42.499 -54.301  13.634  1.00  0.00     0.107 A 
HETATM    5  N   UNL     1     -41.194 -53.930  13.418  1.00  0.00    -0.331 N 
HETATM    6  C   UNL     1     -40.815 -52.787  12.749  1.00  0.00     0.272 A 
HETATM    7  O   UNL     1     -39.638 -52.477  12.590  1.00  0.00    -0.266 OA
HETATM    8  H   UNL     1     -40.437 -54.498  13.780  1.00  0.00     0.168 HD
ENDROOT
BRANCH   1   9
HETATM    9  N   UNL     1     -41.577 -50.766  11.563  1.00  0.00    -0.320 N 
HETATM   10  C   UNL     1     -41.555 -49.486  12.077  1.00  0.00     0.251 C 
HETATM   11  O   UNL     1     -41.724 -49.211  13.264  1.00  0.00    -0.270 OA
HETATM   12  H   UNL     1     -41.222 -50.884  10.614  1.00  0.00     0.169 HD
BRANCH  10  13
HETATM   13  C   UNL     1     -41.231 -48.389  11.044  1.00  0.00     0.209 C 
HETATM   14  C   UNL     1     -41.060 -47.072  11.803  1.00  0.00     0.050 C 
BRANCH  13  15
HETATM   15  O   UNL     1     -42.249 -48.296  10.043  1.00  0.00    -0.377 OA
BRANCH  15  16
HETATM   16  C   UNL     1     -43.417 -47.601  10.488  1.00  0.00     0.172 C 
BRANCH  16  17
HETATM   17  C   UNL     1     -44.232 -47.133   9.277  1.00  0.00     0.001 C 
HETATM   18  C   UNL     1     -43.624 -47.688   7.990  1.00  0.00     0.011 C 
HETATM   19  C   UNL     1     -45.698 -47.545   9.399  1.00  0.00     0.011 C 
ENDBRANCH  16  17
ENDBRANCH  15  16
ENDBRANCH  13  15
ENDBRANCH  10  13
ENDBRANCH   1   9
BRANCH   3  20
HETATM   20  C   UNL     1     -44.954 -53.907  13.413  1.00  0.00     0.418 C 
HETATM   21  F   UNL     1     -45.213 -55.231  13.267  1.00  0.00    -0.166 F 
HETATM   22  F   UNL     1     -45.351 -53.569  14.667  1.00  0.00    -0.166 F 
HETATM   23  F   UNL     1     -45.776 -53.250  12.555  1.00  0.00    -0.166 F 
ENDBRANCH   3  20
TORSDOF 6
ENDMDL
MODEL 4
REMARK VINA RESULT:      -6.0      3.354      5.069
REMARK  6 active torsions:
REMARK  status: ('A' for Active; 'I' for Inactive)
REMARK    1  A    between atoms: C_2  and  C_4 
REMARK    2  A    between atoms: C_4  and  O_5 
REMARK    3  A    between atoms: O_5  and  C_6 
REMARK    4  A    between atoms: C_6  and  C_8 
REMARK       I    between atoms: C_8  and  N_10 
REMARK    5  A    between atoms: N_10  and  C_11 
REMARK    6  A    between atoms: C_13  and  C_18 
ROOT
HETATM    1  C   UNL     1     -41.915 -48.660  11.196  1.00  0.00     0.104 A 
HETATM    2  C   UNL     1     -42.857 -47.953  10.547  1.00  0.00     0.052 A 
HETATM    3  C   UNL     1     -42.586 -46.659   9.944  1.00  0.00     0.065 A 
HETATM    4  C   UNL     1     -41.354 -46.136  10.069  1.00  0.00     0.107 A 
HETATM    5  N   UNL     1     -40.371 -46.812  10.749  1.00  0.00    -0.331 N 
HETATM    6  C   UNL     1     -40.542 -48.048  11.332  1.00  0.00     0.272 A 
HETATM    7  O   UNL     1     -39.635 -48.632  11.917  1.00  0.00    -0.266 OA
HETATM    8  H   UNL     1     -39.441 -46.415  10.826  1.00  0.00     0.168 HD
ENDROOT
BRANCH   1   9
HETATM    9  N   UNL     1     -42.106 -49.901  11.770  1.00  0.00    -0.320 N 
HETATM   10  C   UNL     1     -42.621 -50.159  13.024  1.00  0.00     0.251 C 
HETATM   11  O   UNL     1     -43.117 -49.307  13.761  1.00  0.00    -0.270 OA
HETATM   12  H   UNL     1     -41.917 -50.710  11.179  1.00  0.00     0.169 HD
BRANCH  10  13
HETATM   13  C   UNL     1     -42.594 -51.645  13.432  1.00  0.00     0.209 C 
HETATM   14  C   UNL     1     -42.296 -52.467  12.177  1.00  0.00     0.050 C 
BRANCH  13  15
HETATM   15  O   UNL     1     -43.824 -52.041  14.046  1.00  0.00    -0.377 OA
BRANCH  15  16
HETATM   16  C   UNL     1     -44.813 -52.469  13.105  1.00  0.00     0.172 C 
BRANCH  16  17
HETATM   17  C   UNL     1     -45.966 -51.461  13.074  1.00  0.00     0.001 C 
HETATM   18  C   UNL     1     -46.911 -51.781  11.917  1.00  0.00     0.011 C 
HETATM   19  C   UNL     1     -46.728 -51.445  14.399  1.00  0.00     0.011 C 
ENDBRANCH  16  17
ENDBRANCH  15  16
ENDBRANCH  13  15
ENDBRANCH  10  13
ENDBRANCH   1   9
BRANCH   3  20
HETATM   20  C   UNL     1     -43.683 -45.960   9.187  1.00  0.00     0.418 C 
HETATM   21  F   UNL     1     -43.841 -44.659   9.538  1.00  0.00    -0.166 F 
HETATM   22  F   UNL     1     -43.452 -45.977   7.848  1.00  0.00    -0.166 F 
HETATM   23  F   UNL     1     -44.882 -46.566   9.381  1.00  0.00    -0.166 F 
ENDBRANCH   3  20
TORSDOF 6
ENDMDL
MODEL 5
REMARK VINA RESULT:      -6.0      1.223      2.151
REMARK  6 active torsions:
REMARK  status: ('A' for Active; 'I' for Inactive)
REMARK    1  A    between atoms: C_2  and  C_4 
REMARK    2  A    between atoms: C_4  and  O_5 
REMARK    3  A    between atoms: O_5  and  C_6 
REMARK    4  A    between atoms: C_6  and  C_8 
REMARK       I    between atoms: C_8  and  N_10 
REMARK    5  A    between atoms: N_10  and  C_11 
REMARK    6  A    between atoms: C_13  and  C_18 
ROOT
HETATM    1  C   UNL     1     -42.902 -47.487   9.709  1.00  0.00     0.104 A 
HETATM    2  C   UNL     1     -44.080 -48.102   9.497  1.00  0.00     0.052 A 
HETATM    3  C   UNL     1     -45.284 -47.378   9.125  1.00  0.00     0.065 A 
HETATM    4  C   UNL     1     -45.223 -46.039   9.021  1.00  0.00     0.107 A 
HETATM    5  N   UNL     1     -44.048 -45.369   9.257  1.00  0.00    -0.331 N 
HETATM    6  C   UNL     1     -42.862 -45.982   9.596  1.00  0.00     0.272 A 
HETATM    7  O   UNL     1     -41.825 -45.353   9.782  1.00  0.00    -0.266 OA
HETATM    8  H   UNL     1     -44.010 -44.361   9.162  1.00  0.00     0.168 HD
ENDROOT
BRANCH   1   9
HETATM    9  N   UNL     1     -41.723 -48.121  10.044  1.00  0.00    -0.320 N 
HETATM   10  C   UNL     1     -41.485 -48.879  11.172  1.00  0.00     0.251 C 
HETATM   11  O   UNL     1     -42.351 -49.212  11.980  1.00  0.00    -0.270 OA
HETATM   12  H   UNL     1     -40.975 -48.086   9.351  1.00  0.00     0.169 HD
BRANCH  10  13
HETATM   13  C   UNL     1     -40.027 -49.352  11.328  1.00  0.00     0.209 C 
HETATM   14  C   UNL     1     -40.017 -50.502  12.336  1.00  0.00     0.050 C 
BRANCH  13  15
HETATM   15  O   UNL     1     -39.170 -48.281  11.736  1.00  0.00    -0.377 OA
BRANCH  15  16
HETATM   16  C   UNL     1     -39.096 -48.126  13.155  1.00  0.00     0.172 C 
BRANCH  16  17
HETATM   17  C   UNL     1     -39.089 -46.636  13.512  1.00  0.00     0.001 C 
HETATM   18  C   UNL     1     -40.379 -45.975  13.030  1.00  0.00     0.011 C 
HETATM   19  C   UNL     1     -38.908 -46.424  15.015  1.00  0.00     0.011 C 
ENDBRANCH  16  17
ENDBRANCH  15  16
ENDBRANCH  13  15
ENDBRANCH  10  13
ENDBRANCH   1   9
BRANCH   3  20
HETATM   20  C   UNL     1     -46.546 -48.150   8.851  1.00  0.00     0.418 C 
HETATM   21  F   UNL     1     -46.740 -49.192   9.698  1.00  0.00    -0.166 F 
HETATM   22  F   UNL     1     -47.645 -47.358   8.950  1.00  0.00    -0.166 F 
HETATM   23  F   UNL     1     -46.549 -48.662   7.593  1.00  0.00    -0.166 F 
ENDBRANCH   3  20
TORSDOF 6
ENDMDL
MODEL 6
REMARK VINA RESULT:      -5.9      5.556      6.720
REMARK  6 active torsions:
REMARK  status: ('A' for Active; 'I' for Inactive)
REMARK    1  A    between atoms: C_2  and  C_4 
REMARK    2  A    between atoms: C_4  and  O_5 
REMARK    3  A    between atoms: O_5  and  C_6 
REMARK    4  A    between atoms: C_6  and  C_8 
REMARK       I    between atoms: C_8  and  N_10 
REMARK    5  A    between atoms: N_10  and  C_11 
REMARK    6  A    between atoms: C_13  and  C_18 
ROOT
HETATM    1  C   UNL     1     -43.207 -53.537  14.352  1.00  0.00     0.104 A 
HETATM    2  C   UNL     1     -43.966 -52.566  13.811  1.00  0.00     0.052 A 
HETATM    3  C   UNL     1     -45.396 -52.716  13.603  1.00  0.00     0.065 A 
HETATM    4  C   UNL     1     -45.976 -53.883  13.935  1.00  0.00     0.107 A 
HETATM    5  N   UNL     1     -45.233 -54.910  14.463  1.00  0.00    -0.331 N 
HETATM    6  C   UNL     1     -43.879 -54.841  14.707  1.00  0.00     0.272 A 
HETATM    7  O   UNL     1     -43.250 -55.774  15.197  1.00  0.00    -0.266 OA
HETATM    8  H   UNL     1     -45.682 -55.781  14.722  1.00  0.00     0.168 HD
ENDROOT
BRANCH   1   9
HETATM    9  N   UNL     1     -41.852 -53.446  14.592  1.00  0.00    -0.320 N 
HETATM   10  C   UNL     1     -40.836 -53.866  13.759  1.00  0.00     0.251 C 
HETATM   11  O   UNL     1     -41.002 -54.262  12.605  1.00  0.00    -0.270 OA
HETATM   12  H   UNL     1     -41.572 -52.951  15.439  1.00  0.00     0.169 HD
BRANCH  10  13
HETATM   13  C   UNL     1     -39.422 -53.744  14.362  1.00  0.00     0.209 C 
HETATM   14  C   UNL     1     -39.558 -53.085  15.735  1.00  0.00     0.050 C 
BRANCH  13  15
HETATM   15  O   UNL     1     -38.550 -53.005  13.503  1.00  0.00    -0.377 OA
BRANCH  15  16
HETATM   16  C   UNL     1     -38.880 -51.616  13.421  1.00  0.00     0.172 C 
BRANCH  16  17
HETATM   17  C   UNL     1     -37.598 -50.788  13.281  1.00  0.00     0.001 C 
HETATM   18  C   UNL     1     -37.657 -49.939  12.012  1.00  0.00     0.011 C 
HETATM   19  C   UNL     1     -37.369 -49.904  14.507  1.00  0.00     0.011 C 
ENDBRANCH  16  17
ENDBRANCH  15  16
ENDBRANCH  13  15
ENDBRANCH  10  13
ENDBRANCH   1   9
BRANCH   3  20
HETATM   20  C   UNL     1     -46.179 -51.559  13.045  1.00  0.00     0.418 C 
HETATM   21  F   UNL     1     -46.898 -51.874  11.938  1.00  0.00    -0.166 F 
HETATM   22  F   UNL     1     -47.061 -51.070  13.955  1.00  0.00    -0.166 F 
HETATM   23  F   UNL     1     -45.364 -50.529  12.702  1.00  0.00    -0.166 F 
ENDBRANCH   3  20
TORSDOF 6
ENDMDL
MODEL 7
REMARK VINA RESULT:      -5.9      2.292      3.091
REMARK  6 active torsions:
REMARK  status: ('A' for Active; 'I' for Inactive)
REMARK    1  A    between atoms: C_2  and  C_4 
REMARK    2  A    between atoms: C_4  and  O_5 
REMARK    3  A    between atoms: O_5  and  C_6 
REMARK    4  A    between atoms: C_6  and  C_8 
REMARK       I    between atoms: C_8  and  N_10 
REMARK    5  A    between atoms: N_10  and  C_11 
REMARK    6  A    between atoms: C_13  and  C_18 
ROOT
HETATM    1  C   UNL     1     -41.302 -47.839  10.694  1.00  0.00     0.104 A 
HETATM    2  C   UNL     1     -42.532 -48.031  10.186  1.00  0.00     0.052 A 
HETATM    3  C   UNL     1     -43.377 -46.933   9.748  1.00  0.00     0.065 A 
HETATM    4  C   UNL     1     -42.922 -45.676   9.887  1.00  0.00     0.107 A 
HETATM    5  N   UNL     1     -41.683 -45.434  10.427  1.00  0.00    -0.331 N 
HETATM    6  C   UNL     1     -40.817 -46.419  10.849  1.00  0.00     0.272 A 
HETATM    7  O   UNL     1     -39.708 -46.166  11.312  1.00  0.00    -0.266 OA
HETATM    8  H   UNL     1     -41.343 -44.483  10.515  1.00  0.00     0.168 HD
ENDROOT
BRANCH   1   9
HETATM    9  N   UNL     1     -40.447 -48.841  11.107  1.00  0.00    -0.320 N 
HETATM   10  C   UNL     1     -40.236 -49.263  12.404  1.00  0.00     0.251 C 
HETATM   11  O   UNL     1     -40.897 -48.888  13.372  1.00  0.00    -0.270 OA
HETATM   12  H   UNL     1     -39.980 -49.372  10.372  1.00  0.00     0.169 HD
BRANCH  10  13
HETATM   13  C   UNL     1     -39.124 -50.319  12.559  1.00  0.00     0.209 C 
HETATM   14  C   UNL     1     -37.997 -49.952  11.592  1.00  0.00     0.050 C 
BRANCH  13  15
HETATM   15  O   UNL     1     -39.620 -51.639  12.321  1.00  0.00    -0.377 OA
BRANCH  15  16
HETATM   16  C   UNL     1     -40.129 -52.272  13.498  1.00  0.00     0.172 C 
BRANCH  16  17
HETATM   17  C   UNL     1     -40.340 -53.766  13.231  1.00  0.00     0.001 C 
HETATM   18  C   UNL     1     -39.341 -54.590  14.041  1.00  0.00     0.011 C 
HETATM   19  C   UNL     1     -41.772 -54.193  13.552  1.00  0.00     0.011 C 
ENDBRANCH  16  17
ENDBRANCH  15  16
ENDBRANCH  13  15
ENDBRANCH  10  13
ENDBRANCH   1   9
BRANCH   3  20
HETATM   20  C   UNL     1     -44.718 -47.239   9.138  1.00  0.00     0.418 C 
HETATM   21  F   UNL     1     -45.429 -46.132   8.805  1.00  0.00    -0.166 F 
HETATM   22  F   UNL     1     -44.593 -47.976   8.003  1.00  0.00    -0.166 F 
HETATM   23  F   UNL     1     -45.495 -47.962   9.986  1.00  0.00    -0.166 F 
ENDBRANCH   3  20
TORSDOF 6
ENDMDL
MODEL 8
REMARK VINA RESULT:      -5.8      3.562      4.877
REMARK  6 active torsions:
REMARK  status: ('A' for Active; 'I' for Inactive)
REMARK    1  A    between atoms: C_2  and  C_4 
REMARK    2  A    between atoms: C_4  and  O_5 
REMARK    3  A    between atoms: O_5  and  C_6 
REMARK    4  A    between atoms: C_6  and  C_8 
REMARK       I    between atoms: C_8  and  N_10 
REMARK    5  A    between atoms: N_10  and  C_11 
REMARK    6  A    between atoms: C_13  and  C_18 
ROOT
HETATM    1  C   UNL     1     -42.791 -50.817  12.849  1.00  0.00     0.104 A 
HETATM    2  C   UNL     1     -44.070 -50.761  13.264  1.00  0.00     0.052 A 
HETATM    3  C   UNL     1     -44.982 -51.886  13.140  1.00  0.00     0.065 A 
HETATM    4  C   UNL     1     -44.537 -53.014  12.559  1.00  0.00     0.107 A 
HETATM    5  N   UNL     1     -43.247 -53.103  12.096  1.00  0.00    -0.331 N 
HETATM    6  C   UNL     1     -42.319 -52.090  12.191  1.00  0.00     0.272 A 
HETATM    7  O   UNL     1     -41.168 -52.212  11.782  1.00  0.00    -0.266 OA
HETATM    8  H   UNL     1     -42.918 -53.962  11.671  1.00  0.00     0.168 HD
ENDROOT
BRANCH   1   9
HETATM    9  N   UNL     1     -41.875 -49.791  12.958  1.00  0.00    -0.320 N 
HETATM   10  C   UNL     1     -41.702 -48.742  12.079  1.00  0.00     0.251 C 
HETATM   11  O   UNL     1     -42.448 -48.500  11.132  1.00  0.00    -0.270 OA
HETATM   12  H   UNL     1     -41.319 -49.767  13.814  1.00  0.00     0.169 HD
BRANCH  10  13
HETATM   13  C   UNL     1     -40.509 -47.823  12.408  1.00  0.00     0.209 C 
HETATM   14  C   UNL     1     -40.750 -46.482  11.714  1.00  0.00     0.050 C 
BRANCH  13  15
HETATM   15  O   UNL     1     -39.269 -48.413  12.007  1.00  0.00    -0.377 OA
BRANCH  15  16
HETATM   16  C   UNL     1     -38.431 -48.771  13.109  1.00  0.00     0.172 C 
BRANCH  16  17
HETATM   17  C   UNL     1     -37.526 -49.942  12.711  1.00  0.00     0.001 C 
HETATM   18  C   UNL     1     -38.071 -51.247  13.290  1.00  0.00     0.011 C 
HETATM   19  C   UNL     1     -37.387 -50.047  11.192  1.00  0.00     0.011 C 
ENDBRANCH  16  17
ENDBRANCH  15  16
ENDBRANCH  13  15
ENDBRANCH  10  13
ENDBRANCH   1   9
BRANCH   3  20
HETATM   20  C   UNL     1     -46.379 -51.758  13.682  1.00  0.00     0.418 C 
HETATM   21  F   UNL     1     -46.939 -52.946  14.025  1.00  0.00    -0.166 F 
HETATM   22  F   UNL     1     -46.414 -50.977  14.792  1.00  0.00    -0.166 F 
HETATM   23  F   UNL     1     -47.211 -51.181  12.776  1.00  0.00    -0.166 F 
ENDBRANCH   3  20
TORSDOF 6
ENDMDL
MODEL 9
REMARK VINA RESULT:      -5.8      2.245      3.217
REMARK  6 active torsions:
REMARK  status: ('A' for Active; 'I' for Inactive)
REMARK    1  A    between atoms: C_2  and  C_4 
REMARK    2  A    between atoms: C_4  and  O_5 
REMARK    3  A    between atoms: O_5  and  C_6 
REMARK    4  A    between atoms: C_6  and  C_8 
REMARK       I    between atoms: C_8  and  N_10 
REMARK    5  A    between atoms: N_10  and  C_11 
REMARK    6  A    between atoms: C_13  and  C_18 
ROOT
HETATM    1  C   UNL     1     -41.352 -48.424  10.894  1.00  0.00     0.104 A 
HETATM    2  C   UNL     1     -42.426 -48.036  10.181  1.00  0.00     0.052 A 
HETATM    3  C   UNL     1     -42.693 -46.644   9.865  1.00  0.00     0.065 A 
HETATM    4  C   UNL     1     -41.850 -45.705  10.330  1.00  0.00     0.107 A 
HETATM    5  N   UNL     1     -40.758 -46.056  11.086  1.00  0.00    -0.331 N 
HETATM    6  C   UNL     1     -40.427 -47.351  11.414  1.00  0.00     0.272 A 
HETATM    7  O   UNL     1     -39.432 -47.629  12.076  1.00  0.00    -0.266 OA
HETATM    8  H   UNL     1     -40.121 -45.342  11.421  1.00  0.00     0.168 HD
ENDROOT
BRANCH   1   9
HETATM    9  N   UNL     1     -41.036 -49.730  11.208  1.00  0.00    -0.320 N 
HETATM   10  C   UNL     1     -41.625 -50.510  12.182  1.00  0.00     0.251 C 
HETATM   11  O   UNL     1     -42.624 -50.185  12.823  1.00  0.00    -0.270 OA
HETATM   12  H   UNL     1     -40.348 -50.188  10.610  1.00  0.00     0.169 HD
BRANCH  10  13
HETATM   13  C   UNL     1     -40.967 -51.890  12.380  1.00  0.00     0.209 C 
HETATM   14  C   UNL     1     -41.397 -52.418  13.749  1.00  0.00     0.050 C 
BRANCH  13  15
HETATM   15  O   UNL     1     -39.543 -51.811  12.265  1.00  0.00    -0.377 OA
BRANCH  15  16
HETATM   16  C   UNL     1     -38.881 -51.665  13.524  1.00  0.00     0.172 C 
BRANCH  16  17
HETATM   17  C   UNL     1     -37.582 -50.874  13.336  1.00  0.00     0.001 C 
HETATM   18  C   UNL     1     -37.409 -50.491  11.868  1.00  0.00     0.011 C 
HETATM   19  C   UNL     1     -37.555 -49.629  14.222  1.00  0.00     0.011 C 
ENDBRANCH  16  17
ENDBRANCH  15  16
ENDBRANCH  13  15
ENDBRANCH  10  13
ENDBRANCH   1   9
BRANCH   3  20
HETATM   20  C   UNL     1     -43.885 -46.302   9.014  1.00  0.00     0.418 C 
HETATM   21  F   UNL     1     -44.106 -44.968   8.900  1.00  0.00    -0.166 F 
HETATM   22  F   UNL     1     -43.750 -46.783   7.751  1.00  0.00    -0.166 F 
HETATM   23  F   UNL     1     -45.024 -46.845   9.516  1.00  0.00    -0.166 F 
ENDBRANCH   3  20
TORSDOF 6
ENDMDL
