MODEL 1
REMARK VINA RESULT:      -6.3      0.000      0.000
REMARK  5 active torsions:
REMARK  status: ('A' for Active; 'I' for Inactive)
REMARK    1  A    between atoms: N_4  and  S_9 
REMARK    2  A    between atoms: S_9  and  N_12 
REMARK    3  A    between atoms: N_12  and  C_13 
REMARK    4  A    between atoms: C_13  and  C_14 
REMARK    5  A    between atoms: C_14  and  C_15 
ROOT
HETATM    1  S   UNL     1     -40.133 -52.950  13.478  1.00  0.00     0.281 S 
HETATM    2  O   UNL     1     -39.014 -53.847  13.616  1.00  0.00    -0.194 OA
HETATM    3  O   UNL     1     -40.806 -52.380  14.617  1.00  0.00    -0.194 OA
ENDROOT
BRANCH   1   4
HETATM    4  N   UNL     1     -39.676 -51.674  12.463  1.00  0.00    -0.193 NA
HETATM    5  C   UNL     1     -38.615 -50.844  13.137  1.00  0.00     0.140 C 
HETATM    6  C   UNL     1     -38.177 -49.662  12.264  1.00  0.00     0.132 C 
HETATM    7  C   UNL     1     -37.323 -50.084  11.072  1.00  0.00     0.041 C 
HETATM    8  O   UNL     1     -39.298 -48.861  11.859  1.00  0.00    -0.379 OA
HETATM    9  C   UNL     1     -40.315 -49.619  11.187  1.00  0.00     0.132 C 
HETATM   10  C   UNL     1     -40.817 -50.787  12.054  1.00  0.00     0.140 C 
HETATM   11  C   UNL     1     -41.460 -48.661  10.881  1.00  0.00     0.041 C 
ENDBRANCH   1   4
BRANCH   1  12
HETATM   12  N   UNL     1     -41.255 -53.722  12.488  1.00  0.00    -0.206 NA
HETATM   13  H   UNL     1     -40.858 -54.635  12.266  1.00  0.00     0.140 HD
BRANCH  12  14
HETATM   14  C   UNL     1     -42.607 -53.910  13.095  1.00  0.00     0.110 C 
BRANCH  14  15
HETATM   15  C   UNL     1     -43.708 -53.116  12.388  1.00  0.00     0.055 C 
BRANCH  15  16
HETATM   16  C   UNL     1     -44.945 -52.988  13.232  1.00  0.00    -0.042 A 
HETATM   17  C   UNL     1     -45.478 -51.729  13.526  1.00  0.00     0.010 A 
HETATM   18  C   UNL     1     -46.629 -51.633  14.301  1.00  0.00     0.018 A 
HETATM   19  C   UNL     1     -47.203 -52.804  14.761  1.00  0.00     0.087 A 
HETATM   20  N   UNL     1     -46.713 -54.036  14.505  1.00  0.00    -0.375 N 
HETATM   21  C   UNL     1     -45.598 -54.101  13.742  1.00  0.00     0.094 A 
ATOM     22  HN  UNL     1     -47.162 -54.876  14.868  1.00  0.00     0.164 HD
ENDBRANCH  15  16
ENDBRANCH  14  15
ENDBRANCH  12  14
ENDBRANCH   1  12
TORSDOF 5
ENDMDL
MODEL 2
REMARK VINA RESULT:      -5.9      2.947      6.757
REMARK  5 active torsions:
REMARK  status: ('A' for Active; 'I' for Inactive)
REMARK    1  A    between atoms: N_4  and  S_9 
REMARK    2  A    between atoms: S_9  and  N_12 
REMARK    3  A    between atoms: N_12  and  C_13 
REMARK    4  A    between atoms: C_13  and  C_14 
REMARK    5  A    between atoms: C_14  and  C_15 
ROOT
HETATM    1  S   UNL     1     -42.136 -51.631  13.192  1.00  0.00     0.281 S 
HETATM    2  O   UNL     1     -42.089 -50.815  14.378  1.00  0.00    -0.194 OA
HETATM    3  O   UNL     1     -41.250 -52.750  12.994  1.00  0.00    -0.194 OA
ENDROOT
BRANCH   1   4
HETATM    4  N   UNL     1     -43.721 -52.193  12.991  1.00  0.00    -0.193 NA
HETATM    5  C   UNL     1     -44.677 -51.298  13.735  1.00  0.00     0.140 C 
HETATM    6  C   UNL     1     -46.127 -51.774  13.599  1.00  0.00     0.132 C 
HETATM    7  C   UNL     1     -46.711 -51.520  12.212  1.00  0.00     0.041 C 
HETATM    8  O   UNL     1     -46.272 -53.146  13.995  1.00  0.00    -0.379 OA
HETATM    9  C   UNL     1     -45.394 -54.031  13.282  1.00  0.00     0.132 C 
HETATM   10  C   UNL     1     -43.921 -53.614  13.438  1.00  0.00     0.140 C 
HETATM   11  C   UNL     1     -45.608 -55.429  13.850  1.00  0.00     0.041 C 
ENDBRANCH   1   4
BRANCH   1  12
HETATM   12  N   UNL     1     -42.029 -50.586  11.878  1.00  0.00    -0.206 NA
HETATM   13  H   UNL     1     -42.904 -50.686  11.362  1.00  0.00     0.140 HD
BRANCH  12  14
HETATM   14  C   UNL     1     -41.831 -49.147  12.230  1.00  0.00     0.110 C 
BRANCH  14  15
HETATM   15  C   UNL     1     -43.119 -48.323  12.176  1.00  0.00     0.055 C 
BRANCH  15  16
HETATM   16  C   UNL     1     -43.284 -47.616  10.860  1.00  0.00    -0.042 A 
HETATM   17  C   UNL     1     -44.499 -47.670  10.171  1.00  0.00     0.010 A 
HETATM   18  C   UNL     1     -44.634 -47.002   8.959  1.00  0.00     0.018 A 
HETATM   19  C   UNL     1     -43.541 -46.305   8.475  1.00  0.00     0.087 A 
HETATM   20  N   UNL     1     -42.350 -46.237   9.108  1.00  0.00    -0.375 N 
HETATM   21  C   UNL     1     -42.249 -46.889  10.288  1.00  0.00     0.094 A 
ATOM     22  HN  UNL     1     -41.565 -45.718   8.715  1.00  0.00     0.164 HD
ENDBRANCH  15  16
ENDBRANCH  14  15
ENDBRANCH  12  14
ENDBRANCH   1  12
TORSDOF 5
ENDMDL
MODEL 3
REMARK VINA RESULT:      -5.7      3.070      4.001
REMARK  5 active torsions:
REMARK  status: ('A' for Active; 'I' for Inactive)
REMARK    1  A    between atoms: N_4  and  S_9 
REMARK    2  A    between atoms: S_9  and  N_12 
REMARK    3  A    between atoms: N_12  and  C_13 
REMARK    4  A    between atoms: C_13  and  C_14 
REMARK    5  A    between atoms: C_14  and  C_15 
ROOT
HETATM    1  S   UNL     1     -40.961 -49.135  11.753  1.00  0.00     0.281 S 
HETATM    2  O   UNL     1     -40.197 -50.065  10.962  1.00  0.00    -0.194 OA
HETATM    3  O   UNL     1     -40.596 -48.796  13.106  1.00  0.00    -0.194 OA
ENDROOT
BRANCH   1   4
HETATM    4  N   UNL     1     -41.109 -47.687  10.886  1.00  0.00    -0.193 NA
HETATM    5  C   UNL     1     -40.825 -46.520  11.795  1.00  0.00     0.140 C 
HETATM    6  C   UNL     1     -40.962 -45.181  11.061  1.00  0.00     0.132 C 
HETATM    7  C   UNL     1     -39.818 -44.914  10.087  1.00  0.00     0.041 C 
HETATM    8  O   UNL     1     -42.243 -45.056  10.425  1.00  0.00    -0.379 OA
HETATM    9  C   UNL     1     -42.532 -46.141   9.529  1.00  0.00     0.132 C 
HETATM   10  C   UNL     1     -42.454 -47.502  10.244  1.00  0.00     0.140 C 
HETATM   11  C   UNL     1     -43.938 -45.912   8.986  1.00  0.00     0.041 C 
ENDBRANCH   1   4
BRANCH   1  12
HETATM   12  N   UNL     1     -42.559 -49.661  11.715  1.00  0.00    -0.206 NA
HETATM   13  H   UNL     1     -42.673 -50.161  10.832  1.00  0.00     0.140 HD
BRANCH  12  14
HETATM   14  C   UNL     1     -42.955 -50.560  12.841  1.00  0.00     0.110 C 
BRANCH  14  15
HETATM   15  C   UNL     1     -42.512 -52.012  12.647  1.00  0.00     0.055 C 
BRANCH  15  16
HETATM   16  C   UNL     1     -43.560 -52.989  13.100  1.00  0.00    -0.042 A 
HETATM   17  C   UNL     1     -43.206 -54.113  13.852  1.00  0.00     0.010 A 
HETATM   18  C   UNL     1     -44.193 -55.000  14.270  1.00  0.00     0.018 A 
HETATM   19  C   UNL     1     -45.503 -54.732  13.914  1.00  0.00     0.087 A 
HETATM   20  N   UNL     1     -45.881 -53.661  13.182  1.00  0.00    -0.375 N 
HETATM   21  C   UNL     1     -44.903 -52.812  12.796  1.00  0.00     0.094 A 
ATOM     22  HN  UNL     1     -46.856 -53.502  12.934  1.00  0.00     0.164 HD
ENDBRANCH  15  16
ENDBRANCH  14  15
ENDBRANCH  12  14
ENDBRANCH   1  12
TORSDOF 5
ENDMDL
MODEL 4
REMARK VINA RESULT:      -5.7      2.504      3.699
REMARK  5 active torsions:
REMARK  status: ('A' for Active; 'I' for Inactive)
REMARK    1  A    between atoms: N_4  and  S_9 
REMARK    2  A    between atoms: S_9  and  N_12 
REMARK    3  A    between atoms: N_12  and  C_13 
REMARK    4  A    between atoms: C_13  and  C_14 
REMARK    5  A    between atoms: C_14  and  C_15 
ROOT
HETATM    1  S   UNL     1     -38.472 -50.111  12.323  1.00  0.00     0.281 S 
HETATM    2  O   UNL     1     -37.618 -50.025  11.166  1.00  0.00    -0.194 OA
HETATM    3  O   UNL     1     -37.966 -49.959  13.664  1.00  0.00    -0.194 OA
ENDROOT
BRANCH   1   4
HETATM    4  N   UNL     1     -39.748 -49.015  12.131  1.00  0.00    -0.193 NA
HETATM    5  C   UNL     1     -40.702 -49.525  11.082  1.00  0.00     0.140 C 
HETATM    6  C   UNL     1     -41.870 -48.558  10.857  1.00  0.00     0.132 C 
HETATM    7  C   UNL     1     -42.874 -48.557  12.006  1.00  0.00     0.041 C 
HETATM    8  O   UNL     1     -41.409 -47.233  10.552  1.00  0.00    -0.379 OA
HETATM    9  C   UNL     1     -40.518 -46.707  11.548  1.00  0.00     0.132 C 
HETATM   10  C   UNL     1     -39.304 -47.627  11.766  1.00  0.00     0.140 C 
HETATM   11  C   UNL     1     -40.060 -45.337  11.060  1.00  0.00     0.041 C 
ENDBRANCH   1   4
BRANCH   1  12
HETATM   12  N   UNL     1     -39.314 -51.563  12.198  1.00  0.00    -0.206 NA
HETATM   13  H   UNL     1     -38.648 -52.250  11.844  1.00  0.00     0.140 HD
BRANCH  12  14
HETATM   14  C   UNL     1     -39.899 -52.065  13.479  1.00  0.00     0.110 C 
BRANCH  14  15
HETATM   15  C   UNL     1     -40.350 -53.526  13.411  1.00  0.00     0.055 C 
BRANCH  15  16
HETATM   16  C   UNL     1     -41.840 -53.653  13.264  1.00  0.00    -0.042 A 
HETATM   17  C   UNL     1     -42.577 -54.447  14.147  1.00  0.00     0.010 A 
HETATM   18  C   UNL     1     -43.956 -54.543  13.998  1.00  0.00     0.018 A 
HETATM   19  C   UNL     1     -44.550 -53.843  12.963  1.00  0.00     0.087 A 
HETATM   20  N   UNL     1     -43.870 -53.073  12.087  1.00  0.00    -0.375 N 
HETATM   21  C   UNL     1     -42.532 -52.991  12.259  1.00  0.00     0.094 A 
ATOM     22  HN  UNL     1     -44.344 -52.577  11.332  1.00  0.00     0.164 HD
ENDBRANCH  15  16
ENDBRANCH  14  15
ENDBRANCH  12  14
ENDBRANCH   1  12
TORSDOF 5
ENDMDL
MODEL 5
REMARK VINA RESULT:      -5.7      3.001      6.136
REMARK  5 active torsions:
REMARK  status: ('A' for Active; 'I' for Inactive)
REMARK    1  A    between atoms: N_4  and  S_9 
REMARK    2  A    between atoms: S_9  and  N_12 
REMARK    3  A    between atoms: N_12  and  C_13 
REMARK    4  A    between atoms: C_13  and  C_14 
REMARK    5  A    between atoms: C_14  and  C_15 
ROOT
HETATM    1  S   UNL     1     -41.524 -50.852  13.120  1.00  0.00     0.281 S 
HETATM    2  O   UNL     1     -41.479 -49.830  14.134  1.00  0.00    -0.194 OA
HETATM    3  O   UNL     1     -40.406 -51.722  12.855  1.00  0.00    -0.194 OA
ENDROOT
BRANCH   1   4
HETATM    4  N   UNL     1     -42.877 -51.831  13.405  1.00  0.00    -0.193 NA
HETATM    5  C   UNL     1     -42.734 -53.127  12.650  1.00  0.00     0.140 C 
HETATM    6  C   UNL     1     -43.943 -54.045  12.860  1.00  0.00     0.132 C 
HETATM    7  C   UNL     1     -43.983 -54.669  14.253  1.00  0.00     0.041 C 
HETATM    8  O   UNL     1     -45.174 -53.380  12.539  1.00  0.00    -0.379 OA
HETATM    9  C   UNL     1     -45.354 -52.154  13.265  1.00  0.00     0.132 C 
HETATM   10  C   UNL     1     -44.181 -51.183  13.037  1.00  0.00     0.140 C 
HETATM   11  C   UNL     1     -46.656 -51.530  12.775  1.00  0.00     0.041 C 
ENDBRANCH   1   4
BRANCH   1  12
HETATM   12  N   UNL     1     -42.005 -50.100  11.693  1.00  0.00    -0.206 NA
HETATM   13  H   UNL     1     -42.962 -49.782  11.847  1.00  0.00     0.140 HD
BRANCH  12  14
HETATM   14  C   UNL     1     -41.163 -48.938  11.277  1.00  0.00     0.110 C 
BRANCH  14  15
HETATM   15  C   UNL     1     -41.942 -47.624  11.184  1.00  0.00     0.055 C 
BRANCH  15  16
HETATM   16  C   UNL     1     -43.050 -47.693  10.172  1.00  0.00    -0.042 A 
HETATM   17  C   UNL     1     -42.764 -47.708   8.803  1.00  0.00     0.010 A 
HETATM   18  C   UNL     1     -43.804 -47.782   7.884  1.00  0.00     0.018 A 
HETATM   19  C   UNL     1     -45.099 -47.832   8.367  1.00  0.00     0.087 A 
HETATM   20  N   UNL     1     -45.414 -47.811   9.680  1.00  0.00    -0.375 N 
HETATM   21  C   UNL     1     -44.384 -47.747  10.553  1.00  0.00     0.094 A 
ATOM     22  HN  UNL     1     -46.383 -47.843   9.998  1.00  0.00     0.164 HD
ENDBRANCH  15  16
ENDBRANCH  14  15
ENDBRANCH  12  14
ENDBRANCH   1  12
TORSDOF 5
ENDMDL
MODEL 6
REMARK VINA RESULT:      -5.6      2.754      3.486
REMARK  5 active torsions:
REMARK  status: ('A' for Active; 'I' for Inactive)
REMARK    1  A    between atoms: N_4  and  S_9 
REMARK    2  A    between atoms: S_9  and  N_12 
REMARK    3  A    between atoms: N_12  and  C_13 
REMARK    4  A    between atoms: C_13  and  C_14 
REMARK    5  A    between atoms: C_14  and  C_15 
ROOT
HETATM    1  S   UNL     1     -40.613 -49.489  12.057  1.00  0.00     0.281 S 
HETATM    2  O   UNL     1     -39.520 -50.180  11.423  1.00  0.00    -0.194 OA
HETATM    3  O   UNL     1     -40.591 -49.135  13.454  1.00  0.00    -0.194 OA
ENDROOT
BRANCH   1   4
HETATM    4  N   UNL     1     -40.938 -48.078  11.179  1.00  0.00    -0.193 NA
HETATM    5  C   UNL     1     -40.784 -46.876  12.073  1.00  0.00     0.140 C 
HETATM    6  C   UNL     1     -41.085 -45.570  11.329  1.00  0.00     0.132 C 
HETATM    7  C   UNL     1     -39.990 -45.181  10.339  1.00  0.00     0.041 C 
HETATM    8  O   UNL     1     -42.378 -45.603  10.705  1.00  0.00    -0.379 OA
HETATM    9  C   UNL     1     -42.547 -46.723   9.823  1.00  0.00     0.132 C 
HETATM   10  C   UNL     1     -42.302 -48.058  10.550  1.00  0.00     0.140 C 
HETATM   11  C   UNL     1     -43.975 -46.666   9.294  1.00  0.00     0.041 C 
ENDBRANCH   1   4
BRANCH   1  12
HETATM   12  N   UNL     1     -42.007 -50.370  11.720  1.00  0.00    -0.206 NA
HETATM   13  H   UNL     1     -41.735 -51.089  11.050  1.00  0.00     0.140 HD
BRANCH  12  14
HETATM   14  C   UNL     1     -42.645 -51.021  12.905  1.00  0.00     0.110 C 
BRANCH  14  15
HETATM   15  C   UNL     1     -43.944 -50.344  13.347  1.00  0.00     0.055 C 
BRANCH  15  16
HETATM   16  C   UNL     1     -44.994 -51.342  13.746  1.00  0.00    -0.042 A 
HETATM   17  C   UNL     1     -45.789 -51.124  14.876  1.00  0.00     0.010 A 
HETATM   18  C   UNL     1     -46.762 -52.056  15.223  1.00  0.00     0.018 A 
HETATM   19  C   UNL     1     -46.901 -53.179  14.428  1.00  0.00     0.087 A 
HETATM   20  N   UNL     1     -46.147 -53.427  13.334  1.00  0.00    -0.375 N 
HETATM   21  C   UNL     1     -45.214 -52.501  13.015  1.00  0.00     0.094 A 
ATOM     22  HN  UNL     1     -46.275 -54.271  12.777  1.00  0.00     0.164 HD
ENDBRANCH  15  16
ENDBRANCH  14  15
ENDBRANCH  12  14
ENDBRANCH   1  12
TORSDOF 5
ENDMDL
MODEL 7
REMARK VINA RESULT:      -5.5      2.933      6.210
REMARK  5 active torsions:
REMARK  status: ('A' for Active; 'I' for Inactive)
REMARK    1  A    between atoms: N_4  and  S_9 
REMARK    2  A    between atoms: S_9  and  N_12 
REMARK    3  A    between atoms: N_12  and  C_13 
REMARK    4  A    between atoms: C_13  and  C_14 
REMARK    5  A    between atoms: C_14  and  C_15 
ROOT
HETATM    1  S   UNL     1     -42.785 -50.782  13.436  1.00  0.00     0.281 S 
HETATM    2  O   UNL     1     -43.436 -49.574  12.997  1.00  0.00    -0.194 OA
HETATM    3  O   UNL     1     -41.721 -50.771  14.409  1.00  0.00    -0.194 OA
ENDROOT
BRANCH   1   4
HETATM    4  N   UNL     1     -43.969 -51.860  13.986  1.00  0.00    -0.193 NA
HETATM    5  C   UNL     1     -44.557 -52.608  12.818  1.00  0.00     0.140 C 
HETATM    6  C   UNL     1     -45.649 -53.588  13.260  1.00  0.00     0.132 C 
HETATM    7  C   UNL     1     -45.094 -54.815  13.979  1.00  0.00     0.041 C 
HETATM    8  O   UNL     1     -46.665 -52.933  14.034  1.00  0.00    -0.379 OA
HETATM    9  C   UNL     1     -46.140 -52.234  15.172  1.00  0.00     0.132 C 
HETATM   10  C   UNL     1     -45.074 -51.202  14.761  1.00  0.00     0.140 C 
HETATM   11  C   UNL     1     -47.313 -51.536  15.851  1.00  0.00     0.041 C 
ENDBRANCH   1   4
BRANCH   1  12
HETATM   12  N   UNL     1     -42.275 -51.591  12.051  1.00  0.00    -0.206 NA
HETATM   13  H   UNL     1     -42.202 -50.884  11.319  1.00  0.00     0.140 HD
BRANCH  12  14
HETATM   14  C   UNL     1     -40.965 -52.298  12.180  1.00  0.00     0.110 C 
BRANCH  14  15
HETATM   15  C   UNL     1     -41.105 -53.807  12.392  1.00  0.00     0.055 C 
BRANCH  15  16
HETATM   16  C   UNL     1     -40.643 -54.232  13.757  1.00  0.00    -0.042 A 
HETATM   17  C   UNL     1     -39.293 -54.509  13.997  1.00  0.00     0.010 A 
HETATM   18  C   UNL     1     -38.885 -54.891  15.270  1.00  0.00     0.018 A 
HETATM   19  C   UNL     1     -39.846 -54.990  16.260  1.00  0.00     0.087 A 
HETATM   20  N   UNL     1     -41.159 -54.738  16.064  1.00  0.00    -0.375 N 
HETATM   21  C   UNL     1     -41.527 -54.361  14.820  1.00  0.00     0.094 A 
ATOM     22  HN  UNL     1     -41.838 -54.829  16.819  1.00  0.00     0.164 HD
ENDBRANCH  15  16
ENDBRANCH  14  15
ENDBRANCH  12  14
ENDBRANCH   1  12
TORSDOF 5
ENDMDL
MODEL 8
REMARK VINA RESULT:      -5.5      3.234      4.806
REMARK  5 active torsions:
REMARK  status: ('A' for Active; 'I' for Inactive)
REMARK    1  A    between atoms: N_4  and  S_9 
REMARK    2  A    between atoms: S_9  and  N_12 
REMARK    3  A    between atoms: N_12  and  C_13 
REMARK    4  A    between atoms: C_13  and  C_14 
REMARK    5  A    between atoms: C_14  and  C_15 
ROOT
HETATM    1  S   UNL     1     -44.434 -54.553  14.140  1.00  0.00     0.281 S 
HETATM    2  O   UNL     1     -45.249 -54.582  12.952  1.00  0.00    -0.194 OA
HETATM    3  O   UNL     1     -43.990 -55.757  14.797  1.00  0.00    -0.194 OA
ENDROOT
BRANCH   1   4
HETATM    4  N   UNL     1     -43.065 -53.607  13.828  1.00  0.00    -0.193 NA
HETATM    5  C   UNL     1     -43.033 -53.224  12.371  1.00  0.00     0.140 C 
HETATM    6  C   UNL     1     -41.801 -52.378  12.031  1.00  0.00     0.132 C 
HETATM    7  C   UNL     1     -41.885 -50.955  12.574  1.00  0.00     0.041 C 
HETATM    8  O   UNL     1     -40.586 -53.030  12.433  1.00  0.00    -0.379 OA
HETATM    9  C   UNL     1     -40.573 -53.383  13.825  1.00  0.00     0.132 C 
HETATM   10  C   UNL     1     -41.771 -54.276  14.194  1.00  0.00     0.140 C 
HETATM   11  C   UNL     1     -39.265 -54.121  14.089  1.00  0.00     0.041 C 
ENDBRANCH   1   4
BRANCH   1  12
HETATM   12  N   UNL     1     -45.225 -53.564  15.248  1.00  0.00    -0.206 NA
HETATM   13  H   UNL     1     -44.769 -53.722  16.148  1.00  0.00     0.140 HD
BRANCH  12  14
HETATM   14  C   UNL     1     -45.187 -52.104  14.931  1.00  0.00     0.110 C 
BRANCH  14  15
HETATM   15  C   UNL     1     -46.549 -51.417  15.057  1.00  0.00     0.055 C 
BRANCH  15  16
HETATM   16  C   UNL     1     -46.816 -50.941  16.456  1.00  0.00    -0.042 A 
HETATM   17  C   UNL     1     -45.829 -50.263  17.178  1.00  0.00     0.010 A 
HETATM   18  C   UNL     1     -46.100 -49.822  18.468  1.00  0.00     0.018 A 
HETATM   19  C   UNL     1     -47.352 -50.082  18.996  1.00  0.00     0.087 A 
HETATM   20  N   UNL     1     -48.328 -50.740  18.332  1.00  0.00    -0.375 N 
HETATM   21  C   UNL     1     -48.040 -51.150  17.077  1.00  0.00     0.094 A 
ATOM     22  HN  UNL     1     -49.237 -50.918  18.758  1.00  0.00     0.164 HD
ENDBRANCH  15  16
ENDBRANCH  14  15
ENDBRANCH  12  14
ENDBRANCH   1  12
TORSDOF 5
ENDMDL
MODEL 9
REMARK VINA RESULT:      -5.4      2.152      2.927
REMARK  5 active torsions:
REMARK  status: ('A' for Active; 'I' for Inactive)
REMARK    1  A    between atoms: N_4  and  S_9 
REMARK    2  A    between atoms: S_9  and  N_12 
REMARK    3  A    between atoms: N_12  and  C_13 
REMARK    4  A    between atoms: C_13  and  C_14 
REMARK    5  A    between atoms: C_14  and  C_15 
ROOT
HETATM    1  S   UNL     1     -38.239 -51.253  13.146  1.00  0.00     0.281 S 
HETATM    2  O   UNL     1     -37.008 -51.523  12.447  1.00  0.00    -0.194 OA
HETATM    3  O   UNL     1     -38.493 -51.750  14.475  1.00  0.00    -0.194 OA
ENDROOT
BRANCH   1   4
HETATM    4  N   UNL     1     -38.485 -49.578  13.171  1.00  0.00    -0.193 NA
HETATM    5  C   UNL     1     -39.126 -49.178  14.475  1.00  0.00     0.140 C 
HETATM    6  C   UNL     1     -39.387 -47.669  14.543  1.00  0.00     0.132 C 
HETATM    7  C   UNL     1     -38.112 -46.851  14.727  1.00  0.00     0.041 C 
HETATM    8  O   UNL     1     -40.153 -47.215  13.416  1.00  0.00    -0.379 OA
HETATM    9  C   UNL     1     -39.553 -47.555  12.157  1.00  0.00     0.132 C 
HETATM   10  C   UNL     1     -39.322 -49.072  12.031  1.00  0.00     0.140 C 
HETATM   11  C   UNL     1     -40.502 -47.075  11.064  1.00  0.00     0.041 C 
ENDBRANCH   1   4
BRANCH   1  12
HETATM   12  N   UNL     1     -39.492 -51.716  12.122  1.00  0.00    -0.206 NA
HETATM   13  H   UNL     1     -39.160 -52.540  11.620  1.00  0.00     0.140 HD
BRANCH  12  14
HETATM   14  C   UNL     1     -40.778 -52.045  12.807  1.00  0.00     0.110 C 
BRANCH  14  15
HETATM   15  C   UNL     1     -41.082 -53.545  12.845  1.00  0.00     0.055 C 
BRANCH  15  16
HETATM   16  C   UNL     1     -42.521 -53.823  13.176  1.00  0.00    -0.042 A 
HETATM   17  C   UNL     1     -42.856 -54.672  14.234  1.00  0.00     0.010 A 
HETATM   18  C   UNL     1     -44.195 -54.908  14.530  1.00  0.00     0.018 A 
HETATM   19  C   UNL     1     -45.153 -54.288  13.750  1.00  0.00     0.087 A 
HETATM   20  N   UNL     1     -44.868 -53.468  12.715  1.00  0.00    -0.375 N 
HETATM   21  C   UNL     1     -43.559 -53.249  12.454  1.00  0.00     0.094 A 
ATOM     22  HN  UNL     1     -45.604 -53.034  12.158  1.00  0.00     0.164 HD
ENDBRANCH  15  16
ENDBRANCH  14  15
ENDBRANCH  12  14
ENDBRANCH   1  12
TORSDOF 5
ENDMDL
