MODEL 1
REMARK VINA RESULT:      -6.8      0.000      0.000
REMARK  4 active torsions:
REMARK  status: ('A' for Active; 'I' for Inactive)
REMARK    1  A    between atoms: C_2  and  C_4 
REMARK    2  A    between atoms: C_7  and  C_8 
REMARK    3  A    between atoms: C_8  and  C_9 
REMARK       I    between atoms: C_9  and  N_11 
REMARK    4  A    between atoms: N_11  and  C_12 
ROOT
HETATM    1  C   UNL     1     -41.061 -50.571  12.118  1.00  0.00     0.224 C 
HETATM    2  O   UNL     1     -41.530 -50.331  13.227  1.00  0.00    -0.273 OA
HETATM    3  N   UNL     1     -41.164 -51.796  11.501  1.00  0.00    -0.347 N 
HETATM    4  H   UNL     1     -40.688 -51.921  10.612  1.00  0.00     0.163 HD
ENDROOT
BRANCH   1   5
HETATM    5  C   UNL     1     -40.280 -49.537  11.324  1.00  0.00     0.160 C 
BRANCH   5   6
HETATM    6  C   UNL     1     -41.127 -48.367  10.945  1.00  0.00     0.025 A 
HETATM    7  N   UNL     1     -42.128 -48.536   9.993  1.00  0.00    -0.356 N 
HETATM    8  C   UNL     1     -42.732 -47.386   9.758  1.00  0.00     0.054 A 
ATOM      9  HN  UNL     1     -42.362 -49.420   9.543  1.00  0.00     0.166 HD
HETATM   10  S   UNL     1     -42.163 -46.057  10.694  1.00  0.00    -0.086 SA
HETATM   11  C   UNL     1     -41.011 -47.081  11.436  1.00  0.00     0.077 A 
BRANCH   8  12
HETATM   12  C   UNL     1     -43.832 -47.174   8.746  1.00  0.00     0.035 C 
HETATM   13  C   UNL     1     -43.570 -48.000   7.486  1.00  0.00     0.016 C 
HETATM   14  C   UNL     1     -45.197 -47.517   9.341  1.00  0.00     0.016 C 
ENDBRANCH   8  12
ENDBRANCH   5   6
ENDBRANCH   1   5
BRANCH   3  15
HETATM   15  C   UNL     1     -41.799 -52.963  12.114  1.00  0.00     0.176 C 
HETATM   16  C   UNL     1     -43.270 -52.701  12.448  1.00  0.00     0.035 C 
HETATM   17  C   UNL     1     -44.022 -53.993  12.751  1.00  0.00     0.004 C 
HETATM   18  C   UNL     1     -43.905 -54.450  14.201  1.00  0.00     0.020 C 
HETATM   19  C   UNL     1     -42.614 -54.074  14.912  1.00  0.00     0.122 C 
HETATM   20  N   UNL     1     -41.404 -54.381  14.180  1.00  0.00    -0.359 N 
HETATM   21  C   UNL     1     -40.884 -53.564  13.208  1.00  0.00     0.240 C 
HETATM   22  H   UNL     1     -40.646 -54.730  14.755  1.00  0.00     0.162 HD
HETATM   23  O   UNL     1     -39.651 -53.486  13.141  1.00  0.00    -0.271 OA
ENDBRANCH   3  15
TORSDOF 4
ENDMDL
MODEL 2
REMARK VINA RESULT:      -6.5      2.826      3.750
REMARK  4 active torsions:
REMARK  status: ('A' for Active; 'I' for Inactive)
REMARK    1  A    between atoms: C_2  and  C_4 
REMARK    2  A    between atoms: C_7  and  C_8 
REMARK    3  A    between atoms: C_8  and  C_9 
REMARK       I    between atoms: C_9  and  N_11 
REMARK    4  A    between atoms: N_11  and  C_12 
ROOT
HETATM    1  C   UNL     1     -42.708 -52.371  12.934  1.00  0.00     0.224 C 
HETATM    2  O   UNL     1     -42.588 -52.421  14.155  1.00  0.00    -0.273 OA
HETATM    3  N   UNL     1     -43.926 -52.371  12.293  1.00  0.00    -0.347 N 
HETATM    4  H   UNL     1     -43.927 -52.395  11.277  1.00  0.00     0.163 HD
ENDROOT
BRANCH   1   5
HETATM    5  C   UNL     1     -41.512 -52.342  11.998  1.00  0.00     0.160 C 
BRANCH   5   6
HETATM    6  C   UNL     1     -40.927 -50.973  11.881  1.00  0.00     0.025 A 
HETATM    7  N   UNL     1     -41.685 -49.961  11.300  1.00  0.00    -0.356 N 
HETATM    8  C   UNL     1     -40.985 -48.844  11.242  1.00  0.00     0.054 A 
ATOM      9  HN  UNL     1     -42.643 -50.067  10.968  1.00  0.00     0.166 HD
HETATM   10  S   UNL     1     -39.405 -48.936  11.919  1.00  0.00    -0.086 SA
HETATM   11  C   UNL     1     -39.663 -50.587  12.280  1.00  0.00     0.077 A 
BRANCH   8  12
HETATM   12  C   UNL     1     -41.464 -47.551  10.627  1.00  0.00     0.035 C 
HETATM   13  C   UNL     1     -42.912 -47.267  11.028  1.00  0.00     0.016 C 
HETATM   14  C   UNL     1     -40.557 -46.386  11.025  1.00  0.00     0.016 C 
ENDBRANCH   8  12
ENDBRANCH   5   6
ENDBRANCH   1   5
BRANCH   3  15
HETATM   15  C   UNL     1     -45.210 -52.479  12.987  1.00  0.00     0.176 C 
HETATM   16  C   UNL     1     -45.396 -51.359  14.015  1.00  0.00     0.035 C 
HETATM   17  C   UNL     1     -46.844 -51.252  14.481  1.00  0.00     0.004 C 
HETATM   18  C   UNL     1     -47.195 -52.192  15.628  1.00  0.00     0.020 C 
HETATM   19  C   UNL     1     -46.421 -53.501  15.672  1.00  0.00     0.122 C 
HETATM   20  N   UNL     1     -46.370 -54.221  14.419  1.00  0.00    -0.359 N 
HETATM   21  C   UNL     1     -45.467 -53.940  13.424  1.00  0.00     0.240 C 
HETATM   22  H   UNL     1     -46.452 -55.227  14.512  1.00  0.00     0.162 HD
HETATM   23  O   UNL     1     -45.020 -54.900  12.784  1.00  0.00    -0.271 OA
ENDBRANCH   3  15
TORSDOF 4
ENDMDL
MODEL 3
REMARK VINA RESULT:      -6.5      1.409      2.092
REMARK  4 active torsions:
REMARK  status: ('A' for Active; 'I' for Inactive)
REMARK    1  A    between atoms: C_2  and  C_4 
REMARK    2  A    between atoms: C_7  and  C_8 
REMARK    3  A    between atoms: C_8  and  C_9 
REMARK       I    between atoms: C_9  and  N_11 
REMARK    4  A    between atoms: N_11  and  C_12 
ROOT
HETATM    1  C   UNL     1     -41.129 -50.494  12.547  1.00  0.00     0.224 C 
HETATM    2  O   UNL     1     -40.776 -50.267  13.700  1.00  0.00    -0.273 OA
HETATM    3  N   UNL     1     -42.116 -51.395  12.221  1.00  0.00    -0.347 N 
HETATM    4  H   UNL     1     -42.296 -51.566  11.236  1.00  0.00     0.163 HD
ENDROOT
BRANCH   1   5
HETATM    5  C   UNL     1     -40.479 -49.823  11.348  1.00  0.00     0.160 C 
BRANCH   5   6
HETATM    6  C   UNL     1     -41.189 -48.569  10.957  1.00  0.00     0.025 A 
HETATM    7  N   UNL     1     -42.182 -48.628   9.983  1.00  0.00    -0.356 N 
HETATM    8  C   UNL     1     -42.655 -47.421   9.741  1.00  0.00     0.054 A 
ATOM      9  HN  UNL     1     -42.497 -49.482   9.524  1.00  0.00     0.166 HD
HETATM   10  S   UNL     1     -41.970 -46.162  10.695  1.00  0.00    -0.086 SA
HETATM   11  C   UNL     1     -40.950 -47.304  11.457  1.00  0.00     0.077 A 
BRANCH   8  12
HETATM   12  C   UNL     1     -43.705 -47.092   8.707  1.00  0.00     0.035 C 
HETATM   13  C   UNL     1     -43.561 -48.002   7.486  1.00  0.00     0.016 C 
HETATM   14  C   UNL     1     -45.110 -47.201   9.298  1.00  0.00     0.016 C 
ENDBRANCH   8  12
ENDBRANCH   5   6
ENDBRANCH   1   5
BRANCH   3  15
HETATM   15  C   UNL     1     -42.822 -52.218  13.204  1.00  0.00     0.176 C 
HETATM   16  C   UNL     1     -42.471 -53.702  13.061  1.00  0.00     0.035 C 
HETATM   17  C   UNL     1     -42.911 -54.509  14.278  1.00  0.00     0.004 C 
HETATM   18  C   UNL     1     -44.361 -54.976  14.218  1.00  0.00     0.020 C 
HETATM   19  C   UNL     1     -45.316 -54.073  13.452  1.00  0.00     0.122 C 
HETATM   20  N   UNL     1     -45.244 -52.671  13.803  1.00  0.00    -0.359 N 
HETATM   21  C   UNL     1     -44.312 -51.810  13.281  1.00  0.00     0.240 C 
HETATM   22  H   UNL     1     -46.142 -52.202  13.835  1.00  0.00     0.162 HD
HETATM   23  O   UNL     1     -44.683 -50.652  13.053  1.00  0.00    -0.271 OA
ENDBRANCH   3  15
TORSDOF 4
ENDMDL
MODEL 4
REMARK VINA RESULT:      -6.4      3.013      6.439
REMARK  4 active torsions:
REMARK  status: ('A' for Active; 'I' for Inactive)
REMARK    1  A    between atoms: C_2  and  C_4 
REMARK    2  A    between atoms: C_7  and  C_8 
REMARK    3  A    between atoms: C_8  and  C_9 
REMARK       I    between atoms: C_9  and  N_11 
REMARK    4  A    between atoms: N_11  and  C_12 
ROOT
HETATM    1  C   UNL     1     -41.537 -50.917  12.502  1.00  0.00     0.224 C 
HETATM    2  O   UNL     1     -41.364 -50.634  13.684  1.00  0.00    -0.273 OA
HETATM    3  N   UNL     1     -41.600 -49.977  11.500  1.00  0.00    -0.347 N 
HETATM    4  H   UNL     1     -41.812 -50.299  10.560  1.00  0.00     0.163 HD
ENDROOT
BRANCH   1   5
HETATM    5  C   UNL     1     -41.738 -52.347  12.027  1.00  0.00     0.160 C 
BRANCH   5   6
HETATM    6  C   UNL     1     -43.012 -52.932  12.542  1.00  0.00     0.025 A 
HETATM    7  N   UNL     1     -44.185 -52.191  12.445  1.00  0.00    -0.356 N 
HETATM    8  C   UNL     1     -45.188 -52.851  12.993  1.00  0.00     0.054 A 
ATOM      9  HN  UNL     1     -44.260 -51.271  12.013  1.00  0.00     0.166 HD
HETATM   10  S   UNL     1     -44.787 -54.407  13.611  1.00  0.00    -0.086 SA
HETATM   11  C   UNL     1     -43.159 -54.166  13.145  1.00  0.00     0.077 A 
BRANCH   8  12
HETATM   12  C   UNL     1     -46.600 -52.334  13.121  1.00  0.00     0.035 C 
HETATM   13  C   UNL     1     -46.723 -51.394  14.321  1.00  0.00     0.016 C 
HETATM   14  C   UNL     1     -47.045 -51.631  11.839  1.00  0.00     0.016 C 
ENDBRANCH   8  12
ENDBRANCH   5   6
ENDBRANCH   1   5
BRANCH   3  15
HETATM   15  C   UNL     1     -41.518 -48.534  11.734  1.00  0.00     0.176 C 
HETATM   16  C   UNL     1     -42.705 -47.789  11.118  1.00  0.00     0.035 C 
HETATM   17  C   UNL     1     -42.816 -46.363  11.647  1.00  0.00     0.004 C 
HETATM   18  C   UNL     1     -41.955 -45.356  10.894  1.00  0.00     0.020 C 
HETATM   19  C   UNL     1     -40.669 -45.903  10.292  1.00  0.00     0.122 C 
HETATM   20  N   UNL     1     -39.861 -46.691  11.196  1.00  0.00    -0.359 N 
HETATM   21  C   UNL     1     -40.087 -48.022  11.445  1.00  0.00     0.240 C 
HETATM   22  H   UNL     1     -38.863 -46.540  11.103  1.00  0.00     0.162 HD
HETATM   23  O   UNL     1     -39.092 -48.739  11.607  1.00  0.00    -0.271 OA
ENDBRANCH   3  15
TORSDOF 4
ENDMDL
MODEL 5
REMARK VINA RESULT:      -6.4      3.753      6.414
REMARK  4 active torsions:
REMARK  status: ('A' for Active; 'I' for Inactive)
REMARK    1  A    between atoms: C_2  and  C_4 
REMARK    2  A    between atoms: C_7  and  C_8 
REMARK    3  A    between atoms: C_8  and  C_9 
REMARK       I    between atoms: C_9  and  N_11 
REMARK    4  A    between atoms: N_11  and  C_12 
ROOT
HETATM    1  C   UNL     1     -40.987 -53.648  13.832  1.00  0.00     0.224 C 
HETATM    2  O   UNL     1     -40.779 -54.419  12.900  1.00  0.00    -0.273 OA
HETATM    3  N   UNL     1     -40.490 -52.366  13.879  1.00  0.00    -0.347 N 
HETATM    4  H   UNL     1     -40.658 -51.822  14.720  1.00  0.00     0.163 HD
ENDROOT
BRANCH   1   5
HETATM    5  C   UNL     1     -41.791 -54.048  15.058  1.00  0.00     0.160 C 
BRANCH   5   6
HETATM    6  C   UNL     1     -43.260 -53.902  14.834  1.00  0.00     0.025 A 
HETATM    7  N   UNL     1     -43.785 -52.637  14.584  1.00  0.00    -0.356 N 
HETATM    8  C   UNL     1     -45.097 -52.704  14.462  1.00  0.00     0.054 A 
ATOM      9  HN  UNL     1     -43.234 -51.783  14.507  1.00  0.00     0.166 HD
HETATM   10  S   UNL     1     -45.764 -54.286  14.595  1.00  0.00    -0.086 SA
HETATM   11  C   UNL     1     -44.197 -54.916  14.868  1.00  0.00     0.077 A 
BRANCH   8  12
HETATM   12  C   UNL     1     -46.009 -51.521  14.241  1.00  0.00     0.035 C 
HETATM   13  C   UNL     1     -46.623 -51.570  12.841  1.00  0.00     0.016 C 
HETATM   14  C   UNL     1     -47.103 -51.466  15.307  1.00  0.00     0.016 C 
ENDBRANCH   8  12
ENDBRANCH   5   6
ENDBRANCH   1   5
BRANCH   3  15
HETATM   15  C   UNL     1     -39.620 -51.794  12.850  1.00  0.00     0.176 C 
HETATM   16  C   UNL     1     -38.304 -51.279  13.439  1.00  0.00     0.035 C 
HETATM   17  C   UNL     1     -37.264 -51.012  12.356  1.00  0.00     0.004 C 
HETATM   18  C   UNL     1     -37.374 -49.630  11.721  1.00  0.00     0.020 C 
HETATM   19  C   UNL     1     -38.773 -49.035  11.670  1.00  0.00     0.122 C 
HETATM   20  N   UNL     1     -39.793 -49.919  11.151  1.00  0.00    -0.359 N 
HETATM   21  C   UNL     1     -40.430 -50.865  11.913  1.00  0.00     0.240 C 
HETATM   22  H   UNL     1     -40.476 -49.464  10.556  1.00  0.00     0.162 HD
HETATM   23  O   UNL     1     -41.629 -51.060  11.681  1.00  0.00    -0.271 OA
ENDBRANCH   3  15
TORSDOF 4
ENDMDL
MODEL 6
REMARK VINA RESULT:      -6.3      2.905      6.590
REMARK  4 active torsions:
REMARK  status: ('A' for Active; 'I' for Inactive)
REMARK    1  A    between atoms: C_2  and  C_4 
REMARK    2  A    between atoms: C_7  and  C_8 
REMARK    3  A    between atoms: C_8  and  C_9 
REMARK       I    between atoms: C_9  and  N_11 
REMARK    4  A    between atoms: N_11  and  C_12 
ROOT
HETATM    1  C   UNL     1     -41.164 -49.762  12.122  1.00  0.00     0.224 C 
HETATM    2  O   UNL     1     -41.166 -49.114  13.165  1.00  0.00    -0.273 OA
HETATM    3  N   UNL     1     -41.265 -49.189  10.875  1.00  0.00    -0.347 N 
HETATM    4  H   UNL     1     -41.322 -49.809  10.072  1.00  0.00     0.163 HD
ENDROOT
BRANCH   1   5
HETATM    5  C   UNL     1     -41.088 -51.280  12.106  1.00  0.00     0.160 C 
BRANCH   5   6
HETATM    6  C   UNL     1     -42.377 -51.908  12.523  1.00  0.00     0.025 A 
HETATM    7  N   UNL     1     -43.529 -51.128  12.564  1.00  0.00    -0.356 N 
HETATM    8  C   UNL     1     -44.549 -51.843  12.999  1.00  0.00     0.054 A 
ATOM      9  HN  UNL     1     -43.578 -50.146  12.295  1.00  0.00     0.166 HD
HETATM   10  S   UNL     1     -44.191 -53.493  13.340  1.00  0.00    -0.086 SA
HETATM   11  C   UNL     1     -42.559 -53.222  12.909  1.00  0.00     0.077 A 
BRANCH   8  12
HETATM   12  C   UNL     1     -45.945 -51.316  13.224  1.00  0.00     0.035 C 
HETATM   13  C   UNL     1     -46.877 -51.762  12.097  1.00  0.00     0.016 C 
HETATM   14  C   UNL     1     -46.488 -51.765  14.581  1.00  0.00     0.016 C 
ENDBRANCH   8  12
ENDBRANCH   5   6
ENDBRANCH   1   5
BRANCH   3  15
HETATM   15  C   UNL     1     -41.433 -47.753  10.653  1.00  0.00     0.176 C 
HETATM   16  C   UNL     1     -40.210 -46.958  11.117  1.00  0.00     0.035 C 
HETATM   17  C   UNL     1     -40.221 -45.532  10.577  1.00  0.00     0.004 C 
HETATM   18  C   UNL     1     -41.022 -44.555  11.430  1.00  0.00     0.020 C 
HETATM   19  C   UNL     1     -42.201 -45.148  12.186  1.00  0.00     0.122 C 
HETATM   20  N   UNL     1     -43.083 -45.973  11.389  1.00  0.00    -0.359 N 
HETATM   21  C   UNL     1     -42.837 -47.295  11.116  1.00  0.00     0.240 C 
HETATM   22  H   UNL     1     -44.067 -45.861  11.605  1.00  0.00     0.162 HD
HETATM   23  O   UNL     1     -43.815 -48.052  11.078  1.00  0.00    -0.271 OA
ENDBRANCH   3  15
TORSDOF 4
ENDMDL
MODEL 7
REMARK VINA RESULT:      -6.1      4.214      5.777
REMARK  4 active torsions:
REMARK  status: ('A' for Active; 'I' for Inactive)
REMARK    1  A    between atoms: C_2  and  C_4 
REMARK    2  A    between atoms: C_7  and  C_8 
REMARK    3  A    between atoms: C_8  and  C_9 
REMARK       I    between atoms: C_9  and  N_11 
REMARK    4  A    between atoms: N_11  and  C_12 
ROOT
HETATM    1  C   UNL     1     -41.481 -53.830  13.766  1.00  0.00     0.224 C 
HETATM    2  O   UNL     1     -41.418 -53.656  12.552  1.00  0.00    -0.273 OA
HETATM    3  N   UNL     1     -42.646 -53.714  14.488  1.00  0.00    -0.347 N 
HETATM    4  H   UNL     1     -42.589 -53.811  15.498  1.00  0.00     0.163 HD
ENDROOT
BRANCH   1   5
HETATM    5  C   UNL     1     -40.257 -54.157  14.606  1.00  0.00     0.160 C 
BRANCH   5   6
HETATM    6  C   UNL     1     -39.446 -52.941  14.908  1.00  0.00     0.025 A 
HETATM    7  N   UNL     1     -38.972 -52.163  13.856  1.00  0.00    -0.356 N 
HETATM    8  C   UNL     1     -38.241 -51.167  14.318  1.00  0.00     0.054 A 
ATOM      9  HN  UNL     1     -39.161 -52.339  12.870  1.00  0.00     0.166 HD
HETATM   10  S   UNL     1     -38.121 -51.084  16.034  1.00  0.00    -0.086 SA
HETATM   11  C   UNL     1     -39.081 -52.493  16.163  1.00  0.00     0.077 A 
BRANCH   8  12
HETATM   12  C   UNL     1     -37.520 -50.151  13.466  1.00  0.00     0.035 C 
HETATM   13  C   UNL     1     -37.534 -50.574  11.997  1.00  0.00     0.016 C 
HETATM   14  C   UNL     1     -38.134 -48.761  13.632  1.00  0.00     0.016 C 
ENDBRANCH   8  12
ENDBRANCH   5   6
ENDBRANCH   1   5
BRANCH   3  15
HETATM   15  C   UNL     1     -43.929 -53.325  13.903  1.00  0.00     0.176 C 
HETATM   16  C   UNL     1     -44.236 -51.843  14.138  1.00  0.00     0.035 C 
HETATM   17  C   UNL     1     -45.372 -51.351  13.248  1.00  0.00     0.004 C 
HETATM   18  C   UNL     1     -46.761 -51.600  13.825  1.00  0.00     0.020 C 
HETATM   19  C   UNL     1     -46.898 -52.826  14.715  1.00  0.00     0.122 C 
HETATM   20  N   UNL     1     -46.347 -54.044  14.163  1.00  0.00    -0.359 N 
HETATM   21  C   UNL     1     -45.017 -54.372  14.240  1.00  0.00     0.240 C 
HETATM   22  H   UNL     1     -46.900 -54.874  14.348  1.00  0.00     0.162 HD
HETATM   23  O   UNL     1     -44.741 -55.567  14.404  1.00  0.00    -0.271 OA
ENDBRANCH   3  15
TORSDOF 4
ENDMDL
MODEL 8
REMARK VINA RESULT:      -6.1      3.251      5.140
REMARK  4 active torsions:
REMARK  status: ('A' for Active; 'I' for Inactive)
REMARK    1  A    between atoms: C_2  and  C_4 
REMARK    2  A    between atoms: C_7  and  C_8 
REMARK    3  A    between atoms: C_8  and  C_9 
REMARK       I    between atoms: C_9  and  N_11 
REMARK    4  A    between atoms: N_11  and  C_12 
ROOT
HETATM    1  C   UNL     1     -42.676 -52.409  12.826  1.00  0.00     0.224 C 
HETATM    2  O   UNL     1     -42.540 -52.394  14.046  1.00  0.00    -0.273 OA
HETATM    3  N   UNL     1     -43.902 -52.448  12.202  1.00  0.00    -0.347 N 
HETATM    4  H   UNL     1     -43.916 -52.525  11.189  1.00  0.00     0.163 HD
ENDROOT
BRANCH   1   5
HETATM    5  C   UNL     1     -41.492 -52.426  11.874  1.00  0.00     0.160 C 
BRANCH   5   6
HETATM    6  C   UNL     1     -40.578 -51.267  12.100  1.00  0.00     0.025 A 
HETATM    7  N   UNL     1     -39.560 -51.380  13.042  1.00  0.00    -0.356 N 
HETATM    8  C   UNL     1     -38.895 -50.245  13.133  1.00  0.00     0.054 A 
ATOM      9  HN  UNL     1     -39.359 -52.220  13.584  1.00  0.00     0.166 HD
HETATM   10  S   UNL     1     -39.423 -49.001  12.066  1.00  0.00    -0.086 SA
HETATM   11  C   UNL     1     -40.643 -50.040  11.469  1.00  0.00     0.077 A 
BRANCH   8  12
HETATM   12  C   UNL     1     -37.758 -49.979  14.090  1.00  0.00     0.035 C 
HETATM   13  C   UNL     1     -37.591 -48.477  14.324  1.00  0.00     0.016 C 
HETATM   14  C   UNL     1     -37.976 -50.709  15.415  1.00  0.00     0.016 C 
ENDBRANCH   8  12
ENDBRANCH   5   6
ENDBRANCH   1   5
BRANCH   3  15
HETATM   15  C   UNL     1     -45.176 -52.523  12.918  1.00  0.00     0.176 C 
HETATM   16  C   UNL     1     -45.345 -51.362  13.902  1.00  0.00     0.035 C 
HETATM   17  C   UNL     1     -46.786 -51.231  14.384  1.00  0.00     0.004 C 
HETATM   18  C   UNL     1     -47.123 -52.123  15.574  1.00  0.00     0.020 C 
HETATM   19  C   UNL     1     -46.351 -53.432  15.659  1.00  0.00     0.122 C 
HETATM   20  N   UNL     1     -46.320 -54.202  14.436  1.00  0.00    -0.359 N 
HETATM   21  C   UNL     1     -45.431 -53.965  13.418  1.00  0.00     0.240 C 
HETATM   22  H   UNL     1     -46.404 -55.203  14.570  1.00  0.00     0.162 HD
HETATM   23  O   UNL     1     -44.996 -54.951  12.811  1.00  0.00    -0.271 OA
ENDBRANCH   3  15
TORSDOF 4
ENDMDL
MODEL 9
REMARK VINA RESULT:      -5.5      3.506      6.773
REMARK  4 active torsions:
REMARK  status: ('A' for Active; 'I' for Inactive)
REMARK    1  A    between atoms: C_2  and  C_4 
REMARK    2  A    between atoms: C_7  and  C_8 
REMARK    3  A    between atoms: C_8  and  C_9 
REMARK       I    between atoms: C_9  and  N_11 
REMARK    4  A    between atoms: N_11  and  C_12 
ROOT
HETATM    1  C   UNL     1     -40.599 -49.195  14.507  1.00  0.00     0.224 C 
HETATM    2  O   UNL     1     -39.400 -49.460  14.531  1.00  0.00    -0.273 OA
HETATM    3  N   UNL     1     -41.134 -48.177  13.751  1.00  0.00    -0.347 N 
HETATM    4  H   UNL     1     -42.128 -47.989  13.845  1.00  0.00     0.163 HD
ENDROOT
BRANCH   1   5
HETATM    5  C   UNL     1     -41.617 -49.947  15.348  1.00  0.00     0.160 C 
BRANCH   5   6
HETATM    6  C   UNL     1     -42.538 -50.768  14.507  1.00  0.00     0.025 A 
HETATM    7  N   UNL     1     -43.884 -50.419  14.438  1.00  0.00    -0.356 N 
HETATM    8  C   UNL     1     -44.541 -51.286  13.691  1.00  0.00     0.054 A 
ATOM      9  HN  UNL     1     -44.301 -49.611  14.899  1.00  0.00     0.166 HD
HETATM   10  S   UNL     1     -43.577 -52.533  12.998  1.00  0.00    -0.086 SA
HETATM   11  C   UNL     1     -42.198 -51.891  13.778  1.00  0.00     0.077 A 
BRANCH   8  12
HETATM   12  C   UNL     1     -46.029 -51.257  13.434  1.00  0.00     0.035 C 
HETATM   13  C   UNL     1     -46.408 -52.268  12.351  1.00  0.00     0.016 C 
HETATM   14  C   UNL     1     -46.812 -51.527  14.719  1.00  0.00     0.016 C 
ENDBRANCH   8  12
ENDBRANCH   5   6
ENDBRANCH   1   5
BRANCH   3  15
HETATM   15  C   UNL     1     -40.333 -47.269  12.930  1.00  0.00     0.176 C 
HETATM   16  C   UNL     1     -40.450 -45.819  13.406  1.00  0.00     0.035 C 
HETATM   17  C   UNL     1     -39.368 -44.932  12.798  1.00  0.00     0.004 C 
HETATM   18  C   UNL     1     -39.725 -44.377  11.424  1.00  0.00     0.020 C 
HETATM   19  C   UNL     1     -40.636 -45.249  10.574  1.00  0.00     0.122 C 
HETATM   20  N   UNL     1     -40.235 -46.635  10.476  1.00  0.00    -0.359 N 
HETATM   21  C   UNL     1     -40.538 -47.577  11.427  1.00  0.00     0.240 C 
HETATM   22  H   UNL     1     -40.366 -47.044   9.558  1.00  0.00     0.162 HD
HETATM   23  O   UNL     1     -40.798 -48.717  11.025  1.00  0.00    -0.271 OA
ENDBRANCH   3  15
TORSDOF 4
ENDMDL
