MODEL 1
REMARK VINA RESULT:      -5.8      0.000      0.000
REMARK  3 active torsions:
REMARK  status: ('A' for Active; 'I' for Inactive)
REMARK    1  A    between atoms: C_1  and  N_3 
REMARK    2  A    between atoms: C_14  and  O_17 
REMARK    3  A    between atoms: C_14  and  C_18 
ROOT
HETATM    1  C   UNL     1     -44.211 -53.666  13.977  1.00  0.00     0.097 A 
HETATM    2  C   UNL     1     -45.183 -52.825  14.545  1.00  0.00     0.048 A 
HETATM    3  C   UNL     1     -46.441 -53.359  14.758  1.00  0.00     0.119 A 
HETATM    4  N   UNL     1     -44.581 -54.931  13.653  1.00  0.00    -0.342 N 
ATOM      5  HN  UNL     1     -43.922 -55.570  13.208  1.00  0.00     0.167 HD
HETATM    6  N   UNL     1     -46.841 -54.608  14.490  1.00  0.00    -0.338 N 
ATOM      7  HN  UNL     1     -47.776 -54.969  14.678  1.00  0.00     0.168 HD
HETATM    8  N   UNL     1     -47.235 -52.376  15.287  1.00  0.00    -0.351 N 
HETATM    9  C   UNL     1     -45.239 -51.462  14.954  1.00  0.00     0.036 A 
HETATM   10  C   UNL     1     -45.842 -55.324  13.936  1.00  0.00     0.183 A 
HETATM   11  C   UNL     1     -46.515 -51.212  15.407  1.00  0.00     0.091 A 
HETATM   12  H   UNL     1     -48.206 -52.504  15.524  1.00  0.00     0.166 HD
ENDROOT
BRANCH   1  13
HETATM   13  N   UNL     1     -42.945 -53.185  13.700  1.00  0.00    -0.266 NA
HETATM   14  C   UNL     1     -42.662 -52.643  12.375  1.00  0.00     0.134 C 
HETATM   15  C   UNL     1     -41.104 -52.538  12.352  1.00  0.00     0.071 C 
HETATM   16  C   UNL     1     -40.646 -53.229  13.651  1.00  0.00     0.054 C 
HETATM   17  C   UNL     1     -41.847 -54.077  14.049  1.00  0.00     0.100 C 
BRANCH  15  18
HETATM   18  O   UNL     1     -40.566 -53.283  11.253  1.00  0.00    -0.389 OA
HETATM   19  H   UNL     1     -40.187 -52.646  10.621  1.00  0.00     0.210 HD
ENDBRANCH  15  18
BRANCH  15  20
HETATM   20  C   UNL     1     -40.633 -51.076  12.268  1.00  0.00     0.034 C 
HETATM   21  C   UNL     1     -41.766 -50.071  12.102  1.00  0.00     0.008 C 
ENDBRANCH  15  20
ENDBRANCH   1  13
TORSDOF 3
ENDMDL
MODEL 2
REMARK VINA RESULT:      -5.7      2.564      5.816
REMARK  3 active torsions:
REMARK  status: ('A' for Active; 'I' for Inactive)
REMARK    1  A    between atoms: C_1  and  N_3 
REMARK    2  A    between atoms: C_14  and  O_17 
REMARK    3  A    between atoms: C_14  and  C_18 
ROOT
HETATM    1  C   UNL     1     -42.104 -51.469  12.815  1.00  0.00     0.097 A 
HETATM    2  C   UNL     1     -40.994 -52.024  13.475  1.00  0.00     0.048 A 
HETATM    3  C   UNL     1     -39.738 -51.642  13.039  1.00  0.00     0.119 A 
HETATM    4  N   UNL     1     -41.867 -50.621  11.782  1.00  0.00    -0.342 N 
ATOM      5  HN  UNL     1     -42.639 -50.219  11.250  1.00  0.00     0.167 HD
HETATM    6  N   UNL     1     -39.456 -50.783  12.051  1.00  0.00    -0.338 N 
ATOM      7  HN  UNL     1     -38.513 -50.513  11.771  1.00  0.00     0.168 HD
HETATM    8  N   UNL     1     -38.808 -52.310  13.789  1.00  0.00    -0.351 N 
HETATM    9  C   UNL     1     -40.797 -52.970  14.520  1.00  0.00     0.036 A 
HETATM   10  C   UNL     1     -40.586 -50.323  11.477  1.00  0.00     0.183 A 
HETATM   11  C   UNL     1     -39.440 -53.128  14.693  1.00  0.00     0.091 A 
HETATM   12  H   UNL     1     -37.812 -52.217  13.663  1.00  0.00     0.166 HD
ENDROOT
BRANCH   1  13
HETATM   13  N   UNL     1     -43.387 -51.838  13.174  1.00  0.00    -0.266 NA
HETATM   14  C   UNL     1     -44.026 -52.957  12.488  1.00  0.00     0.134 C 
HETATM   15  C   UNL     1     -45.524 -52.836  12.914  1.00  0.00     0.071 C 
HETATM   16  C   UNL     1     -45.605 -51.502  13.680  1.00  0.00     0.054 C 
HETATM   17  C   UNL     1     -44.357 -50.753  13.231  1.00  0.00     0.100 C 
BRANCH  15  18
HETATM   18  O   UNL     1     -46.367 -52.725  11.760  1.00  0.00    -0.389 OA
HETATM   19  H   UNL     1     -47.220 -53.142  11.977  1.00  0.00     0.210 HD
ENDBRANCH  15  18
BRANCH  15  20
HETATM   20  C   UNL     1     -45.971 -54.034  13.770  1.00  0.00     0.034 C 
HETATM   21  C   UNL     1     -44.846 -55.003  14.111  1.00  0.00     0.008 C 
ENDBRANCH  15  20
ENDBRANCH   1  13
TORSDOF 3
ENDMDL
MODEL 3
REMARK VINA RESULT:      -5.5      4.664      6.974
REMARK  3 active torsions:
REMARK  status: ('A' for Active; 'I' for Inactive)
REMARK    1  A    between atoms: C_1  and  N_3 
REMARK    2  A    between atoms: C_14  and  O_17 
REMARK    3  A    between atoms: C_14  and  C_18 
ROOT
HETATM    1  C   UNL     1     -41.472 -48.372  11.162  1.00  0.00     0.097 A 
HETATM    2  C   UNL     1     -40.915 -47.086  11.264  1.00  0.00     0.048 A 
HETATM    3  C   UNL     1     -41.382 -46.119  10.392  1.00  0.00     0.119 A 
HETATM    4  N   UNL     1     -42.407 -48.582  10.200  1.00  0.00    -0.342 N 
ATOM      5  HN  UNL     1     -42.817 -49.506  10.063  1.00  0.00     0.167 HD
HETATM    6  N   UNL     1     -42.327 -46.269   9.454  1.00  0.00    -0.338 N 
ATOM      7  HN  UNL     1     -42.657 -45.524   8.841  1.00  0.00     0.168 HD
HETATM    8  N   UNL     1     -40.698 -44.959  10.639  1.00  0.00    -0.351 N 
HETATM    9  C   UNL     1     -39.899 -46.474  12.052  1.00  0.00     0.036 A 
HETATM   10  C   UNL     1     -42.782 -47.538   9.430  1.00  0.00     0.183 A 
HETATM   11  C   UNL     1     -39.786 -45.163  11.646  1.00  0.00     0.091 A 
HETATM   12  H   UNL     1     -40.842 -44.102  10.129  1.00  0.00     0.166 HD
ENDROOT
BRANCH   1  13
HETATM   13  N   UNL     1     -41.023 -49.396  11.975  1.00  0.00    -0.266 NA
HETATM   14  C   UNL     1     -39.918 -50.235  11.521  1.00  0.00     0.134 C 
HETATM   15  C   UNL     1     -39.943 -51.437  12.517  1.00  0.00     0.071 C 
HETATM   16  C   UNL     1     -41.224 -51.229  13.348  1.00  0.00     0.054 C 
HETATM   17  C   UNL     1     -42.055 -50.282  12.494  1.00  0.00     0.100 C 
BRANCH  15  18
HETATM   18  O   UNL     1     -40.083 -52.674  11.808  1.00  0.00    -0.389 OA
HETATM   19  H   UNL     1     -40.606 -53.277  12.366  1.00  0.00     0.210 HD
ENDBRANCH  15  18
BRANCH  15  20
HETATM   20  C   UNL     1     -38.677 -51.480  13.390  1.00  0.00     0.034 C 
HETATM   21  C   UNL     1     -37.459 -50.831  12.744  1.00  0.00     0.008 C 
ENDBRANCH  15  20
ENDBRANCH   1  13
TORSDOF 3
ENDMDL
MODEL 4
REMARK VINA RESULT:      -5.5      2.467      5.409
REMARK  3 active torsions:
REMARK  status: ('A' for Active; 'I' for Inactive)
REMARK    1  A    between atoms: C_1  and  N_3 
REMARK    2  A    between atoms: C_14  and  O_17 
REMARK    3  A    between atoms: C_14  and  C_18 
ROOT
HETATM    1  C   UNL     1     -43.027 -52.817  13.137  1.00  0.00     0.097 A 
HETATM    2  C   UNL     1     -42.094 -51.908  12.607  1.00  0.00     0.048 A 
HETATM    3  C   UNL     1     -40.805 -52.365  12.401  1.00  0.00     0.119 A 
HETATM    4  N   UNL     1     -42.591 -54.067  13.434  1.00  0.00    -0.342 N 
ATOM      5  HN  UNL     1     -43.220 -54.753  13.852  1.00  0.00     0.167 HD
HETATM    6  N   UNL     1     -40.340 -53.598  12.644  1.00  0.00    -0.338 N 
ATOM      7  HN  UNL     1     -39.384 -53.901  12.462  1.00  0.00     0.168 HD
HETATM    8  N   UNL     1     -40.060 -51.327  11.911  1.00  0.00    -0.351 N 
HETATM    9  C   UNL     1     -42.108 -50.534  12.234  1.00  0.00     0.036 A 
HETATM   10  C   UNL     1     -41.306 -54.382  13.163  1.00  0.00     0.183 A 
HETATM   11  C   UNL     1     -40.841 -50.202  11.809  1.00  0.00     0.091 A 
HETATM   12  H   UNL     1     -39.080 -51.395  11.687  1.00  0.00     0.166 HD
ENDROOT
BRANCH   1  13
HETATM   13  N   UNL     1     -44.321 -52.414  13.404  1.00  0.00    -0.266 NA
HETATM   14  C   UNL     1     -44.985 -52.900  14.611  1.00  0.00     0.134 C 
HETATM   15  C   UNL     1     -46.482 -52.520  14.379  1.00  0.00     0.071 C 
HETATM   16  C   UNL     1     -46.533 -52.002  12.929  1.00  0.00     0.054 C 
HETATM   17  C   UNL     1     -45.262 -52.561  12.303  1.00  0.00     0.100 C 
BRANCH  15  18
HETATM   18  O   UNL     1     -47.313 -53.685  14.452  1.00  0.00    -0.389 OA
HETATM   19  H   UNL     1     -46.811 -54.430  14.076  1.00  0.00     0.210 HD
ENDBRANCH  15  18
BRANCH  15  20
HETATM   20  C   UNL     1     -46.967 -51.472  15.395  1.00  0.00     0.034 C 
HETATM   21  C   UNL     1     -45.857 -50.889  16.259  1.00  0.00     0.008 C 
ENDBRANCH  15  20
ENDBRANCH   1  13
TORSDOF 3
ENDMDL
MODEL 5
REMARK VINA RESULT:      -5.4      1.695      2.005
REMARK  3 active torsions:
REMARK  status: ('A' for Active; 'I' for Inactive)
REMARK    1  A    between atoms: C_1  and  N_3 
REMARK    2  A    between atoms: C_14  and  O_17 
REMARK    3  A    between atoms: C_14  and  C_18 
ROOT
HETATM    1  C   UNL     1     -44.436 -52.346  13.324  1.00  0.00     0.097 A 
HETATM    2  C   UNL     1     -45.094 -51.872  14.472  1.00  0.00     0.048 A 
HETATM    3  C   UNL     1     -46.432 -51.544  14.349  1.00  0.00     0.119 A 
HETATM    4  N   UNL     1     -45.150 -52.423  12.173  1.00  0.00    -0.342 N 
ATOM      5  HN  UNL     1     -44.710 -52.728  11.304  1.00  0.00     0.167 HD
HETATM    6  N   UNL     1     -47.186 -51.638  13.246  1.00  0.00    -0.338 N 
ATOM      7  HN  UNL     1     -48.177 -51.402  13.201  1.00  0.00     0.168 HD
HETATM    8  N   UNL     1     -46.869 -51.084  15.563  1.00  0.00    -0.351 N 
HETATM    9  C   UNL     1     -44.720 -51.580  15.814  1.00  0.00     0.036 A 
HETATM   10  C   UNL     1     -46.458 -52.086  12.204  1.00  0.00     0.183 A 
HETATM   11  C   UNL     1     -45.834 -51.096  16.464  1.00  0.00     0.091 A 
HETATM   12  H   UNL     1     -47.810 -50.768  15.738  1.00  0.00     0.166 HD
ENDROOT
BRANCH   1  13
HETATM   13  N   UNL     1     -43.089 -52.654  13.367  1.00  0.00    -0.266 NA
HETATM   14  C   UNL     1     -42.183 -52.027  12.409  1.00  0.00     0.134 C 
HETATM   15  C   UNL     1     -40.872 -52.864  12.549  1.00  0.00     0.071 C 
HETATM   16  C   UNL     1     -41.253 -54.034  13.477  1.00  0.00     0.054 C 
HETATM   17  C   UNL     1     -42.773 -54.075  13.397  1.00  0.00     0.100 C 
BRANCH  15  18
HETATM   18  O   UNL     1     -40.494 -53.421  11.284  1.00  0.00    -0.389 OA
HETATM   19  H   UNL     1     -41.211 -53.231  10.652  1.00  0.00     0.210 HD
ENDBRANCH  15  18
BRANCH  15  20
HETATM   20  C   UNL     1     -39.715 -52.021  13.111  1.00  0.00     0.034 C 
HETATM   21  C   UNL     1     -39.199 -52.503  14.461  1.00  0.00     0.008 C 
ENDBRANCH  15  20
ENDBRANCH   1  13
TORSDOF 3
ENDMDL
MODEL 6
REMARK VINA RESULT:      -5.3      2.821      5.846
REMARK  3 active torsions:
REMARK  status: ('A' for Active; 'I' for Inactive)
REMARK    1  A    between atoms: C_1  and  N_3 
REMARK    2  A    between atoms: C_14  and  O_17 
REMARK    3  A    between atoms: C_14  and  C_18 
ROOT
HETATM    1  C   UNL     1     -43.197 -50.999  12.982  1.00  0.00     0.097 A 
HETATM    2  C   UNL     1     -42.418 -52.153  12.793  1.00  0.00     0.048 A 
HETATM    3  C   UNL     1     -41.280 -52.032  12.016  1.00  0.00     0.119 A 
HETATM    4  N   UNL     1     -42.795 -49.857  12.370  1.00  0.00    -0.342 N 
ATOM      5  HN  UNL     1     -43.344 -49.001  12.448  1.00  0.00     0.167 HD
HETATM    6  N   UNL     1     -40.824 -50.921  11.423  1.00  0.00    -0.338 N 
ATOM      7  HN  UNL     1     -39.968 -50.870  10.871  1.00  0.00     0.168 HD
HETATM    8  N   UNL     1     -40.687 -53.264  11.937  1.00  0.00    -0.351 N 
HETATM    9  C   UNL     1     -42.509 -53.521  13.179  1.00  0.00     0.036 A 
HETATM   10  C   UNL     1     -41.649 -49.881  11.654  1.00  0.00     0.183 A 
HETATM   11  C   UNL     1     -41.430 -54.183  12.638  1.00  0.00     0.091 A 
HETATM   12  H   UNL     1     -39.844 -53.451  11.417  1.00  0.00     0.166 HD
ENDROOT
BRANCH   1  13
HETATM   13  N   UNL     1     -44.368 -51.058  13.714  1.00  0.00    -0.266 NA
HETATM   14  C   UNL     1     -44.342 -51.632  15.056  1.00  0.00     0.134 C 
HETATM   15  C   UNL     1     -45.854 -51.831  15.394  1.00  0.00     0.071 C 
HETATM   16  C   UNL     1     -46.594 -51.504  14.083  1.00  0.00     0.054 C 
HETATM   17  C   UNL     1     -45.512 -51.632  13.019  1.00  0.00     0.100 C 
BRANCH  15  18
HETATM   18  O   UNL     1     -46.121 -53.203  15.711  1.00  0.00    -0.389 OA
HETATM   19  H   UNL     1     -46.647 -53.578  14.982  1.00  0.00     0.210 HD
ENDBRANCH  15  18
BRANCH  15  20
HETATM   20  C   UNL     1     -46.300 -50.933  16.560  1.00  0.00     0.034 C 
HETATM   21  C   UNL     1     -47.778 -51.060  16.907  1.00  0.00     0.008 C 
ENDBRANCH  15  20
ENDBRANCH   1  13
TORSDOF 3
ENDMDL
MODEL 7
REMARK VINA RESULT:      -5.2      3.020      6.315
REMARK  3 active torsions:
REMARK  status: ('A' for Active; 'I' for Inactive)
REMARK    1  A    between atoms: C_1  and  N_3 
REMARK    2  A    between atoms: C_14  and  O_17 
REMARK    3  A    between atoms: C_14  and  C_18 
ROOT
HETATM    1  C   UNL     1     -41.610 -50.258  12.231  1.00  0.00     0.097 A 
HETATM    2  C   UNL     1     -40.215 -50.119  12.332  1.00  0.00     0.048 A 
HETATM    3  C   UNL     1     -39.628 -49.072  11.644  1.00  0.00     0.119 A 
HETATM    4  N   UNL     1     -42.278 -49.375  11.446  1.00  0.00    -0.342 N 
ATOM      5  HN  UNL     1     -43.287 -49.454  11.313  1.00  0.00     0.167 HD
HETATM    6  N   UNL     1     -40.249 -48.157  10.889  1.00  0.00    -0.338 N 
ATOM      7  HN  UNL     1     -39.781 -47.387  10.411  1.00  0.00     0.168 HD
HETATM    8  N   UNL     1     -38.277 -49.132  11.853  1.00  0.00    -0.351 N 
HETATM    9  C   UNL     1     -39.162 -50.838  12.965  1.00  0.00     0.036 A 
HETATM   10  C   UNL     1     -41.576 -48.389  10.846  1.00  0.00     0.183 A 
HETATM   11  C   UNL     1     -37.977 -50.208  12.653  1.00  0.00     0.091 A 
HETATM   12  H   UNL     1     -37.616 -48.486  11.451  1.00  0.00     0.166 HD
ENDROOT
BRANCH   1  13
HETATM   13  N   UNL     1     -42.256 -51.306  12.861  1.00  0.00    -0.266 NA
HETATM   14  C   UNL     1     -42.168 -52.645  12.288  1.00  0.00     0.134 C 
HETATM   15  C   UNL     1     -43.270 -53.441  13.057  1.00  0.00     0.071 C 
HETATM   16  C   UNL     1     -44.013 -52.377  13.886  1.00  0.00     0.054 C 
HETATM   17  C   UNL     1     -43.653 -51.068  13.197  1.00  0.00     0.100 C 
BRANCH  15  18
HETATM   18  O   UNL     1     -44.212 -54.010  12.139  1.00  0.00    -0.389 OA
HETATM   19  H   UNL     1     -43.781 -54.770  11.708  1.00  0.00     0.210 HD
ENDBRANCH  15  18
BRANCH  15  20
HETATM   20  C   UNL     1     -42.664 -54.551  13.933  1.00  0.00     0.034 C 
HETATM   21  C   UNL     1     -43.448 -54.827  15.210  1.00  0.00     0.008 C 
ENDBRANCH  15  20
ENDBRANCH   1  13
TORSDOF 3
ENDMDL
MODEL 8
REMARK VINA RESULT:      -5.1      3.373      6.279
REMARK  3 active torsions:
REMARK  status: ('A' for Active; 'I' for Inactive)
REMARK    1  A    between atoms: C_1  and  N_3 
REMARK    2  A    between atoms: C_14  and  O_17 
REMARK    3  A    between atoms: C_14  and  C_18 
ROOT
HETATM    1  C   UNL     1     -41.577 -50.040  12.144  1.00  0.00     0.097 A 
HETATM    2  C   UNL     1     -41.764 -48.846  11.425  1.00  0.00     0.048 A 
HETATM    3  C   UNL     1     -40.632 -48.132  11.075  1.00  0.00     0.119 A 
HETATM    4  N   UNL     1     -40.307 -50.392  12.466  1.00  0.00    -0.342 N 
ATOM      5  HN  UNL     1     -40.122 -51.231  13.016  1.00  0.00     0.167 HD
HETATM    6  N   UNL     1     -39.360 -48.457  11.338  1.00  0.00    -0.338 N 
ATOM      7  HN  UNL     1     -38.551 -47.910  11.046  1.00  0.00     0.168 HD
HETATM    8  N   UNL     1     -41.033 -47.003  10.411  1.00  0.00    -0.351 N 
HETATM    9  C   UNL     1     -42.883 -48.100  10.960  1.00  0.00     0.036 A 
HETATM   10  C   UNL     1     -39.294 -49.606  12.041  1.00  0.00     0.183 A 
HETATM   11  C   UNL     1     -42.404 -46.968  10.339  1.00  0.00     0.091 A 
HETATM   12  H   UNL     1     -40.399 -46.303  10.058  1.00  0.00     0.166 HD
ENDROOT
BRANCH   1  13
HETATM   13  N   UNL     1     -42.666 -50.783  12.560  1.00  0.00    -0.266 NA
HETATM   14  C   UNL     1     -43.275 -50.492  13.854  1.00  0.00     0.134 C 
HETATM   15  C   UNL     1     -44.206 -51.721  14.101  1.00  0.00     0.071 C 
HETATM   16  C   UNL     1     -43.872 -52.700  12.958  1.00  0.00     0.054 C 
HETATM   17  C   UNL     1     -42.510 -52.228  12.469  1.00  0.00     0.100 C 
BRANCH  15  18
HETATM   18  O   UNL     1     -43.870 -52.366  15.336  1.00  0.00    -0.389 OA
HETATM   19  H   UNL     1     -44.205 -51.809  16.061  1.00  0.00     0.210 HD
ENDBRANCH  15  18
BRANCH  15  20
HETATM   20  C   UNL     1     -45.691 -51.318  14.114  1.00  0.00     0.034 C 
HETATM   21  C   UNL     1     -46.423 -51.616  12.812  1.00  0.00     0.008 C 
ENDBRANCH  15  20
ENDBRANCH   1  13
TORSDOF 3
ENDMDL
MODEL 9
REMARK VINA RESULT:      -5.1      3.182      5.024
REMARK  3 active torsions:
REMARK  status: ('A' for Active; 'I' for Inactive)
REMARK    1  A    between atoms: C_1  and  N_3 
REMARK    2  A    between atoms: C_14  and  O_17 
REMARK    3  A    between atoms: C_14  and  C_18 
ROOT
HETATM    1  C   UNL     1     -41.832 -50.306  12.143  1.00  0.00     0.097 A 
HETATM    2  C   UNL     1     -42.876 -50.888  12.883  1.00  0.00     0.048 A 
HETATM    3  C   UNL     1     -42.931 -52.270  12.927  1.00  0.00     0.119 A 
HETATM    4  N   UNL     1     -40.971 -51.137  11.504  1.00  0.00    -0.342 N 
ATOM      5  HN  UNL     1     -40.217 -50.763  10.926  1.00  0.00     0.167 HD
HETATM    6  N   UNL     1     -42.085 -53.128  12.344  1.00  0.00    -0.338 N 
ATOM      7  HN  UNL     1     -42.150 -54.143  12.415  1.00  0.00     0.168 HD
HETATM    8  N   UNL     1     -44.025 -52.627  13.669  1.00  0.00    -0.351 N 
HETATM    9  C   UNL     1     -43.995 -50.408  13.621  1.00  0.00     0.036 A 
HETATM   10  C   UNL     1     -41.135 -52.470  11.650  1.00  0.00     0.183 A 
HETATM   11  C   UNL     1     -44.686 -51.501  14.094  1.00  0.00     0.091 A 
HETATM   12  H   UNL     1     -44.298 -53.581  13.844  1.00  0.00     0.166 HD
ENDROOT
BRANCH   1  13
HETATM   13  N   UNL     1     -41.741 -48.932  12.025  1.00  0.00    -0.266 NA
HETATM   14  C   UNL     1     -41.623 -48.337  10.697  1.00  0.00     0.134 C 
HETATM   15  C   UNL     1     -41.207 -46.861  10.998  1.00  0.00     0.071 C 
HETATM   16  C   UNL     1     -40.950 -46.830  12.517  1.00  0.00     0.054 C 
HETATM   17  C   UNL     1     -40.746 -48.295  12.877  1.00  0.00     0.100 C 
BRANCH  15  18
HETATM   18  O   UNL     1     -39.973 -46.543  10.343  1.00  0.00    -0.389 OA
HETATM   19  H   UNL     1     -40.005 -46.929   9.449  1.00  0.00     0.210 HD
ENDBRANCH  15  18
BRANCH  15  20
HETATM   20  C   UNL     1     -42.296 -45.864  10.566  1.00  0.00     0.034 C 
HETATM   21  C   UNL     1     -43.044 -46.275   9.305  1.00  0.00     0.008 C 
ENDBRANCH  15  20
ENDBRANCH   1  13
TORSDOF 3
ENDMDL
