MODEL 1
REMARK VINA RESULT:      -6.6      0.000      0.000
REMARK  7 active torsions:
REMARK  status: ('A' for Active; 'I' for Inactive)
REMARK    1  A    between atoms: C_2  and  C_3 
REMARK    2  A    between atoms: C_7  and  C_8 
REMARK    3  A    between atoms: C_8  and  N_9 
REMARK    4  A    between atoms: N_9  and  C_10 
REMARK    5  A    between atoms: C_10  and  C_11 
REMARK    6  A    between atoms: C_11  and  O_13 
REMARK    7  A    between atoms: C_11  and  C_14 
ROOT
HETATM    1  C   UNL     1     -41.474 -50.275  12.382  1.00  0.00     0.311 C 
ENDROOT
BRANCH   1   2
HETATM    2  N   UNL     1     -41.960 -51.484  11.698  1.00  0.00     0.087 N 
HETATM    3  H   UNL     1     -42.981 -51.426  11.684  1.00  0.00     0.316 HD
BRANCH   2   4
HETATM    4  C   UNL     1     -41.587 -52.709  12.410  1.00  0.00     0.274 C 
BRANCH   4   5
HETATM    5  C   UNL     1     -42.791 -53.166  13.256  1.00  0.00     0.014 C 
HETATM    6  C   UNL     1     -42.506 -54.458  14.049  1.00  0.00     0.006 C 
HETATM    7  C   UNL     1     -43.719 -54.945  14.834  1.00  0.00     0.001 C 
HETATM    8  C   UNL     1     -44.955 -55.064  13.952  1.00  0.00     0.005 C 
HETATM    9  C   UNL     1     -45.274 -53.761  13.203  1.00  0.00    -0.014 C 
HETATM   10  C   UNL     1     -44.044 -53.347  12.377  1.00  0.00     0.011 C 
BRANCH   9  11
HETATM   11  C   UNL     1     -45.725 -52.601  14.121  1.00  0.00     0.000 C 
HETATM   12  C   UNL     1     -46.466 -51.484  13.404  1.00  0.00     0.005 C 
ENDBRANCH   9  11
ENDBRANCH   4   5
ENDBRANCH   2   4
ENDBRANCH   1   2
BRANCH   1  13
HETATM   13  C   UNL     1     -40.923 -49.238  11.350  1.00  0.00     0.110 C 
HETATM   14  C   UNL     1     -39.681 -48.509  11.897  1.00  0.00     0.053 C 
BRANCH  13  15
HETATM   15  O   UNL     1     -40.499 -49.972  10.181  1.00  0.00    -0.383 OA
HETATM   16  H   UNL     1     -41.282 -50.030   9.608  1.00  0.00     0.211 HD
ENDBRANCH  13  15
BRANCH  13  17
HETATM   17  C   UNL     1     -41.991 -48.251  10.974  1.00  0.00     0.011 A 
HETATM   18  C   UNL     1     -42.828 -47.501  11.836  1.00  0.00     0.119 A 
HETATM   19  N   UNL     1     -43.677 -46.715  11.175  1.00  0.00    -0.310 N 
HETATM   20  N   UNL     1     -43.382 -46.952   9.883  1.00  0.00    -0.307 N 
ATOM     21  HN  UNL     1     -44.382 -46.084  11.557  1.00  0.00     0.186 HD
HETATM   22  C   UNL     1     -44.099 -46.262   8.839  1.00  0.00     0.177 C 
HETATM   23  C   UNL     1     -42.389 -47.861   9.712  1.00  0.00     0.121 A 
ENDBRANCH  13  17
ENDBRANCH   1  13
TORSDOF 7
ENDMDL
MODEL 2
REMARK VINA RESULT:      -6.4      1.687      2.427
REMARK  7 active torsions:
REMARK  status: ('A' for Active; 'I' for Inactive)
REMARK    1  A    between atoms: C_2  and  C_3 
REMARK    2  A    between atoms: C_7  and  C_8 
REMARK    3  A    between atoms: C_8  and  N_9 
REMARK    4  A    between atoms: N_9  and  C_10 
REMARK    5  A    between atoms: C_10  and  C_11 
REMARK    6  A    between atoms: C_11  and  O_13 
REMARK    7  A    between atoms: C_11  and  C_14 
ROOT
HETATM    1  C   UNL     1     -42.385 -48.303  11.868  1.00  0.00     0.311 C 
ENDROOT
BRANCH   1   2
HETATM    2  N   UNL     1     -42.311 -49.767  11.737  1.00  0.00     0.087 N 
HETATM    3  H   UNL     1     -43.221 -50.079  11.391  1.00  0.00     0.316 HD
BRANCH   2   4
HETATM    4  C   UNL     1     -42.065 -50.426  13.021  1.00  0.00     0.274 C 
BRANCH   4   5
HETATM    5  C   UNL     1     -43.252 -51.361  13.324  1.00  0.00     0.014 C 
HETATM    6  C   UNL     1     -43.235 -52.643  12.467  1.00  0.00     0.006 C 
HETATM    7  C   UNL     1     -44.445 -53.535  12.721  1.00  0.00     0.001 C 
HETATM    8  C   UNL     1     -45.754 -52.766  12.593  1.00  0.00     0.005 C 
HETATM    9  C   UNL     1     -45.796 -51.518  13.487  1.00  0.00    -0.014 C 
HETATM   10  C   UNL     1     -44.593 -50.620  13.148  1.00  0.00     0.011 C 
BRANCH   9  11
HETATM   11  C   UNL     1     -45.829 -51.829  15.002  1.00  0.00     0.000 C 
HETATM   12  C   UNL     1     -47.153 -51.516  15.679  1.00  0.00     0.005 C 
ENDBRANCH   9  11
ENDBRANCH   4   5
ENDBRANCH   2   4
ENDBRANCH   1   2
BRANCH   1  13
HETATM   13  C   UNL     1     -42.150 -47.609  10.487  1.00  0.00     0.110 C 
HETATM   14  C   UNL     1     -41.158 -46.437  10.610  1.00  0.00     0.053 C 
BRANCH  13  15
HETATM   15  O   UNL     1     -41.544 -48.583   9.610  1.00  0.00    -0.383 OA
HETATM   16  H   UNL     1     -40.644 -48.260   9.438  1.00  0.00     0.211 HD
ENDBRANCH  13  15
BRANCH  13  17
HETATM   17  C   UNL     1     -43.452 -47.139   9.906  1.00  0.00     0.011 A 
HETATM   18  C   UNL     1     -43.707 -45.945   9.189  1.00  0.00     0.119 A 
HETATM   19  N   UNL     1     -44.981 -45.830   8.813  1.00  0.00    -0.310 N 
HETATM   20  N   UNL     1     -45.549 -46.956   9.284  1.00  0.00    -0.307 N 
ATOM     21  HN  UNL     1     -45.421 -45.070   8.295  1.00  0.00     0.186 HD
HETATM   22  C   UNL     1     -46.952 -47.207   9.062  1.00  0.00     0.177 C 
HETATM   23  C   UNL     1     -44.682 -47.765   9.944  1.00  0.00     0.121 A 
ENDBRANCH  13  17
ENDBRANCH   1  13
TORSDOF 7
ENDMDL
MODEL 3
REMARK VINA RESULT:      -6.1      1.958      3.147
REMARK  7 active torsions:
REMARK  status: ('A' for Active; 'I' for Inactive)
REMARK    1  A    between atoms: C_2  and  C_3 
REMARK    2  A    between atoms: C_7  and  C_8 
REMARK    3  A    between atoms: C_8  and  N_9 
REMARK    4  A    between atoms: N_9  and  C_10 
REMARK    5  A    between atoms: C_10  and  C_11 
REMARK    6  A    between atoms: C_11  and  O_13 
REMARK    7  A    between atoms: C_11  and  C_14 
ROOT
HETATM    1  C   UNL     1     -41.958 -52.770  13.413  1.00  0.00     0.311 C 
ENDROOT
BRANCH   1   2
HETATM    2  N   UNL     1     -42.671 -53.794  12.633  1.00  0.00     0.087 N 
HETATM    3  H   UNL     1     -42.170 -53.894  11.747  1.00  0.00     0.316 HD
BRANCH   2   4
HETATM    4  C   UNL     1     -44.048 -53.400  12.330  1.00  0.00     0.274 C 
BRANCH   4   5
HETATM    5  C   UNL     1     -44.746 -53.012  13.649  1.00  0.00     0.014 C 
HETATM    6  C   UNL     1     -45.607 -54.154  14.225  1.00  0.00     0.006 C 
HETATM    7  C   UNL     1     -46.349 -53.747  15.494  1.00  0.00     0.001 C 
HETATM    8  C   UNL     1     -47.141 -52.460  15.301  1.00  0.00     0.005 C 
HETATM    9  C   UNL     1     -46.273 -51.306  14.778  1.00  0.00    -0.014 C 
HETATM   10  C   UNL     1     -45.599 -51.742  13.465  1.00  0.00     0.011 C 
BRANCH   9  11
HETATM   11  C   UNL     1     -45.215 -50.805  15.789  1.00  0.00     0.000 C 
HETATM   12  C   UNL     1     -45.784 -50.365  17.128  1.00  0.00     0.005 C 
ENDBRANCH   9  11
ENDBRANCH   4   5
ENDBRANCH   2   4
ENDBRANCH   1   2
BRANCH   1  13
HETATM   13  C   UNL     1     -40.737 -52.212  12.612  1.00  0.00     0.110 C 
HETATM   14  C   UNL     1     -39.487 -52.096  13.504  1.00  0.00     0.053 C 
BRANCH  13  15
HETATM   15  O   UNL     1     -40.427 -53.167  11.573  1.00  0.00    -0.383 OA
HETATM   16  H   UNL     1     -40.258 -54.009  12.030  1.00  0.00     0.211 HD
ENDBRANCH  13  15
BRANCH  13  17
HETATM   17  C   UNL     1     -41.074 -50.884  11.998  1.00  0.00     0.011 A 
HETATM   18  C   UNL     1     -40.323 -50.145  11.050  1.00  0.00     0.119 A 
HETATM   19  N   UNL     1     -40.905 -48.995  10.713  1.00  0.00    -0.310 N 
HETATM   20  N   UNL     1     -42.039 -48.994  11.439  1.00  0.00    -0.307 N 
ATOM     21  HN  UNL     1     -40.572 -48.285  10.061  1.00  0.00     0.186 HD
HETATM   22  C   UNL     1     -42.964 -47.892  11.336  1.00  0.00     0.177 C 
HETATM   23  C   UNL     1     -42.183 -50.094  12.221  1.00  0.00     0.121 A 
ENDBRANCH  13  17
ENDBRANCH   1  13
TORSDOF 7
ENDMDL
MODEL 4
REMARK VINA RESULT:      -6.0      1.650      2.183
REMARK  7 active torsions:
REMARK  status: ('A' for Active; 'I' for Inactive)
REMARK    1  A    between atoms: C_2  and  C_3 
REMARK    2  A    between atoms: C_7  and  C_8 
REMARK    3  A    between atoms: C_8  and  N_9 
REMARK    4  A    between atoms: N_9  and  C_10 
REMARK    5  A    between atoms: C_10  and  C_11 
REMARK    6  A    between atoms: C_11  and  O_13 
REMARK    7  A    between atoms: C_11  and  C_14 
ROOT
HETATM    1  C   UNL     1     -41.396 -49.493  12.811  1.00  0.00     0.311 C 
ENDROOT
BRANCH   1   2
HETATM    2  N   UNL     1     -42.173 -50.729  12.622  1.00  0.00     0.087 N 
HETATM    3  H   UNL     1     -42.989 -50.481  12.058  1.00  0.00     0.316 HD
BRANCH   2   4
HETATM    4  C   UNL     1     -42.650 -51.281  13.891  1.00  0.00     0.274 C 
BRANCH   4   5
HETATM    5  C   UNL     1     -44.191 -51.289  13.870  1.00  0.00     0.014 C 
HETATM    6  C   UNL     1     -44.807 -51.233  15.283  1.00  0.00     0.006 C 
HETATM    7  C   UNL     1     -46.330 -51.307  15.264  1.00  0.00     0.001 C 
HETATM    8  C   UNL     1     -46.829 -52.500  14.458  1.00  0.00     0.005 C 
HETATM    9  C   UNL     1     -46.260 -52.529  13.032  1.00  0.00    -0.014 C 
HETATM   10  C   UNL     1     -44.723 -52.518  13.106  1.00  0.00     0.011 C 
BRANCH   9  11
HETATM   11  C   UNL     1     -46.766 -51.380  12.127  1.00  0.00     0.000 C 
HETATM   12  C   UNL     1     -47.576 -51.837  10.925  1.00  0.00     0.005 C 
ENDBRANCH   9  11
ENDBRANCH   4   5
ENDBRANCH   2   4
ENDBRANCH   1   2
BRANCH   1  13
HETATM   13  C   UNL     1     -40.593 -49.139  11.518  1.00  0.00     0.110 C 
HETATM   14  C   UNL     1     -39.114 -48.849  11.838  1.00  0.00     0.053 C 
BRANCH  13  15
HETATM   15  O   UNL     1     -40.618 -50.300  10.659  1.00  0.00    -0.383 OA
HETATM   16  H   UNL     1     -41.320 -50.133  10.009  1.00  0.00     0.211 HD
ENDBRANCH  13  15
BRANCH  13  17
HETATM   17  C   UNL     1     -41.219 -47.970  10.813  1.00  0.00     0.011 A 
HETATM   18  C   UNL     1     -40.745 -46.637  10.742  1.00  0.00     0.119 A 
HETATM   19  N   UNL     1     -41.546 -45.841  10.035  1.00  0.00    -0.310 N 
HETATM   20  N   UNL     1     -42.537 -46.663   9.642  1.00  0.00    -0.307 N 
ATOM     21  HN  UNL     1     -41.436 -44.846   9.839  1.00  0.00     0.186 HD
HETATM   22  C   UNL     1     -43.617 -46.159   8.829  1.00  0.00     0.177 C 
HETATM   23  C   UNL     1     -42.390 -47.938  10.083  1.00  0.00     0.121 A 
ENDBRANCH  13  17
ENDBRANCH   1  13
TORSDOF 7
ENDMDL
MODEL 5
REMARK VINA RESULT:      -6.0      2.050      3.410
REMARK  7 active torsions:
REMARK  status: ('A' for Active; 'I' for Inactive)
REMARK    1  A    between atoms: C_2  and  C_3 
REMARK    2  A    between atoms: C_7  and  C_8 
REMARK    3  A    between atoms: C_8  and  N_9 
REMARK    4  A    between atoms: N_9  and  C_10 
REMARK    5  A    between atoms: C_10  and  C_11 
REMARK    6  A    between atoms: C_11  and  O_13 
REMARK    7  A    between atoms: C_11  and  C_14 
ROOT
HETATM    1  C   UNL     1     -42.041 -52.620  13.331  1.00  0.00     0.311 C 
ENDROOT
BRANCH   1   2
HETATM    2  N   UNL     1     -42.360 -54.050  13.471  1.00  0.00     0.087 N 
HETATM    3  H   UNL     1     -42.731 -54.360  12.569  1.00  0.00     0.316 HD
BRANCH   2   4
HETATM    4  C   UNL     1     -43.387 -54.291  14.487  1.00  0.00     0.274 C 
BRANCH   4   5
HETATM    5  C   UNL     1     -44.412 -53.141  14.426  1.00  0.00     0.014 C 
HETATM    6  C   UNL     1     -44.539 -52.385  15.764  1.00  0.00     0.006 C 
HETATM    7  C   UNL     1     -45.601 -51.291  15.722  1.00  0.00     0.001 C 
HETATM    8  C   UNL     1     -46.939 -51.819  15.220  1.00  0.00     0.005 C 
HETATM    9  C   UNL     1     -46.825 -52.525  13.862  1.00  0.00    -0.014 C 
HETATM   10  C   UNL     1     -45.791 -53.660  13.974  1.00  0.00     0.011 C 
BRANCH   9  11
HETATM   11  C   UNL     1     -46.467 -51.581  12.689  1.00  0.00     0.000 C 
HETATM   12  C   UNL     1     -47.151 -51.923  11.376  1.00  0.00     0.005 C 
ENDBRANCH   9  11
ENDBRANCH   4   5
ENDBRANCH   2   4
ENDBRANCH   1   2
BRANCH   1  13
HETATM   13  C   UNL     1     -40.619 -52.428  12.710  1.00  0.00     0.110 C 
HETATM   14  C   UNL     1     -39.514 -52.668  13.756  1.00  0.00     0.053 C 
BRANCH  13  15
HETATM   15  O   UNL     1     -40.454 -53.431  11.684  1.00  0.00    -0.383 OA
HETATM   16  H   UNL     1     -41.045 -53.167  10.960  1.00  0.00     0.211 HD
ENDBRANCH  13  15
BRANCH  13  17
HETATM   17  C   UNL     1     -40.489 -51.058  12.110  1.00  0.00     0.011 A 
HETATM   18  C   UNL     1     -39.302 -50.366  11.764  1.00  0.00     0.119 A 
HETATM   19  N   UNL     1     -39.538 -49.158  11.252  1.00  0.00    -0.310 N 
HETATM   20  N   UNL     1     -40.882 -49.073  11.260  1.00  0.00    -0.307 N 
ATOM     21  HN  UNL     1     -38.863 -48.464  10.931  1.00  0.00     0.186 HD
HETATM   22  C   UNL     1     -41.535 -47.888  10.760  1.00  0.00     0.177 C 
HETATM   23  C   UNL     1     -41.492 -50.175  11.764  1.00  0.00     0.121 A 
ENDBRANCH  13  17
ENDBRANCH   1  13
TORSDOF 7
ENDMDL
MODEL 6
REMARK VINA RESULT:      -5.9      2.107      2.223
REMARK  7 active torsions:
REMARK  status: ('A' for Active; 'I' for Inactive)
REMARK    1  A    between atoms: C_2  and  C_3 
REMARK    2  A    between atoms: C_7  and  C_8 
REMARK    3  A    between atoms: C_8  and  N_9 
REMARK    4  A    between atoms: N_9  and  C_10 
REMARK    5  A    between atoms: C_10  and  C_11 
REMARK    6  A    between atoms: C_11  and  O_13 
REMARK    7  A    between atoms: C_11  and  C_14 
ROOT
HETATM    1  C   UNL     1     -39.951 -51.019  12.551  1.00  0.00     0.311 C 
ENDROOT
BRANCH   1   2
HETATM    2  N   UNL     1     -40.802 -51.978  11.827  1.00  0.00     0.087 N 
HETATM    3  H   UNL     1     -41.725 -51.548  11.742  1.00  0.00     0.316 HD
BRANCH   2   4
HETATM    4  C   UNL     1     -40.956 -53.239  12.554  1.00  0.00     0.274 C 
BRANCH   4   5
HETATM    5  C   UNL     1     -42.348 -53.254  13.215  1.00  0.00     0.014 C 
HETATM    6  C   UNL     1     -42.575 -54.497  14.100  1.00  0.00     0.006 C 
HETATM    7  C   UNL     1     -43.976 -54.543  14.700  1.00  0.00     0.001 C 
HETATM    8  C   UNL     1     -45.054 -54.380  13.636  1.00  0.00     0.005 C 
HETATM    9  C   UNL     1     -44.862 -53.115  12.788  1.00  0.00    -0.014 C 
HETATM   10  C   UNL     1     -43.461 -53.146  12.154  1.00  0.00     0.011 C 
BRANCH   9  11
HETATM   11  C   UNL     1     -45.073 -51.795  13.569  1.00  0.00     0.000 C 
HETATM   12  C   UNL     1     -46.517 -51.513  13.947  1.00  0.00     0.005 C 
ENDBRANCH   9  11
ENDBRANCH   4   5
ENDBRANCH   2   4
ENDBRANCH   1   2
BRANCH   1  13
HETATM   13  C   UNL     1     -39.503 -49.854  11.610  1.00  0.00     0.110 C 
HETATM   14  C   UNL     1     -37.983 -49.888  11.362  1.00  0.00     0.053 C 
BRANCH  13  15
HETATM   15  O   UNL     1     -40.143 -50.058  10.332  1.00  0.00    -0.383 OA
HETATM   16  H   UNL     1     -40.189 -49.181   9.917  1.00  0.00     0.211 HD
ENDBRANCH  13  15
BRANCH  13  17
HETATM   17  C   UNL     1     -39.915 -48.528  12.182  1.00  0.00     0.011 A 
HETATM   18  C   UNL     1     -40.350 -48.244  13.500  1.00  0.00     0.119 A 
HETATM   19  N   UNL     1     -40.646 -46.956  13.679  1.00  0.00    -0.310 N 
HETATM   20  N   UNL     1     -40.394 -46.407  12.476  1.00  0.00    -0.307 N 
ATOM     21  HN  UNL     1     -40.982 -46.498  14.525  1.00  0.00     0.186 HD
HETATM   22  C   UNL     1     -40.589 -44.993  12.271  1.00  0.00     0.177 C 
HETATM   23  C   UNL     1     -39.961 -47.302  11.552  1.00  0.00     0.121 A 
ENDBRANCH  13  17
ENDBRANCH   1  13
TORSDOF 7
ENDMDL
MODEL 7
REMARK VINA RESULT:      -5.8      1.753      2.220
REMARK  7 active torsions:
REMARK  status: ('A' for Active; 'I' for Inactive)
REMARK    1  A    between atoms: C_2  and  C_3 
REMARK    2  A    between atoms: C_7  and  C_8 
REMARK    3  A    between atoms: C_8  and  N_9 
REMARK    4  A    between atoms: N_9  and  C_10 
REMARK    5  A    between atoms: C_10  and  C_11 
REMARK    6  A    between atoms: C_11  and  O_13 
REMARK    7  A    between atoms: C_11  and  C_14 
ROOT
HETATM    1  C   UNL     1     -41.150 -49.761  12.623  1.00  0.00     0.311 C 
ENDROOT
BRANCH   1   2
HETATM    2  N   UNL     1     -42.378 -50.410  12.136  1.00  0.00     0.087 N 
HETATM    3  H   UNL     1     -42.534 -50.071  11.184  1.00  0.00     0.316 HD
BRANCH   2   4
HETATM    4  C   UNL     1     -43.548 -50.051  12.940  1.00  0.00     0.274 C 
BRANCH   4   5
HETATM    5  C   UNL     1     -44.153 -51.343  13.525  1.00  0.00     0.014 C 
HETATM    6  C   UNL     1     -43.376 -52.607  13.105  1.00  0.00     0.006 C 
HETATM    7  C   UNL     1     -44.014 -53.890  13.630  1.00  0.00     0.001 C 
HETATM    8  C   UNL     1     -45.494 -53.971  13.280  1.00  0.00     0.005 C 
HETATM    9  C   UNL     1     -46.281 -52.737  13.745  1.00  0.00    -0.014 C 
HETATM   10  C   UNL     1     -45.639 -51.477  13.138  1.00  0.00     0.011 C 
BRANCH   9  11
HETATM   11  C   UNL     1     -46.389 -52.602  15.283  1.00  0.00     0.000 C 
HETATM   12  C   UNL     1     -47.160 -51.380  15.753  1.00  0.00     0.005 C 
ENDBRANCH   9  11
ENDBRANCH   4   5
ENDBRANCH   2   4
ENDBRANCH   1   2
BRANCH   1  13
HETATM   13  C   UNL     1     -40.269 -49.275  11.427  1.00  0.00     0.110 C 
HETATM   14  C   UNL     1     -38.768 -49.366  11.763  1.00  0.00     0.053 C 
BRANCH  13  15
HETATM   15  O   UNL     1     -40.508 -50.170  10.319  1.00  0.00    -0.383 OA
HETATM   16  H   UNL     1     -39.800 -49.991   9.677  1.00  0.00     0.211 HD
ENDBRANCH  13  15
BRANCH  13  17
HETATM   17  C   UNL     1     -40.639 -47.872  11.038  1.00  0.00     0.011 A 
HETATM   18  C   UNL     1     -41.756 -47.443  10.281  1.00  0.00     0.119 A 
HETATM   19  N   UNL     1     -41.788 -46.121  10.111  1.00  0.00    -0.310 N 
HETATM   20  N   UNL     1     -40.692 -45.695  10.767  1.00  0.00    -0.307 N 
ATOM     21  HN  UNL     1     -42.477 -45.565   9.605  1.00  0.00     0.186 HD
HETATM   22  C   UNL     1     -40.382 -44.287  10.820  1.00  0.00     0.177 C 
HETATM   23  C   UNL     1     -39.974 -46.699  11.331  1.00  0.00     0.121 A 
ENDBRANCH  13  17
ENDBRANCH   1  13
TORSDOF 7
ENDMDL
MODEL 8
REMARK VINA RESULT:      -5.7      3.069      6.313
REMARK  7 active torsions:
REMARK  status: ('A' for Active; 'I' for Inactive)
REMARK    1  A    between atoms: C_2  and  C_3 
REMARK    2  A    between atoms: C_7  and  C_8 
REMARK    3  A    between atoms: C_8  and  N_9 
REMARK    4  A    between atoms: N_9  and  C_10 
REMARK    5  A    between atoms: C_10  and  C_11 
REMARK    6  A    between atoms: C_11  and  O_13 
REMARK    7  A    between atoms: C_11  and  C_14 
ROOT
HETATM    1  C   UNL     1     -41.429 -51.839  13.309  1.00  0.00     0.311 C 
ENDROOT
BRANCH   1   2
HETATM    2  N   UNL     1     -42.315 -51.134  12.368  1.00  0.00     0.087 N 
HETATM    3  H   UNL     1     -41.713 -50.573  11.761  1.00  0.00     0.316 HD
BRANCH   2   4
HETATM    4  C   UNL     1     -43.238 -50.226  13.052  1.00  0.00     0.274 C 
BRANCH   4   5
HETATM    5  C   UNL     1     -44.265 -51.071  13.830  1.00  0.00     0.014 C 
HETATM    6  C   UNL     1     -45.619 -51.183  13.100  1.00  0.00     0.006 C 
HETATM    7  C   UNL     1     -46.656 -51.964  13.902  1.00  0.00     0.001 C 
HETATM    8  C   UNL     1     -46.800 -51.425  15.319  1.00  0.00     0.005 C 
HETATM    9  C   UNL     1     -45.461 -51.363  16.068  1.00  0.00    -0.014 C 
HETATM   10  C   UNL     1     -44.471 -50.513  15.252  1.00  0.00     0.011 C 
BRANCH   9  11
HETATM   11  C   UNL     1     -44.850 -52.750  16.383  1.00  0.00     0.000 C 
HETATM   12  C   UNL     1     -45.820 -53.733  17.017  1.00  0.00     0.005 C 
ENDBRANCH   9  11
ENDBRANCH   4   5
ENDBRANCH   2   4
ENDBRANCH   1   2
BRANCH   1  13
HETATM   13  C   UNL     1     -41.329 -53.356  12.946  1.00  0.00     0.110 C 
HETATM   14  C   UNL     1     -42.725 -53.997  12.827  1.00  0.00     0.053 C 
BRANCH  13  15
HETATM   15  O   UNL     1     -40.710 -53.451  11.645  1.00  0.00    -0.383 OA
HETATM   16  H   UNL     1     -40.866 -52.594  11.214  1.00  0.00     0.211 HD
ENDBRANCH  13  15
BRANCH  13  17
HETATM   17  C   UNL     1     -40.498 -54.086  13.961  1.00  0.00     0.011 A 
HETATM   18  C   UNL     1     -39.120 -54.410  13.891  1.00  0.00     0.119 A 
HETATM   19  N   UNL     1     -38.689 -55.070  14.966  1.00  0.00    -0.310 N 
HETATM   20  N   UNL     1     -39.790 -55.166  15.736  1.00  0.00    -0.307 N 
ATOM     21  HN  UNL     1     -37.751 -55.418  15.159  1.00  0.00     0.186 HD
HETATM   22  C   UNL     1     -39.721 -55.822  17.019  1.00  0.00     0.177 C 
HETATM   23  C   UNL     1     -40.891 -54.599  15.180  1.00  0.00     0.121 A 
ENDBRANCH  13  17
ENDBRANCH   1  13
TORSDOF 7
ENDMDL
MODEL 9
REMARK VINA RESULT:      -5.7      1.820      3.092
REMARK  7 active torsions:
REMARK  status: ('A' for Active; 'I' for Inactive)
REMARK    1  A    between atoms: C_2  and  C_3 
REMARK    2  A    between atoms: C_7  and  C_8 
REMARK    3  A    between atoms: C_8  and  N_9 
REMARK    4  A    between atoms: N_9  and  C_10 
REMARK    5  A    between atoms: C_10  and  C_11 
REMARK    6  A    between atoms: C_11  and  O_13 
REMARK    7  A    between atoms: C_11  and  C_14 
ROOT
HETATM    1  C   UNL     1     -42.561 -47.939  11.916  1.00  0.00     0.311 C 
ENDROOT
BRANCH   1   2
HETATM    2  N   UNL     1     -42.803 -49.382  12.075  1.00  0.00     0.087 N 
HETATM    3  H   UNL     1     -43.512 -49.641  11.384  1.00  0.00     0.316 HD
BRANCH   2   4
HETATM    4  C   UNL     1     -43.326 -49.711  13.402  1.00  0.00     0.274 C 
BRANCH   4   5
HETATM    5  C   UNL     1     -43.963 -51.113  13.342  1.00  0.00     0.014 C 
HETATM    6  C   UNL     1     -45.503 -51.064  13.257  1.00  0.00     0.006 C 
HETATM    7  C   UNL     1     -46.136 -52.451  13.263  1.00  0.00     0.001 C 
HETATM    8  C   UNL     1     -45.643 -53.294  14.432  1.00  0.00     0.005 C 
HETATM    9  C   UNL     1     -44.111 -53.390  14.488  1.00  0.00    -0.014 C 
HETATM   10  C   UNL     1     -43.523 -51.969  14.545  1.00  0.00     0.011 C 
BRANCH   9  11
HETATM   11  C   UNL     1     -43.487 -54.187  13.318  1.00  0.00     0.000 C 
HETATM   12  C   UNL     1     -41.969 -54.245  13.336  1.00  0.00     0.005 C 
ENDBRANCH   9  11
ENDBRANCH   4   5
ENDBRANCH   2   4
ENDBRANCH   1   2
BRANCH   1  13
HETATM   13  C   UNL     1     -42.260 -47.589  10.422  1.00  0.00     0.110 C 
HETATM   14  C   UNL     1     -41.585 -46.210  10.294  1.00  0.00     0.053 C 
BRANCH  13  15
HETATM   15  O   UNL     1     -41.318 -48.566   9.928  1.00  0.00    -0.383 OA
HETATM   16  H   UNL     1     -40.585 -48.056   9.545  1.00  0.00     0.211 HD
ENDBRANCH  13  15
BRANCH  13  17
HETATM   17  C   UNL     1     -43.520 -47.637   9.607  1.00  0.00     0.011 A 
HETATM   18  C   UNL     1     -43.650 -47.856   8.213  1.00  0.00     0.119 A 
HETATM   19  N   UNL     1     -44.918 -47.834   7.802  1.00  0.00    -0.310 N 
HETATM   20  N   UNL     1     -45.610 -47.608   8.935  1.00  0.00    -0.307 N 
ATOM     21  HN  UNL     1     -45.278 -47.959   6.857  1.00  0.00     0.186 HD
HETATM   22  C   UNL     1     -47.049 -47.527   8.900  1.00  0.00     0.177 C 
HETATM   23  C   UNL     1     -44.823 -47.480  10.034  1.00  0.00     0.121 A 
ENDBRANCH  13  17
ENDBRANCH   1  13
TORSDOF 7
ENDMDL
