MODEL 1
REMARK VINA RESULT:      -6.2      0.000      0.000
REMARK  5 active torsions:
REMARK  status: ('A' for Active; 'I' for Inactive)
REMARK    1  A    between atoms: N_7  and  C_8 
REMARK    2  A    between atoms: C_8  and  C_9 
REMARK       I    between atoms: C_9  and  N_11 
REMARK    3  A    between atoms: N_11  and  C_12 
REMARK    4  A    between atoms: C_12  and  C_18 
REMARK    5  A    between atoms: C_18  and  O_20 
ROOT
HETATM    1  C   UNL     1     -41.836 -50.787  12.776  1.00  0.00     0.238 C 
HETATM    2  O   UNL     1     -41.577 -51.063  11.602  1.00  0.00    -0.272 OA
HETATM    3  N   UNL     1     -42.185 -51.780  13.703  1.00  0.00    -0.341 N 
HETATM    4  H   UNL     1     -41.837 -51.611  14.647  1.00  0.00     0.163 HD
ENDROOT
BRANCH   1   5
HETATM    5  C   UNL     1     -41.775 -49.345  13.276  1.00  0.00     0.255 C 
BRANCH   5   6
HETATM    6  N   UNL     1     -41.949 -48.382  12.197  1.00  0.00    -0.249 N 
HETATM    7  C   UNL     1     -40.928 -47.488  11.937  1.00  0.00     0.262 A 
HETATM    8  C   UNL     1     -41.174 -46.507  10.866  1.00  0.00     0.078 A 
HETATM    9  O   UNL     1     -39.857 -47.462  12.541  1.00  0.00    -0.267 OA
HETATM   10  C   UNL     1     -42.325 -46.510  10.182  1.00  0.00     0.031 A 
HETATM   11  C   UNL     1     -43.327 -47.532  10.570  1.00  0.00     0.022 A 
HETATM   12  C   UNL     1     -44.638 -47.534   9.820  1.00  0.00     0.069 C 
HETATM   13  N   UNL     1     -43.157 -48.399  11.519  1.00  0.00    -0.300 N 
ATOM     14  HN  UNL     1     -43.888 -49.070  11.758  1.00  0.00     0.187 HD
ENDBRANCH   5   6
ENDBRANCH   1   5
BRANCH   3  15
HETATM   15  C   UNL     1     -42.205 -53.188  13.221  1.00  0.00     0.118 C 
HETATM   16  C   UNL     1     -43.393 -53.382  12.235  1.00  0.00     0.042 C 
HETATM   17  C   UNL     1     -44.743 -53.495  12.954  1.00  0.00     0.003 C 
HETATM   18  C   UNL     1     -44.761 -54.746  13.810  1.00  0.00     0.000 C 
HETATM   19  C   UNL     1     -43.694 -54.640  14.886  1.00  0.00     0.003 C 
HETATM   20  C   UNL     1     -42.313 -54.282  14.335  1.00  0.00     0.042 C 
BRANCH  15  21
HETATM   21  C   UNL     1     -40.747 -53.429  12.700  1.00  0.00     0.169 C 
HETATM   22  O   UNL     1     -39.772 -53.447  13.449  1.00  0.00    -0.648 OA
BRANCH  21  23
HETATM   23  O   UNL     1     -40.606 -53.668  11.379  1.00  0.00    -0.775 OA
HETATM   24  H   UNL     1     -41.389 -54.078  10.971  1.00  0.00     0.167 HD
ENDBRANCH  21  23
ENDBRANCH  15  21
ENDBRANCH   3  15
TORSDOF 5
ENDMDL
MODEL 2
REMARK VINA RESULT:      -6.1      2.577      5.464
REMARK  5 active torsions:
REMARK  status: ('A' for Active; 'I' for Inactive)
REMARK    1  A    between atoms: N_7  and  C_8 
REMARK    2  A    between atoms: C_8  and  C_9 
REMARK       I    between atoms: C_9  and  N_11 
REMARK    3  A    between atoms: N_11  and  C_12 
REMARK    4  A    between atoms: C_12  and  C_18 
REMARK    5  A    between atoms: C_18  and  O_20 
ROOT
HETATM    1  C   UNL     1     -41.800 -52.340  12.585  1.00  0.00     0.238 C 
HETATM    2  O   UNL     1     -41.267 -52.567  11.495  1.00  0.00    -0.272 OA
HETATM    3  N   UNL     1     -41.464 -51.211  13.345  1.00  0.00    -0.341 N 
HETATM    4  H   UNL     1     -42.248 -50.803  13.855  1.00  0.00     0.163 HD
ENDROOT
BRANCH   1   5
HETATM    5  C   UNL     1     -42.863 -53.281  13.149  1.00  0.00     0.255 C 
BRANCH   5   6
HETATM    6  N   UNL     1     -44.129 -52.602  13.384  1.00  0.00    -0.249 N 
HETATM    7  C   UNL     1     -44.395 -52.118  14.651  1.00  0.00     0.262 A 
HETATM    8  C   UNL     1     -45.708 -51.480  14.845  1.00  0.00     0.078 A 
HETATM    9  O   UNL     1     -43.619 -52.198  15.602  1.00  0.00    -0.267 OA
HETATM   10  C   UNL     1     -46.576 -51.369  13.832  1.00  0.00     0.031 A 
HETATM   11  C   UNL     1     -46.150 -51.930  12.527  1.00  0.00     0.022 A 
HETATM   12  C   UNL     1     -47.126 -51.829  11.380  1.00  0.00     0.069 C 
HETATM   13  N   UNL     1     -45.012 -52.517  12.320  1.00  0.00    -0.300 N 
ATOM     14  HN  UNL     1     -44.776 -52.903  11.406  1.00  0.00     0.187 HD
ENDBRANCH   5   6
ENDBRANCH   1   5
BRANCH   3  15
HETATM   15  C   UNL     1     -40.456 -50.278  12.773  1.00  0.00     0.118 C 
HETATM   16  C   UNL     1     -39.091 -51.012  12.628  1.00  0.00     0.042 C 
HETATM   17  C   UNL     1     -38.356 -51.157  13.966  1.00  0.00     0.003 C 
HETATM   18  C   UNL     1     -37.987 -49.786  14.497  1.00  0.00     0.000 C 
HETATM   19  C   UNL     1     -39.251 -48.991  14.771  1.00  0.00     0.003 C 
HETATM   20  C   UNL     1     -40.217 -48.962  13.585  1.00  0.00     0.042 C 
BRANCH  15  21
HETATM   21  C   UNL     1     -41.150 -49.717  11.485  1.00  0.00     0.169 C 
HETATM   22  O   UNL     1     -42.172 -49.035  11.527  1.00  0.00    -0.648 OA
BRANCH  21  23
HETATM   23  O   UNL     1     -40.543 -49.976  10.306  1.00  0.00    -0.775 OA
HETATM   24  H   UNL     1     -39.858 -50.665  10.364  1.00  0.00     0.167 HD
ENDBRANCH  21  23
ENDBRANCH  15  21
ENDBRANCH   3  15
TORSDOF 5
ENDMDL
MODEL 3
REMARK VINA RESULT:      -6.1      2.760      3.573
REMARK  5 active torsions:
REMARK  status: ('A' for Active; 'I' for Inactive)
REMARK    1  A    between atoms: N_7  and  C_8 
REMARK    2  A    between atoms: C_8  and  C_9 
REMARK       I    between atoms: C_9  and  N_11 
REMARK    3  A    between atoms: N_11  and  C_12 
REMARK    4  A    between atoms: C_12  and  C_18 
REMARK    5  A    between atoms: C_18  and  O_20 
ROOT
HETATM    1  C   UNL     1     -43.038 -52.628  13.700  1.00  0.00     0.238 C 
HETATM    2  O   UNL     1     -43.538 -52.888  12.603  1.00  0.00    -0.272 OA
HETATM    3  N   UNL     1     -43.749 -52.816  14.894  1.00  0.00    -0.341 N 
HETATM    4  H   UNL     1     -43.176 -53.129  15.677  1.00  0.00     0.163 HD
ENDROOT
BRANCH   1   5
HETATM    5  C   UNL     1     -41.608 -52.099  13.806  1.00  0.00     0.255 C 
BRANCH   5   6
HETATM    6  N   UNL     1     -41.355 -51.010  12.873  1.00  0.00    -0.249 N 
HETATM    7  C   UNL     1     -40.111 -50.925  12.278  1.00  0.00     0.262 A 
HETATM    8  C   UNL     1     -39.894 -49.779  11.378  1.00  0.00     0.078 A 
HETATM    9  O   UNL     1     -39.197 -51.727  12.461  1.00  0.00    -0.267 OA
HETATM   10  C   UNL     1     -40.867 -48.890  11.149  1.00  0.00     0.031 A 
HETATM   11  C   UNL     1     -42.152 -49.114  11.854  1.00  0.00     0.022 A 
HETATM   12  C   UNL     1     -43.253 -48.107  11.621  1.00  0.00     0.069 C 
HETATM   13  N   UNL     1     -42.377 -50.097  12.670  1.00  0.00    -0.300 N 
ATOM     14  HN  UNL     1     -43.274 -50.194  13.144  1.00  0.00     0.187 HD
ENDBRANCH   5   6
ENDBRANCH   1   5
BRANCH   3  15
HETATM   15  C   UNL     1     -45.127 -53.368  14.788  1.00  0.00     0.118 C 
HETATM   16  C   UNL     1     -46.020 -52.384  13.977  1.00  0.00     0.042 C 
HETATM   17  C   UNL     1     -46.455 -51.167  14.803  1.00  0.00     0.003 C 
HETATM   18  C   UNL     1     -47.341 -51.617  15.947  1.00  0.00     0.000 C 
HETATM   19  C   UNL     1     -46.550 -52.521  16.876  1.00  0.00     0.003 C 
HETATM   20  C   UNL     1     -45.842 -53.665  16.148  1.00  0.00     0.042 C 
BRANCH  15  21
HETATM   21  C   UNL     1     -44.911 -54.818  14.236  1.00  0.00     0.169 C 
HETATM   22  O   UNL     1     -44.232 -55.656  14.825  1.00  0.00    -0.648 OA
BRANCH  21  23
HETATM   23  O   UNL     1     -45.551 -55.133  13.088  1.00  0.00    -0.775 OA
HETATM   24  H   UNL     1     -46.074 -54.399  12.720  1.00  0.00     0.167 HD
ENDBRANCH  21  23
ENDBRANCH  15  21
ENDBRANCH   3  15
TORSDOF 5
ENDMDL
MODEL 4
REMARK VINA RESULT:      -6.0      2.534      6.076
REMARK  5 active torsions:
REMARK  status: ('A' for Active; 'I' for Inactive)
REMARK    1  A    between atoms: N_7  and  C_8 
REMARK    2  A    between atoms: C_8  and  C_9 
REMARK       I    between atoms: C_9  and  N_11 
REMARK    3  A    between atoms: N_11  and  C_12 
REMARK    4  A    between atoms: C_12  and  C_18 
REMARK    5  A    between atoms: C_18  and  O_20 
ROOT
HETATM    1  C   UNL     1     -42.297 -50.980  12.891  1.00  0.00     0.238 C 
HETATM    2  O   UNL     1     -41.399 -50.900  13.734  1.00  0.00    -0.272 OA
HETATM    3  N   UNL     1     -42.482 -49.987  11.920  1.00  0.00    -0.341 N 
HETATM    4  H   UNL     1     -42.786 -50.341  11.012  1.00  0.00     0.163 HD
ENDROOT
BRANCH   1   5
HETATM    5  C   UNL     1     -43.243 -52.180  12.865  1.00  0.00     0.255 C 
BRANCH   5   6
HETATM    6  N   UNL     1     -44.453 -51.942  13.640  1.00  0.00    -0.249 N 
HETATM    7  C   UNL     1     -45.663 -52.368  13.125  1.00  0.00     0.262 A 
HETATM    8  C   UNL     1     -46.859 -52.062  13.928  1.00  0.00     0.078 A 
HETATM    9  O   UNL     1     -45.792 -52.963  12.057  1.00  0.00    -0.267 OA
HETATM   10  C   UNL     1     -46.757 -51.422  15.099  1.00  0.00     0.031 A 
HETATM   11  C   UNL     1     -45.392 -51.031  15.526  1.00  0.00     0.022 A 
HETATM   12  C   UNL     1     -45.263 -50.291  16.836  1.00  0.00     0.069 C 
HETATM   13  N   UNL     1     -44.316 -51.263  14.839  1.00  0.00    -0.300 N 
ATOM     14  HN  UNL     1     -43.402 -50.956  15.171  1.00  0.00     0.187 HD
ENDBRANCH   5   6
ENDBRANCH   1   5
BRANCH   3  15
HETATM   15  C   UNL     1     -41.534 -48.840  11.926  1.00  0.00     0.118 C 
HETATM   16  C   UNL     1     -41.505 -48.198  13.343  1.00  0.00     0.042 C 
HETATM   17  C   UNL     1     -42.733 -47.323  13.618  1.00  0.00     0.003 C 
HETATM   18  C   UNL     1     -42.738 -46.137  12.673  1.00  0.00     0.000 C 
HETATM   19  C   UNL     1     -42.859 -46.631  11.241  1.00  0.00     0.003 C 
HETATM   20  C   UNL     1     -41.834 -47.710  10.886  1.00  0.00     0.042 C 
BRANCH  15  21
HETATM   21  C   UNL     1     -40.210 -49.443  11.345  1.00  0.00     0.169 C 
HETATM   22  O   UNL     1     -39.134 -49.368  11.936  1.00  0.00    -0.648 OA
BRANCH  21  23
HETATM   23  O   UNL     1     -40.306 -50.101  10.169  1.00  0.00    -0.775 OA
HETATM   24  H   UNL     1     -41.078 -49.839   9.638  1.00  0.00     0.167 HD
ENDBRANCH  21  23
ENDBRANCH  15  21
ENDBRANCH   3  15
TORSDOF 5
ENDMDL
MODEL 5
REMARK VINA RESULT:      -6.0      2.573      3.121
REMARK  5 active torsions:
REMARK  status: ('A' for Active; 'I' for Inactive)
REMARK    1  A    between atoms: N_7  and  C_8 
REMARK    2  A    between atoms: C_8  and  C_9 
REMARK       I    between atoms: C_9  and  N_11 
REMARK    3  A    between atoms: N_11  and  C_12 
REMARK    4  A    between atoms: C_12  and  C_18 
REMARK    5  A    between atoms: C_18  and  O_20 
ROOT
HETATM    1  C   UNL     1     -41.930 -50.832  13.323  1.00  0.00     0.238 C 
HETATM    2  O   UNL     1     -41.998 -50.833  12.091  1.00  0.00    -0.272 OA
HETATM    3  N   UNL     1     -42.046 -52.016  14.064  1.00  0.00    -0.341 N 
HETATM    4  H   UNL     1     -41.456 -52.048  14.897  1.00  0.00     0.163 HD
ENDROOT
BRANCH   1   5
HETATM    5  C   UNL     1     -41.703 -49.534  14.095  1.00  0.00     0.255 C 
BRANCH   5   6
HETATM    6  N   UNL     1     -40.317 -49.091  14.030  1.00  0.00    -0.249 N 
HETATM    7  C   UNL     1     -39.875 -48.164  14.955  1.00  0.00     0.262 A 
HETATM    8  C   UNL     1     -38.478 -47.717  14.815  1.00  0.00     0.078 A 
HETATM    9  O   UNL     1     -40.568 -47.698  15.857  1.00  0.00    -0.267 OA
HETATM   10  C   UNL     1     -37.692 -48.206  13.850  1.00  0.00     0.031 A 
HETATM   11  C   UNL     1     -38.303 -49.200  12.934  1.00  0.00     0.022 A 
HETATM   12  C   UNL     1     -37.433 -49.747  11.827  1.00  0.00     0.069 C 
HETATM   13  N   UNL     1     -39.533 -49.604  13.010  1.00  0.00    -0.300 N 
ATOM     14  HN  UNL     1     -39.909 -50.276  12.342  1.00  0.00     0.187 HD
ENDBRANCH   5   6
ENDBRANCH   1   5
BRANCH   3  15
HETATM   15  C   UNL     1     -42.228 -53.283  13.305  1.00  0.00     0.118 C 
HETATM   16  C   UNL     1     -43.468 -53.156  12.373  1.00  0.00     0.042 C 
HETATM   17  C   UNL     1     -44.793 -53.294  13.132  1.00  0.00     0.003 C 
HETATM   18  C   UNL     1     -44.905 -54.690  13.712  1.00  0.00     0.000 C 
HETATM   19  C   UNL     1     -43.792 -54.911  14.722  1.00  0.00     0.003 C 
HETATM   20  C   UNL     1     -42.404 -54.573  14.174  1.00  0.00     0.042 C 
BRANCH  15  21
HETATM   21  C   UNL     1     -40.824 -53.542  12.660  1.00  0.00     0.169 C 
HETATM   22  O   UNL     1     -39.849 -53.899  13.319  1.00  0.00    -0.648 OA
BRANCH  21  23
HETATM   23  O   UNL     1     -40.736 -53.401  11.320  1.00  0.00    -0.775 OA
HETATM   24  H   UNL     1     -41.597 -53.274  10.884  1.00  0.00     0.167 HD
ENDBRANCH  21  23
ENDBRANCH  15  21
ENDBRANCH   3  15
TORSDOF 5
ENDMDL
MODEL 6
REMARK VINA RESULT:      -5.9      1.584      6.478
REMARK  5 active torsions:
REMARK  status: ('A' for Active; 'I' for Inactive)
REMARK    1  A    between atoms: N_7  and  C_8 
REMARK    2  A    between atoms: C_8  and  C_9 
REMARK       I    between atoms: C_9  and  N_11 
REMARK    3  A    between atoms: N_11  and  C_12 
REMARK    4  A    between atoms: C_12  and  C_18 
REMARK    5  A    between atoms: C_18  and  O_20 
ROOT
HETATM    1  C   UNL     1     -41.228 -49.306  11.543  1.00  0.00     0.238 C 
HETATM    2  O   UNL     1     -41.578 -48.949  12.671  1.00  0.00    -0.272 OA
HETATM    3  N   UNL     1     -41.465 -48.509  10.415  1.00  0.00    -0.341 N 
HETATM    4  H   UNL     1     -40.726 -48.549   9.712  1.00  0.00     0.163 HD
ENDROOT
BRANCH   1   5
HETATM    5  C   UNL     1     -40.507 -50.636  11.329  1.00  0.00     0.255 C 
BRANCH   5   6
HETATM    6  N   UNL     1     -41.102 -51.715  12.105  1.00  0.00    -0.249 N 
HETATM    7  C   UNL     1     -40.285 -52.465  12.930  1.00  0.00     0.262 A 
HETATM    8  C   UNL     1     -40.930 -53.572  13.658  1.00  0.00     0.078 A 
HETATM    9  O   UNL     1     -39.081 -52.269  13.079  1.00  0.00    -0.267 OA
HETATM   10  C   UNL     1     -42.239 -53.811  13.526  1.00  0.00     0.031 A 
HETATM   11  C   UNL     1     -42.990 -52.920  12.609  1.00  0.00     0.022 A 
HETATM   12  C   UNL     1     -44.465 -53.190  12.435  1.00  0.00     0.069 C 
HETATM   13  N   UNL     1     -42.457 -51.948  11.935  1.00  0.00    -0.300 N 
ATOM     14  HN  UNL     1     -43.016 -51.376  11.302  1.00  0.00     0.187 HD
ENDBRANCH   5   6
ENDBRANCH   1   5
BRANCH   3  15
HETATM   15  C   UNL     1     -42.133 -47.197  10.634  1.00  0.00     0.118 C 
HETATM   16  C   UNL     1     -43.553 -47.430  11.226  1.00  0.00     0.042 C 
HETATM   17  C   UNL     1     -44.564 -47.891  10.168  1.00  0.00     0.003 C 
HETATM   18  C   UNL     1     -44.764 -46.793   9.142  1.00  0.00     0.000 C 
HETATM   19  C   UNL     1     -43.455 -46.531   8.418  1.00  0.00     0.003 C 
HETATM   20  C   UNL     1     -42.277 -46.292   9.365  1.00  0.00     0.042 C 
BRANCH  15  21
HETATM   21  C   UNL     1     -41.092 -46.379  11.472  1.00  0.00     0.169 C 
HETATM   22  O   UNL     1     -39.992 -46.057  11.029  1.00  0.00    -0.648 OA
BRANCH  21  23
HETATM   23  O   UNL     1     -41.477 -45.992  12.708  1.00  0.00    -0.775 OA
HETATM   24  H   UNL     1     -40.745 -45.952  13.349  1.00  0.00     0.167 HD
ENDBRANCH  21  23
ENDBRANCH  15  21
ENDBRANCH   3  15
TORSDOF 5
ENDMDL
MODEL 7
REMARK VINA RESULT:      -5.7      3.379      5.695
REMARK  5 active torsions:
REMARK  status: ('A' for Active; 'I' for Inactive)
REMARK    1  A    between atoms: N_7  and  C_8 
REMARK    2  A    between atoms: C_8  and  C_9 
REMARK       I    between atoms: C_9  and  N_11 
REMARK    3  A    between atoms: N_11  and  C_12 
REMARK    4  A    between atoms: C_12  and  C_18 
REMARK    5  A    between atoms: C_18  and  O_20 
ROOT
HETATM    1  C   UNL     1     -42.366 -53.896  14.156  1.00  0.00     0.238 C 
HETATM    2  O   UNL     1     -41.727 -54.654  13.422  1.00  0.00    -0.272 OA
HETATM    3  N   UNL     1     -41.917 -52.599  14.440  1.00  0.00    -0.341 N 
HETATM    4  H   UNL     1     -42.663 -51.908  14.529  1.00  0.00     0.163 HD
ENDROOT
BRANCH   1   5
HETATM    5  C   UNL     1     -43.688 -54.338  14.781  1.00  0.00     0.255 C 
BRANCH   5   6
HETATM    6  N   UNL     1     -44.737 -53.343  14.612  1.00  0.00    -0.249 N 
HETATM    7  C   UNL     1     -45.344 -53.225  13.375  1.00  0.00     0.262 A 
HETATM    8  C   UNL     1     -46.366 -52.172  13.246  1.00  0.00     0.078 A 
HETATM    9  O   UNL     1     -45.078 -53.927  12.402  1.00  0.00    -0.267 OA
HETATM   10  C   UNL     1     -46.686 -51.393  14.286  1.00  0.00     0.031 A 
HETATM   11  C   UNL     1     -45.954 -51.639  15.552  1.00  0.00     0.022 A 
HETATM   12  C   UNL     1     -46.292 -50.754  16.729  1.00  0.00     0.069 C 
HETATM   13  N   UNL     1     -45.035 -52.541  15.701  1.00  0.00    -0.300 N 
ATOM     14  HN  UNL     1     -44.548 -52.656  16.590  1.00  0.00     0.187 HD
ENDBRANCH   5   6
ENDBRANCH   1   5
BRANCH   3  15
HETATM   15  C   UNL     1     -40.649 -52.159  13.798  1.00  0.00     0.118 C 
HETATM   16  C   UNL     1     -39.489 -53.096  14.244  1.00  0.00     0.042 C 
HETATM   17  C   UNL     1     -39.001 -52.793  15.666  1.00  0.00     0.003 C 
HETATM   18  C   UNL     1     -38.395 -51.404  15.712  1.00  0.00     0.000 C 
HETATM   19  C   UNL     1     -39.462 -50.374  15.382  1.00  0.00     0.003 C 
HETATM   20  C   UNL     1     -40.220 -50.682  14.089  1.00  0.00     0.042 C 
BRANCH  15  21
HETATM   21  C   UNL     1     -41.006 -52.076  12.275  1.00  0.00     0.169 C 
HETATM   22  O   UNL     1     -41.674 -51.159  11.801  1.00  0.00    -0.648 OA
BRANCH  21  23
HETATM   23  O   UNL     1     -40.502 -53.043  11.478  1.00  0.00    -0.775 OA
HETATM   24  H   UNL     1     -41.078 -53.268  10.727  1.00  0.00     0.167 HD
ENDBRANCH  21  23
ENDBRANCH  15  21
ENDBRANCH   3  15
TORSDOF 5
ENDMDL
MODEL 8
REMARK VINA RESULT:      -5.7      2.364      6.326
REMARK  5 active torsions:
REMARK  status: ('A' for Active; 'I' for Inactive)
REMARK    1  A    between atoms: N_7  and  C_8 
REMARK    2  A    between atoms: C_8  and  C_9 
REMARK       I    between atoms: C_9  and  N_11 
REMARK    3  A    between atoms: N_11  and  C_12 
REMARK    4  A    between atoms: C_12  and  C_18 
REMARK    5  A    between atoms: C_18  and  O_20 
ROOT
HETATM    1  C   UNL     1     -42.222 -50.738  13.021  1.00  0.00     0.238 C 
HETATM    2  O   UNL     1     -42.002 -51.512  12.086  1.00  0.00    -0.272 OA
HETATM    3  N   UNL     1     -41.298 -49.750  13.387  1.00  0.00    -0.341 N 
HETATM    4  H   UNL     1     -41.722 -48.878  13.705  1.00  0.00     0.163 HD
ENDROOT
BRANCH   1   5
HETATM    5  C   UNL     1     -43.524 -50.816  13.815  1.00  0.00     0.255 C 
BRANCH   5   6
HETATM    6  N   UNL     1     -44.032 -52.178  13.905  1.00  0.00    -0.249 N 
HETATM    7  C   UNL     1     -45.293 -52.448  13.409  1.00  0.00     0.262 A 
HETATM    8  C   UNL     1     -45.776 -53.831  13.567  1.00  0.00     0.078 A 
HETATM    9  O   UNL     1     -46.019 -51.617  12.867  1.00  0.00    -0.267 OA
HETATM   10  C   UNL     1     -45.011 -54.765  14.146  1.00  0.00     0.031 A 
HETATM   11  C   UNL     1     -43.677 -54.329  14.625  1.00  0.00     0.022 A 
HETATM   12  C   UNL     1     -42.812 -55.367  15.298  1.00  0.00     0.069 C 
HETATM   13  N   UNL     1     -43.224 -53.118  14.525  1.00  0.00    -0.300 N 
ATOM     14  HN  UNL     1     -42.305 -52.867  14.888  1.00  0.00     0.187 HD
ENDBRANCH   5   6
ENDBRANCH   1   5
BRANCH   3  15
HETATM   15  C   UNL     1     -40.048 -49.652  12.585  1.00  0.00     0.118 C 
HETATM   16  C   UNL     1     -39.287 -51.009  12.642  1.00  0.00     0.042 C 
HETATM   17  C   UNL     1     -38.548 -51.214  13.970  1.00  0.00     0.003 C 
HETATM   18  C   UNL     1     -37.458 -50.170  14.113  1.00  0.00     0.000 C 
HETATM   19  C   UNL     1     -38.084 -48.787  14.165  1.00  0.00     0.003 C 
HETATM   20  C   UNL     1     -39.056 -48.520  13.015  1.00  0.00     0.042 C 
BRANCH  15  21
HETATM   21  C   UNL     1     -40.533 -49.118  11.194  1.00  0.00     0.169 C 
HETATM   22  O   UNL     1     -40.965 -47.978  11.038  1.00  0.00    -0.648 OA
BRANCH  21  23
HETATM   23  O   UNL     1     -40.410 -49.959  10.145  1.00  0.00    -0.775 OA
HETATM   24  H   UNL     1     -40.485 -50.899  10.388  1.00  0.00     0.167 HD
ENDBRANCH  21  23
ENDBRANCH  15  21
ENDBRANCH   3  15
TORSDOF 5
ENDMDL
MODEL 9
REMARK VINA RESULT:      -5.7      1.549      2.010
REMARK  5 active torsions:
REMARK  status: ('A' for Active; 'I' for Inactive)
REMARK    1  A    between atoms: N_7  and  C_8 
REMARK    2  A    between atoms: C_8  and  C_9 
REMARK       I    between atoms: C_9  and  N_11 
REMARK    3  A    between atoms: N_11  and  C_12 
REMARK    4  A    between atoms: C_12  and  C_18 
REMARK    5  A    between atoms: C_18  and  O_20 
ROOT
HETATM    1  C   UNL     1     -41.557 -50.809  13.558  1.00  0.00     0.238 C 
HETATM    2  O   UNL     1     -41.529 -50.725  12.327  1.00  0.00    -0.272 OA
HETATM    3  N   UNL     1     -41.854 -52.018  14.204  1.00  0.00    -0.341 N 
HETATM    4  H   UNL     1     -41.337 -52.166  15.071  1.00  0.00     0.163 HD
ENDROOT
BRANCH   1   5
HETATM    5  C   UNL     1     -41.255 -49.595  14.435  1.00  0.00     0.255 C 
BRANCH   5   6
HETATM    6  N   UNL     1     -41.669 -48.348  13.808  1.00  0.00    -0.249 N 
HETATM    7  C   UNL     1     -42.716 -47.641  14.369  1.00  0.00     0.262 A 
HETATM    8  C   UNL     1     -43.124 -46.410  13.669  1.00  0.00     0.078 A 
HETATM    9  O   UNL     1     -43.314 -47.979  15.388  1.00  0.00    -0.267 OA
HETATM   10  C   UNL     1     -42.491 -46.008  12.561  1.00  0.00     0.031 A 
HETATM   11  C   UNL     1     -41.382 -46.866  12.078  1.00  0.00     0.022 A 
HETATM   12  C   UNL     1     -40.672 -46.434  10.818  1.00  0.00     0.069 C 
HETATM   13  N   UNL     1     -41.006 -47.966  12.653  1.00  0.00    -0.300 N 
ATOM     14  HN  UNL     1     -40.248 -48.530  12.268  1.00  0.00     0.187 HD
ENDBRANCH   5   6
ENDBRANCH   1   5
BRANCH   3  15
HETATM   15  C   UNL     1     -42.109 -53.207  13.346  1.00  0.00     0.118 C 
HETATM   16  C   UNL     1     -43.334 -52.930  12.427  1.00  0.00     0.042 C 
HETATM   17  C   UNL     1     -44.668 -53.048  13.174  1.00  0.00     0.003 C 
HETATM   18  C   UNL     1     -44.867 -54.477  13.641  1.00  0.00     0.000 C 
HETATM   19  C   UNL     1     -43.774 -54.845  14.629  1.00  0.00     0.003 C 
HETATM   20  C   UNL     1     -42.365 -54.548  14.110  1.00  0.00     0.042 C 
BRANCH  15  21
HETATM   21  C   UNL     1     -40.720 -53.497  12.682  1.00  0.00     0.169 C 
HETATM   22  O   UNL     1     -39.740 -53.861  13.330  1.00  0.00    -0.648 OA
BRANCH  21  23
HETATM   23  O   UNL     1     -40.652 -53.377  11.338  1.00  0.00    -0.775 OA
HETATM   24  H   UNL     1     -41.215 -52.668  10.982  1.00  0.00     0.167 HD
ENDBRANCH  21  23
ENDBRANCH  15  21
ENDBRANCH   3  15
TORSDOF 5
ENDMDL
