MODEL 1
REMARK VINA RESULT:      -6.5      0.000      0.000
REMARK  4 active torsions:
REMARK  status: ('A' for Active; 'I' for Inactive)
REMARK    1  A    between atoms: C_2  and  N_3 
REMARK    2  A    between atoms: C_5  and  N_6 
REMARK       I    between atoms: N_6  and  C_7 
REMARK       I    between atoms: C_7  and  N_9 
REMARK    3  A    between atoms: N_9  and  C_10 
REMARK    4  A    between atoms: C_10  and  C_11 
ROOT
HETATM    1  N   UNL     1     -41.905 -46.956   9.746  1.00  0.00    -0.306 N 
HETATM    2  C   UNL     1     -41.411 -47.050  11.027  1.00  0.00     0.320 C 
HETATM    3  O   UNL     1     -42.067 -46.938  12.059  1.00  0.00    -0.247 OA
HETATM    4  N   UNL     1     -40.057 -47.327  11.061  1.00  0.00    -0.342 N 
HETATM    5  H   UNL     1     -41.291 -47.142   8.971  1.00  0.00     0.171 HD
HETATM    6  H   UNL     1     -39.514 -46.960  10.291  1.00  0.00     0.164 HD
ENDROOT
BRANCH   1   7
HETATM    7  C   UNL     1     -43.238 -46.700   9.459  1.00  0.00     0.070 A 
HETATM    8  C   UNL     1     -44.291 -47.583   9.490  1.00  0.00     0.141 A 
HETATM    9  N   UNL     1     -45.404 -46.879   9.145  1.00  0.00    -0.302 N 
HETATM   10  N   UNL     1     -45.153 -45.583   8.876  1.00  0.00    -0.308 N 
HETATM   11  C   UNL     1     -43.833 -45.478   9.069  1.00  0.00     0.138 A 
ATOM     12  HN  UNL     1     -45.812 -44.856   8.593  1.00  0.00     0.186 HD
BRANCH   9  13
HETATM   13  C   UNL     1     -46.755 -47.405   9.091  1.00  0.00     0.143 C 
HETATM   14  C   UNL     1     -46.804 -48.819   8.542  1.00  0.00     0.028 C 
ENDBRANCH   9  13
ENDBRANCH   1   7
BRANCH   4  15
HETATM   15  C   UNL     1     -39.417 -47.357  12.364  1.00  0.00     0.130 C 
BRANCH  15  16
HETATM   16  C   UNL     1     -39.230 -48.762  12.927  1.00  0.00     0.018 C 
HETATM   17  C   UNL     1     -38.279 -48.796  14.139  1.00  0.00     0.022 C 
HETATM   18  C   UNL     1     -37.581 -50.154  14.224  1.00  0.00     0.141 C 
HETATM   19  S   UNL     1     -37.996 -51.059  12.750  1.00  0.00     0.144 S 
HETATM   20  O   UNL     1     -36.788 -51.533  12.111  1.00  0.00    -0.228 OA
HETATM   21  O   UNL     1     -39.115 -51.931  13.044  1.00  0.00    -0.228 OA
HETATM   22  C   UNL     1     -38.613 -49.661  11.856  1.00  0.00     0.146 C 
ENDBRANCH  15  16
ENDBRANCH   4  15
TORSDOF 4
ENDMDL
MODEL 2
REMARK VINA RESULT:      -6.2      2.046      2.482
REMARK  4 active torsions:
REMARK  status: ('A' for Active; 'I' for Inactive)
REMARK    1  A    between atoms: C_2  and  N_3 
REMARK    2  A    between atoms: C_5  and  N_6 
REMARK       I    between atoms: N_6  and  C_7 
REMARK       I    between atoms: C_7  and  N_9 
REMARK    3  A    between atoms: N_9  and  C_10 
REMARK    4  A    between atoms: C_10  and  C_11 
ROOT
HETATM    1  N   UNL     1     -41.938 -48.263   9.556  1.00  0.00    -0.306 N 
HETATM    2  C   UNL     1     -41.417 -48.572  10.792  1.00  0.00     0.320 C 
HETATM    3  O   UNL     1     -41.819 -48.141  11.869  1.00  0.00    -0.247 OA
HETATM    4  N   UNL     1     -40.373 -49.477  10.723  1.00  0.00    -0.342 N 
HETATM    5  H   UNL     1     -41.580 -48.735   8.743  1.00  0.00     0.171 HD
HETATM    6  H   UNL     1     -39.807 -49.431   9.885  1.00  0.00     0.164 HD
ENDROOT
BRANCH   1   7
HETATM    7  C   UNL     1     -43.000 -47.391   9.373  1.00  0.00     0.070 A 
HETATM    8  C   UNL     1     -44.320 -47.705   9.153  1.00  0.00     0.141 A 
HETATM    9  N   UNL     1     -44.992 -46.525   9.044  1.00  0.00    -0.302 N 
HETATM   10  N   UNL     1     -44.196 -45.445   9.168  1.00  0.00    -0.308 N 
HETATM   11  C   UNL     1     -42.985 -45.977   9.368  1.00  0.00     0.138 A 
ATOM     12  HN  UNL     1     -44.456 -44.459   9.120  1.00  0.00     0.186 HD
BRANCH   9  13
HETATM   13  C   UNL     1     -46.423 -46.381   8.853  1.00  0.00     0.143 C 
HETATM   14  C   UNL     1     -47.169 -47.686   9.064  1.00  0.00     0.028 C 
ENDBRANCH   9  13
ENDBRANCH   1   7
BRANCH   4  15
HETATM   15  C   UNL     1     -39.692 -49.802  11.963  1.00  0.00     0.130 C 
BRANCH  15  16
HETATM   16  C   UNL     1     -39.790 -51.273  12.354  1.00  0.00     0.018 C 
HETATM   17  C   UNL     1     -41.246 -51.748  12.522  1.00  0.00     0.022 C 
HETATM   18  C   UNL     1     -41.314 -52.893  13.533  1.00  0.00     0.141 C 
HETATM   19  S   UNL     1     -39.700 -53.054  14.264  1.00  0.00     0.144 S 
HETATM   20  O   UNL     1     -39.812 -53.025  15.706  1.00  0.00    -0.228 OA
HETATM   21  O   UNL     1     -38.976 -54.092  13.559  1.00  0.00    -0.228 OA
HETATM   22  C   UNL     1     -39.097 -51.488  13.699  1.00  0.00     0.146 C 
ENDBRANCH  15  16
ENDBRANCH   4  15
TORSDOF 4
ENDMDL
MODEL 3
REMARK VINA RESULT:      -6.1      5.054      6.653
REMARK  4 active torsions:
REMARK  status: ('A' for Active; 'I' for Inactive)
REMARK    1  A    between atoms: C_2  and  N_3 
REMARK    2  A    between atoms: C_5  and  N_6 
REMARK       I    between atoms: N_6  and  C_7 
REMARK       I    between atoms: C_7  and  N_9 
REMARK    3  A    between atoms: N_9  and  C_10 
REMARK    4  A    between atoms: C_10  and  C_11 
ROOT
HETATM    1  N   UNL     1     -40.850 -50.849  11.134  1.00  0.00    -0.306 N 
HETATM    2  C   UNL     1     -41.283 -51.535  12.246  1.00  0.00     0.320 C 
HETATM    3  O   UNL     1     -41.521 -51.043  13.345  1.00  0.00    -0.247 OA
HETATM    4  N   UNL     1     -41.470 -52.885  12.005  1.00  0.00    -0.342 N 
HETATM    5  H   UNL     1     -40.761 -51.341  10.261  1.00  0.00     0.171 HD
HETATM    6  H   UNL     1     -40.858 -53.295  11.311  1.00  0.00     0.164 HD
ENDROOT
BRANCH   1   7
HETATM    7  C   UNL     1     -40.608 -49.484  11.127  1.00  0.00     0.070 A 
HETATM    8  C   UNL     1     -41.439 -48.483  10.682  1.00  0.00     0.141 A 
HETATM    9  N   UNL     1     -40.782 -47.308  10.883  1.00  0.00    -0.302 N 
HETATM   10  N   UNL     1     -39.559 -47.467  11.426  1.00  0.00    -0.308 N 
HETATM   11  C   UNL     1     -39.458 -48.793  11.573  1.00  0.00     0.138 A 
ATOM     12  HN  UNL     1     -38.875 -46.749  11.666  1.00  0.00     0.186 HD
BRANCH   9  13
HETATM   13  C   UNL     1     -41.307 -45.986  10.598  1.00  0.00     0.143 C 
HETATM   14  C   UNL     1     -40.233 -44.914  10.651  1.00  0.00     0.028 C 
ENDBRANCH   9  13
ENDBRANCH   1   7
BRANCH   4  15
HETATM   15  C   UNL     1     -41.839 -53.717  13.135  1.00  0.00     0.130 C 
BRANCH  15  16
HETATM   16  C   UNL     1     -43.286 -54.195  13.103  1.00  0.00     0.018 C 
HETATM   17  C   UNL     1     -44.250 -53.136  12.535  1.00  0.00     0.022 C 
HETATM   18  C   UNL     1     -45.646 -53.317  13.136  1.00  0.00     0.141 C 
HETATM   19  S   UNL     1     -45.518 -54.547  14.415  1.00  0.00     0.144 S 
HETATM   20  O   UNL     1     -46.084 -54.034  15.643  1.00  0.00    -0.228 OA
HETATM   21  O   UNL     1     -45.898 -55.830  13.859  1.00  0.00    -0.228 OA
HETATM   22  C   UNL     1     -43.752 -54.500  14.526  1.00  0.00     0.146 C 
ENDBRANCH  15  16
ENDBRANCH   4  15
TORSDOF 4
ENDMDL
MODEL 4
REMARK VINA RESULT:      -6.0      5.237      6.819
REMARK  4 active torsions:
REMARK  status: ('A' for Active; 'I' for Inactive)
REMARK    1  A    between atoms: C_2  and  N_3 
REMARK    2  A    between atoms: C_5  and  N_6 
REMARK       I    between atoms: N_6  and  C_7 
REMARK       I    between atoms: C_7  and  N_9 
REMARK    3  A    between atoms: N_9  and  C_10 
REMARK    4  A    between atoms: C_10  and  C_11 
ROOT
HETATM    1  N   UNL     1     -42.145 -52.382  11.681  1.00  0.00    -0.306 N 
HETATM    2  C   UNL     1     -41.401 -51.308  12.113  1.00  0.00     0.320 C 
HETATM    3  O   UNL     1     -41.224 -50.982  13.284  1.00  0.00    -0.247 OA
HETATM    4  N   UNL     1     -40.814 -50.609  11.074  1.00  0.00    -0.342 N 
HETATM    5  H   UNL     1     -42.160 -52.602  10.700  1.00  0.00     0.171 HD
HETATM    6  H   UNL     1     -41.328 -50.605  10.203  1.00  0.00     0.164 HD
ENDROOT
BRANCH   1   7
HETATM    7  C   UNL     1     -42.815 -53.240  12.540  1.00  0.00     0.070 A 
HETATM    8  C   UNL     1     -44.163 -53.509  12.579  1.00  0.00     0.141 A 
HETATM    9  N   UNL     1     -44.354 -54.417  13.577  1.00  0.00    -0.302 N 
HETATM   10  N   UNL     1     -43.215 -54.760  14.210  1.00  0.00    -0.308 N 
HETATM   11  C   UNL     1     -42.281 -54.041  13.575  1.00  0.00     0.138 A 
ATOM     12  HN  UNL     1     -43.094 -55.411  14.987  1.00  0.00     0.186 HD
BRANCH   9  13
HETATM   13  C   UNL     1     -45.622 -55.018  13.942  1.00  0.00     0.143 C 
HETATM   14  C   UNL     1     -46.511 -54.065  14.720  1.00  0.00     0.028 C 
ENDBRANCH   9  13
ENDBRANCH   1   7
BRANCH   4  15
HETATM   15  C   UNL     1     -40.081 -49.403  11.415  1.00  0.00     0.130 C 
BRANCH  15  16
HETATM   16  C   UNL     1     -40.944 -48.146  11.451  1.00  0.00     0.018 C 
HETATM   17  C   UNL     1     -41.977 -48.100  10.309  1.00  0.00     0.022 C 
HETATM   18  C   UNL     1     -42.297 -46.649   9.946  1.00  0.00     0.141 C 
HETATM   19  S   UNL     1     -41.171 -45.613  10.853  1.00  0.00     0.144 S 
HETATM   20  O   UNL     1     -40.505 -44.705   9.944  1.00  0.00    -0.228 OA
HETATM   21  O   UNL     1     -41.830 -45.161  12.061  1.00  0.00    -0.228 OA
HETATM   22  C   UNL     1     -40.054 -46.914  11.293  1.00  0.00     0.146 C 
ENDBRANCH  15  16
ENDBRANCH   4  15
TORSDOF 4
ENDMDL
MODEL 5
REMARK VINA RESULT:      -5.9      4.878      6.254
REMARK  4 active torsions:
REMARK  status: ('A' for Active; 'I' for Inactive)
REMARK    1  A    between atoms: C_2  and  N_3 
REMARK    2  A    between atoms: C_5  and  N_6 
REMARK       I    between atoms: N_6  and  C_7 
REMARK       I    between atoms: C_7  and  N_9 
REMARK    3  A    between atoms: N_9  and  C_10 
REMARK    4  A    between atoms: C_10  and  C_11 
ROOT
HETATM    1  N   UNL     1     -41.577 -49.603  10.911  1.00  0.00    -0.306 N 
HETATM    2  C   UNL     1     -42.032 -50.132  12.098  1.00  0.00     0.320 C 
HETATM    3  O   UNL     1     -42.414 -49.487  13.071  1.00  0.00    -0.247 OA
HETATM    4  N   UNL     1     -42.056 -51.515  12.096  1.00  0.00    -0.342 N 
HETATM    5  H   UNL     1     -41.362 -50.225  10.151  1.00  0.00     0.171 HD
HETATM    6  H   UNL     1     -41.348 -51.964  11.531  1.00  0.00     0.164 HD
ENDROOT
BRANCH   1   7
HETATM    7  C   UNL     1     -41.478 -48.241  10.672  1.00  0.00     0.070 A 
HETATM    8  C   UNL     1     -40.505 -47.376  11.114  1.00  0.00     0.141 A 
HETATM    9  N   UNL     1     -40.819 -46.146  10.622  1.00  0.00    -0.302 N 
HETATM   10  N   UNL     1     -41.948 -46.138   9.886  1.00  0.00    -0.308 N 
HETATM   11  C   UNL     1     -42.345 -47.416   9.919  1.00  0.00     0.138 A 
ATOM     12  HN  UNL     1     -42.392 -45.348   9.418  1.00  0.00     0.186 HD
BRANCH   9  13
HETATM   13  C   UNL     1     -40.037 -44.938  10.803  1.00  0.00     0.143 C 
HETATM   14  C   UNL     1     -39.145 -44.641   9.611  1.00  0.00     0.028 C 
ENDBRANCH   9  13
ENDBRANCH   1   7
BRANCH   4  15
HETATM   15  C   UNL     1     -42.433 -52.175  13.332  1.00  0.00     0.130 C 
BRANCH  15  16
HETATM   16  C   UNL     1     -43.705 -53.009  13.222  1.00  0.00     0.018 C 
HETATM   17  C   UNL     1     -44.980 -52.146  13.169  1.00  0.00     0.022 C 
HETATM   18  C   UNL     1     -46.165 -52.918  13.753  1.00  0.00     0.141 C 
HETATM   19  S   UNL     1     -45.525 -54.421  14.456  1.00  0.00     0.144 S 
HETATM   20  O   UNL     1     -45.977 -54.551  15.824  1.00  0.00    -0.228 OA
HETATM   21  O   UNL     1     -45.673 -55.485  13.483  1.00  0.00    -0.228 OA
HETATM   22  C   UNL     1     -43.831 -53.908  14.452  1.00  0.00     0.146 C 
ENDBRANCH  15  16
ENDBRANCH   4  15
TORSDOF 4
ENDMDL
MODEL 6
REMARK VINA RESULT:      -5.8      4.627      6.802
REMARK  4 active torsions:
REMARK  status: ('A' for Active; 'I' for Inactive)
REMARK    1  A    between atoms: C_2  and  N_3 
REMARK    2  A    between atoms: C_5  and  N_6 
REMARK       I    between atoms: N_6  and  C_7 
REMARK       I    between atoms: C_7  and  N_9 
REMARK    3  A    between atoms: N_9  and  C_10 
REMARK    4  A    between atoms: C_10  and  C_11 
ROOT
HETATM    1  N   UNL     1     -40.966 -51.049  11.274  1.00  0.00    -0.306 N 
HETATM    2  C   UNL     1     -40.585 -49.888  11.908  1.00  0.00     0.320 C 
HETATM    3  O   UNL     1     -40.629 -49.684  13.118  1.00  0.00    -0.247 OA
HETATM    4  N   UNL     1     -40.092 -48.936  11.034  1.00  0.00    -0.342 N 
HETATM    5  H   UNL     1     -40.815 -51.137  10.283  1.00  0.00     0.171 HD
HETATM    6  H   UNL     1     -40.490 -48.947  10.104  1.00  0.00     0.164 HD
ENDROOT
BRANCH   1   7
HETATM    7  C   UNL     1     -41.476 -52.151  11.943  1.00  0.00     0.070 A 
HETATM    8  C   UNL     1     -42.771 -52.362  12.354  1.00  0.00     0.141 A 
HETATM    9  N   UNL     1     -42.799 -53.583  12.957  1.00  0.00    -0.302 N 
HETATM   10  N   UNL     1     -41.597 -54.193  12.981  1.00  0.00    -0.308 N 
HETATM   11  C   UNL     1     -40.796 -53.317  12.362  1.00  0.00     0.138 A 
ATOM     12  HN  UNL     1     -41.357 -55.102  13.375  1.00  0.00     0.186 HD
BRANCH   9  13
HETATM   13  C   UNL     1     -43.976 -54.231  13.502  1.00  0.00     0.143 C 
HETATM   14  C   UNL     1     -43.662 -55.059  14.735  1.00  0.00     0.028 C 
ENDBRANCH   9  13
ENDBRANCH   1   7
BRANCH   4  15
HETATM   15  C   UNL     1     -39.746 -47.640  11.589  1.00  0.00     0.130 C 
BRANCH  15  16
HETATM   16  C   UNL     1     -40.504 -46.477  10.959  1.00  0.00     0.018 C 
HETATM   17  C   UNL     1     -39.656 -45.194  10.866  1.00  0.00     0.022 C 
HETATM   18  C   UNL     1     -40.558 -43.960  10.920  1.00  0.00     0.141 C 
HETATM   19  S   UNL     1     -42.205 -44.521  11.290  1.00  0.00     0.144 S 
HETATM   20  O   UNL     1     -42.725 -43.789  12.424  1.00  0.00    -0.228 OA
HETATM   21  O   UNL     1     -42.937 -44.655  10.048  1.00  0.00    -0.228 OA
HETATM   22  C   UNL     1     -41.722 -46.140  11.819  1.00  0.00     0.146 C 
ENDBRANCH  15  16
ENDBRANCH   4  15
TORSDOF 4
ENDMDL
MODEL 7
REMARK VINA RESULT:      -5.6      4.994      6.081
REMARK  4 active torsions:
REMARK  status: ('A' for Active; 'I' for Inactive)
REMARK    1  A    between atoms: C_2  and  N_3 
REMARK    2  A    between atoms: C_5  and  N_6 
REMARK       I    between atoms: N_6  and  C_7 
REMARK       I    between atoms: C_7  and  N_9 
REMARK    3  A    between atoms: N_9  and  C_10 
REMARK    4  A    between atoms: C_10  and  C_11 
ROOT
HETATM    1  N   UNL     1     -42.766 -52.282  11.839  1.00  0.00    -0.306 N 
HETATM    2  C   UNL     1     -41.614 -51.802  12.419  1.00  0.00     0.320 C 
HETATM    3  O   UNL     1     -41.348 -51.828  13.617  1.00  0.00    -0.247 OA
HETATM    4  N   UNL     1     -40.721 -51.291  11.494  1.00  0.00    -0.342 N 
HETATM    5  H   UNL     1     -42.847 -52.279  10.837  1.00  0.00     0.171 HD
HETATM    6  H   UNL     1     -41.134 -50.876  10.669  1.00  0.00     0.164 HD
ENDROOT
BRANCH   1   7
HETATM    7  C   UNL     1     -43.802 -52.855  12.563  1.00  0.00     0.070 A 
HETATM    8  C   UNL     1     -44.792 -52.214  13.268  1.00  0.00     0.141 A 
HETATM    9  N   UNL     1     -45.584 -53.184  13.803  1.00  0.00    -0.302 N 
HETATM   10  N   UNL     1     -45.175 -54.432  13.504  1.00  0.00    -0.308 N 
HETATM   11  C   UNL     1     -44.090 -54.227  12.748  1.00  0.00     0.138 A 
ATOM     12  HN  UNL     1     -45.592 -55.320  13.786  1.00  0.00     0.186 HD
BRANCH   9  13
HETATM   13  C   UNL     1     -46.781 -52.959  14.591  1.00  0.00     0.143 C 
HETATM   14  C   UNL     1     -46.943 -51.505  14.997  1.00  0.00     0.028 C 
ENDBRANCH   9  13
ENDBRANCH   1   7
BRANCH   4  15
HETATM   15  C   UNL     1     -39.511 -50.676  12.008  1.00  0.00     0.130 C 
BRANCH  15  16
HETATM   16  C   UNL     1     -39.469 -49.161  11.838  1.00  0.00     0.018 C 
HETATM   17  C   UNL     1     -39.265 -48.418  13.172  1.00  0.00     0.022 C 
HETATM   18  C   UNL     1     -39.905 -47.030  13.106  1.00  0.00     0.141 C 
HETATM   19  S   UNL     1     -40.816 -46.936  11.581  1.00  0.00     0.144 S 
HETATM   20  O   UNL     1     -42.174 -46.517  11.849  1.00  0.00    -0.228 OA
HETATM   21  O   UNL     1     -39.984 -46.291  10.586  1.00  0.00    -0.228 OA
HETATM   22  C   UNL     1     -40.800 -48.677  11.262  1.00  0.00     0.146 C 
ENDBRANCH  15  16
ENDBRANCH   4  15
TORSDOF 4
ENDMDL
MODEL 8
REMARK VINA RESULT:      -5.6      5.067      7.182
REMARK  4 active torsions:
REMARK  status: ('A' for Active; 'I' for Inactive)
REMARK    1  A    between atoms: C_2  and  N_3 
REMARK    2  A    between atoms: C_5  and  N_6 
REMARK       I    between atoms: N_6  and  C_7 
REMARK       I    between atoms: C_7  and  N_9 
REMARK    3  A    between atoms: N_9  and  C_10 
REMARK    4  A    between atoms: C_10  and  C_11 
ROOT
HETATM    1  N   UNL     1     -42.158 -52.336  11.706  1.00  0.00    -0.306 N 
HETATM    2  C   UNL     1     -41.360 -51.283  12.092  1.00  0.00     0.320 C 
HETATM    3  O   UNL     1     -41.064 -50.993  13.248  1.00  0.00    -0.247 OA
HETATM    4  N   UNL     1     -40.866 -50.562  11.020  1.00  0.00    -0.342 N 
HETATM    5  H   UNL     1     -42.272 -52.528  10.725  1.00  0.00     0.171 HD
HETATM    6  H   UNL     1     -41.462 -50.527  10.204  1.00  0.00     0.164 HD
ENDROOT
BRANCH   1   7
HETATM    7  C   UNL     1     -42.754 -53.210  12.603  1.00  0.00     0.070 A 
HETATM    8  C   UNL     1     -42.163 -53.875  13.650  1.00  0.00     0.141 A 
HETATM    9  N   UNL     1     -43.140 -54.608  14.253  1.00  0.00    -0.302 N 
HETATM   10  N   UNL     1     -44.344 -54.478  13.662  1.00  0.00    -0.308 N 
HETATM   11  C   UNL     1     -44.104 -53.626  12.658  1.00  0.00     0.138 A 
ATOM     12  HN  UNL     1     -45.226 -54.923  13.918  1.00  0.00     0.186 HD
BRANCH   9  13
HETATM   13  C   UNL     1     -42.972 -55.432  15.434  1.00  0.00     0.143 C 
HETATM   14  C   UNL     1     -41.576 -55.327  16.019  1.00  0.00     0.028 C 
ENDBRANCH   9  13
ENDBRANCH   1   7
BRANCH   4  15
HETATM   15  C   UNL     1     -40.086 -49.376  11.320  1.00  0.00     0.130 C 
BRANCH  15  16
HETATM   16  C   UNL     1     -40.915 -48.100  11.414  1.00  0.00     0.018 C 
HETATM   17  C   UNL     1     -41.993 -48.009  10.317  1.00  0.00     0.022 C 
HETATM   18  C   UNL     1     -42.292 -46.544   9.992  1.00  0.00     0.141 C 
HETATM   19  S   UNL     1     -41.104 -45.551  10.868  1.00  0.00     0.144 S 
HETATM   20  O   UNL     1     -40.454 -44.644   9.948  1.00  0.00    -0.228 OA
HETATM   21  O   UNL     1     -41.701 -45.106  12.110  1.00  0.00    -0.228 OA
HETATM   22  C   UNL     1     -40.002 -46.886  11.238  1.00  0.00     0.146 C 
ENDBRANCH  15  16
ENDBRANCH   4  15
TORSDOF 4
ENDMDL
MODEL 9
REMARK VINA RESULT:      -5.6      4.699      5.790
REMARK  4 active torsions:
REMARK  status: ('A' for Active; 'I' for Inactive)
REMARK    1  A    between atoms: C_2  and  N_3 
REMARK    2  A    between atoms: C_5  and  N_6 
REMARK       I    between atoms: N_6  and  C_7 
REMARK       I    between atoms: C_7  and  N_9 
REMARK    3  A    between atoms: N_9  and  C_10 
REMARK    4  A    between atoms: C_10  and  C_11 
ROOT
HETATM    1  N   UNL     1     -42.400 -49.398  11.331  1.00  0.00    -0.306 N 
HETATM    2  C   UNL     1     -41.865 -50.295  12.226  1.00  0.00     0.320 C 
HETATM    3  O   UNL     1     -41.246 -50.008  13.247  1.00  0.00    -0.247 OA
HETATM    4  N   UNL     1     -42.122 -51.611  11.886  1.00  0.00    -0.342 N 
HETATM    5  H   UNL     1     -42.957 -49.743  10.567  1.00  0.00     0.171 HD
HETATM    6  H   UNL     1     -42.192 -51.802  10.895  1.00  0.00     0.164 HD
ENDROOT
BRANCH   1   7
HETATM    7  C   UNL     1     -42.287 -48.023  11.469  1.00  0.00     0.070 A 
HETATM    8  C   UNL     1     -41.335 -47.196  10.919  1.00  0.00     0.141 A 
HETATM    9  N   UNL     1     -41.633 -45.930  11.323  1.00  0.00    -0.302 N 
HETATM   10  N   UNL     1     -42.720 -45.866  12.116  1.00  0.00    -0.308 N 
HETATM   11  C   UNL     1     -43.115 -47.142  12.202  1.00  0.00     0.138 A 
ATOM     12  HN  UNL     1     -43.141 -45.042  12.548  1.00  0.00     0.186 HD
BRANCH   9  13
HETATM   13  C   UNL     1     -40.915 -44.730  10.940  1.00  0.00     0.143 C 
HETATM   14  C   UNL     1     -39.623 -45.038  10.206  1.00  0.00     0.028 C 
ENDBRANCH   9  13
ENDBRANCH   1   7
BRANCH   4  15
HETATM   15  C   UNL     1     -41.524 -52.641  12.715  1.00  0.00     0.130 C 
BRANCH  15  16
HETATM   16  C   UNL     1     -42.428 -53.126  13.843  1.00  0.00     0.018 C 
HETATM   17  C   UNL     1     -41.865 -54.365  14.566  1.00  0.00     0.022 C 
HETATM   18  C   UNL     1     -43.007 -55.206  15.138  1.00  0.00     0.141 C 
HETATM   19  S   UNL     1     -44.531 -54.513  14.537  1.00  0.00     0.144 S 
HETATM   20  O   UNL     1     -45.330 -55.550  13.923  1.00  0.00    -0.228 OA
HETATM   21  O   UNL     1     -45.060 -53.617  15.546  1.00  0.00    -0.228 OA
HETATM   22  C   UNL     1     -43.786 -53.529  13.269  1.00  0.00     0.146 C 
ENDBRANCH  15  16
ENDBRANCH   4  15
TORSDOF 4
ENDMDL
