MODEL 1
REMARK VINA RESULT:      -6.2      0.000      0.000
REMARK  3 active torsions:
REMARK  status: ('A' for Active; 'I' for Inactive)
REMARK    1  A    between atoms: O_2  and  C_3 
REMARK    2  A    between atoms: C_6  and  N_7 
REMARK       I    between atoms: N_7  and  C_8 
REMARK       I    between atoms: C_8  and  N_10 
REMARK    3  A    between atoms: N_10  and  C_11 
ROOT
HETATM    1  N   UNL     1     -43.816 -50.277  12.507  1.00  0.00    -0.337 N 
HETATM    2  C   UNL     1     -43.133 -49.084  12.444  1.00  0.00     0.322 C 
HETATM    3  O   UNL     1     -43.154 -48.256  13.349  1.00  0.00    -0.247 OA
HETATM    4  N   UNL     1     -42.380 -48.996  11.297  1.00  0.00    -0.293 N 
HETATM    5  H   UNL     1     -44.155 -50.612  11.613  1.00  0.00     0.164 HD
HETATM    6  H   UNL     1     -42.025 -49.861  10.921  1.00  0.00     0.172 HD
ENDROOT
BRANCH   1   7
HETATM    7  C   UNL     1     -44.446 -50.739  13.770  1.00  0.00     0.099 C 
HETATM    8  C   UNL     1     -43.726 -51.966  14.393  1.00  0.00     0.064 C 
HETATM    9  C   UNL     1     -44.753 -52.906  13.689  1.00  0.00     0.067 C 
HETATM   10  C   UNL     1     -44.166 -53.473  12.389  1.00  0.00     0.047 C 
HETATM   11  C   UNL     1     -45.719 -51.643  13.619  1.00  0.00     0.004 C 
HETATM   12  C   UNL     1     -46.549 -51.496  12.346  1.00  0.00     0.020 C 
HETATM   13  C   UNL     1     -46.639 -51.471  14.847  1.00  0.00     0.020 C 
BRANCH   9  14
HETATM   14  O   UNL     1     -45.210 -54.000  14.532  1.00  0.00    -0.384 OA
HETATM   15  C   UNL     1     -45.586 -55.216  13.905  1.00  0.00     0.202 C 
ENDBRANCH   9  14
ENDBRANCH   1   7
BRANCH   4  16
HETATM   16  C   UNL     1     -41.570 -47.911  11.033  1.00  0.00     0.131 A 
HETATM   17  C   UNL     1     -41.942 -46.637  10.549  1.00  0.00     0.077 A 
HETATM   18  C   UNL     1     -40.770 -45.930  10.524  1.00  0.00     0.171 A 
HETATM   19  O   UNL     1     -39.753 -46.729  10.929  1.00  0.00    -0.248 OA
HETATM   20  N   UNL     1     -40.248 -47.992  11.210  1.00  0.00    -0.245 N 
ATOM     21  HN  UNL     1     -39.714 -48.814  11.493  1.00  0.00     0.196 HD
ENDBRANCH   4  16
TORSDOF 3
ENDMDL
MODEL 2
REMARK VINA RESULT:      -5.7      3.398      4.358
REMARK  3 active torsions:
REMARK  status: ('A' for Active; 'I' for Inactive)
REMARK    1  A    between atoms: O_2  and  C_3 
REMARK    2  A    between atoms: C_6  and  N_7 
REMARK       I    between atoms: N_7  and  C_8 
REMARK       I    between atoms: C_8  and  N_10 
REMARK    3  A    between atoms: N_10  and  C_11 
ROOT
HETATM    1  N   UNL     1     -41.290 -49.656  11.488  1.00  0.00    -0.337 N 
HETATM    2  C   UNL     1     -41.870 -48.436  11.229  1.00  0.00     0.322 C 
HETATM    3  O   UNL     1     -41.690 -47.450  11.936  1.00  0.00    -0.247 OA
HETATM    4  N   UNL     1     -42.586 -48.458  10.055  1.00  0.00    -0.293 N 
HETATM    5  H   UNL     1     -41.854 -50.453  11.216  1.00  0.00     0.164 HD
HETATM    6  H   UNL     1     -42.254 -49.081   9.335  1.00  0.00     0.172 HD
ENDROOT
BRANCH   1   7
HETATM    7  C   UNL     1     -40.230 -49.804  12.517  1.00  0.00     0.099 C 
HETATM    8  C   UNL     1     -39.178 -50.886  12.154  1.00  0.00     0.064 C 
HETATM    9  C   UNL     1     -39.972 -51.922  13.010  1.00  0.00     0.067 C 
HETATM   10  C   UNL     1     -40.874 -52.784  12.118  1.00  0.00     0.047 C 
HETATM   11  C   UNL     1     -40.597 -50.671  13.771  1.00  0.00     0.004 C 
HETATM   12  C   UNL     1     -42.071 -50.781  14.154  1.00  0.00     0.020 C 
HETATM   13  C   UNL     1     -39.788 -50.198  14.998  1.00  0.00     0.020 C 
BRANCH   9  14
HETATM   14  O   UNL     1     -39.119 -52.784  13.814  1.00  0.00    -0.384 OA
HETATM   15  C   UNL     1     -39.498 -54.142  13.970  1.00  0.00     0.202 C 
ENDBRANCH   9  14
ENDBRANCH   1   7
BRANCH   4  16
HETATM   16  C   UNL     1     -43.218 -47.337   9.561  1.00  0.00     0.131 A 
HETATM   17  C   UNL     1     -44.597 -47.142   9.320  1.00  0.00     0.077 A 
HETATM   18  C   UNL     1     -44.685 -45.845   8.890  1.00  0.00     0.171 A 
HETATM   19  O   UNL     1     -43.445 -45.302   8.838  1.00  0.00    -0.248 OA
HETATM   20  N   UNL     1     -42.512 -46.254   9.219  1.00  0.00    -0.245 N 
ATOM     21  HN  UNL     1     -41.498 -46.150   9.236  1.00  0.00     0.196 HD
ENDBRANCH   4  16
TORSDOF 3
ENDMDL
MODEL 3
REMARK VINA RESULT:      -5.6      1.268      1.847
REMARK  3 active torsions:
REMARK  status: ('A' for Active; 'I' for Inactive)
REMARK    1  A    between atoms: O_2  and  C_3 
REMARK    2  A    between atoms: C_6  and  N_7 
REMARK       I    between atoms: N_7  and  C_8 
REMARK       I    between atoms: C_8  and  N_10 
REMARK    3  A    between atoms: N_10  and  C_11 
ROOT
HETATM    1  N   UNL     1     -42.438 -51.025  12.185  1.00  0.00    -0.337 N 
HETATM    2  C   UNL     1     -41.910 -49.754  12.221  1.00  0.00     0.322 C 
HETATM    3  O   UNL     1     -41.354 -49.291  13.211  1.00  0.00    -0.247 OA
HETATM    4  N   UNL     1     -42.017 -49.131  10.999  1.00  0.00    -0.293 N 
HETATM    5  H   UNL     1     -43.261 -51.120  11.603  1.00  0.00     0.164 HD
HETATM    6  H   UNL     1     -41.986 -49.725  10.185  1.00  0.00     0.172 HD
ENDROOT
BRANCH   1   7
HETATM    7  C   UNL     1     -42.171 -52.001  13.272  1.00  0.00     0.099 C 
HETATM    8  C   UNL     1     -42.447 -53.469  12.850  1.00  0.00     0.064 C 
HETATM    9  C   UNL     1     -43.874 -53.363  13.472  1.00  0.00     0.067 C 
HETATM   10  C   UNL     1     -44.917 -53.065  12.387  1.00  0.00     0.047 C 
HETATM   11  C   UNL     1     -43.300 -52.165  14.349  1.00  0.00     0.004 C 
HETATM   12  C   UNL     1     -44.242 -50.984  14.579  1.00  0.00     0.020 C 
HETATM   13  C   UNL     1     -42.686 -52.595  15.699  1.00  0.00     0.020 C 
BRANCH   9  14
HETATM   14  O   UNL     1     -44.272 -54.549  14.214  1.00  0.00    -0.384 OA
HETATM   15  C   UNL     1     -45.499 -55.173  13.871  1.00  0.00     0.202 C 
ENDBRANCH   9  14
ENDBRANCH   1   7
BRANCH   4  16
HETATM   16  C   UNL     1     -41.516 -47.866  10.775  1.00  0.00     0.131 A 
HETATM   17  C   UNL     1     -42.212 -46.707  10.367  1.00  0.00     0.077 A 
HETATM   18  C   UNL     1     -41.256 -45.726  10.354  1.00  0.00     0.171 A 
HETATM   19  O   UNL     1     -40.058 -46.260  10.693  1.00  0.00    -0.248 OA
HETATM   20  N   UNL     1     -40.209 -47.619  10.918  1.00  0.00    -0.245 N 
ATOM     21  HN  UNL     1     -39.477 -48.291  11.145  1.00  0.00     0.196 HD
ENDBRANCH   4  16
TORSDOF 3
ENDMDL
MODEL 4
REMARK VINA RESULT:      -5.5      2.978      6.973
REMARK  3 active torsions:
REMARK  status: ('A' for Active; 'I' for Inactive)
REMARK    1  A    between atoms: O_2  and  C_3 
REMARK    2  A    between atoms: C_6  and  N_7 
REMARK       I    between atoms: N_7  and  C_8 
REMARK       I    between atoms: C_8  and  N_10 
REMARK    3  A    between atoms: N_10  and  C_11 
ROOT
HETATM    1  N   UNL     1     -41.395 -48.941  11.159  1.00  0.00    -0.337 N 
HETATM    2  C   UNL     1     -40.931 -50.133  11.666  1.00  0.00     0.322 C 
HETATM    3  O   UNL     1     -39.776 -50.291  12.046  1.00  0.00    -0.247 OA
HETATM    4  N   UNL     1     -41.938 -51.065  11.762  1.00  0.00    -0.293 N 
HETATM    5  H   UNL     1     -42.108 -49.039  10.446  1.00  0.00     0.164 HD
HETATM    6  H   UNL     1     -42.867 -50.711  11.933  1.00  0.00     0.172 HD
ENDROOT
BRANCH   1   7
HETATM    7  C   UNL     1     -40.585 -47.699  11.245  1.00  0.00     0.099 C 
HETATM    8  C   UNL     1     -40.479 -47.145  12.691  1.00  0.00     0.064 C 
HETATM    9  C   UNL     1     -41.676 -46.188  12.396  1.00  0.00     0.067 C 
HETATM   10  C   UNL     1     -42.986 -46.779  12.933  1.00  0.00     0.047 C 
HETATM   11  C   UNL     1     -41.316 -46.367  10.855  1.00  0.00     0.004 C 
HETATM   12  C   UNL     1     -42.498 -46.459   9.892  1.00  0.00     0.020 C 
HETATM   13  C   UNL     1     -40.296 -45.343  10.312  1.00  0.00     0.020 C 
BRANCH   9  14
HETATM   14  O   UNL     1     -41.492 -44.849  12.932  1.00  0.00    -0.384 OA
HETATM   15  C   UNL     1     -42.631 -44.169  13.436  1.00  0.00     0.202 C 
ENDBRANCH   9  14
ENDBRANCH   1   7
BRANCH   4  16
HETATM   16  C   UNL     1     -41.727 -52.323  12.287  1.00  0.00     0.131 A 
HETATM   17  C   UNL     1     -42.335 -52.916  13.415  1.00  0.00     0.077 A 
HETATM   18  C   UNL     1     -41.812 -54.180  13.455  1.00  0.00     0.171 A 
HETATM   19  O   UNL     1     -40.922 -54.332  12.446  1.00  0.00    -0.248 OA
HETATM   20  N   UNL     1     -40.833 -53.148  11.731  1.00  0.00    -0.245 N 
ATOM     21  HN  UNL     1     -40.215 -52.947  10.946  1.00  0.00     0.196 HD
ENDBRANCH   4  16
TORSDOF 3
ENDMDL
MODEL 5
REMARK VINA RESULT:      -5.4      4.355      5.764
REMARK  3 active torsions:
REMARK  status: ('A' for Active; 'I' for Inactive)
REMARK    1  A    between atoms: O_2  and  C_3 
REMARK    2  A    between atoms: C_6  and  N_7 
REMARK       I    between atoms: N_7  and  C_8 
REMARK       I    between atoms: C_8  and  N_10 
REMARK    3  A    between atoms: N_10  and  C_11 
ROOT
HETATM    1  N   UNL     1     -40.407 -47.557  12.174  1.00  0.00    -0.337 N 
HETATM    2  C   UNL     1     -40.827 -46.457  11.463  1.00  0.00     0.322 C 
HETATM    3  O   UNL     1     -40.432 -46.206  10.329  1.00  0.00    -0.247 OA
HETATM    4  N   UNL     1     -41.787 -45.751  12.149  1.00  0.00    -0.293 N 
HETATM    5  H   UNL     1     -40.356 -47.413  13.175  1.00  0.00     0.164 HD
HETATM    6  H   UNL     1     -42.388 -46.282  12.760  1.00  0.00     0.172 HD
ENDROOT
BRANCH   1   7
HETATM    7  C   UNL     1     -39.614 -48.635  11.530  1.00  0.00     0.099 C 
HETATM    8  C   UNL     1     -40.373 -49.989  11.465  1.00  0.00     0.064 C 
HETATM    9  C   UNL     1     -39.662 -50.432  12.782  1.00  0.00     0.067 C 
HETATM   10  C   UNL     1     -40.577 -50.206  13.993  1.00  0.00     0.047 C 
HETATM   11  C   UNL     1     -38.549 -49.347  12.435  1.00  0.00     0.004 C 
HETATM   12  C   UNL     1     -37.979 -48.563  13.615  1.00  0.00     0.020 C 
HETATM   13  C   UNL     1     -37.387 -49.877  11.568  1.00  0.00     0.020 C 
BRANCH   9  14
HETATM   14  O   UNL     1     -39.217 -51.816  12.762  1.00  0.00    -0.384 OA
HETATM   15  C   UNL     1     -39.334 -52.573  13.957  1.00  0.00     0.202 C 
ENDBRANCH   9  14
ENDBRANCH   1   7
BRANCH   4  16
HETATM   16  C   UNL     1     -42.396 -44.633  11.617  1.00  0.00     0.131 A 
HETATM   17  C   UNL     1     -42.445 -43.325  12.148  1.00  0.00     0.077 A 
HETATM   18  C   UNL     1     -43.116 -42.601  11.200  1.00  0.00     0.171 A 
HETATM   19  O   UNL     1     -43.482 -43.418  10.183  1.00  0.00    -0.248 OA
HETATM   20  N   UNL     1     -43.066 -44.710  10.463  1.00  0.00    -0.245 N 
ATOM     21  HN  UNL     1     -43.236 -45.546   9.904  1.00  0.00     0.196 HD
ENDBRANCH   4  16
TORSDOF 3
ENDMDL
MODEL 6
REMARK VINA RESULT:      -5.4      3.749      7.560
REMARK  3 active torsions:
REMARK  status: ('A' for Active; 'I' for Inactive)
REMARK    1  A    between atoms: O_2  and  C_3 
REMARK    2  A    between atoms: C_6  and  N_7 
REMARK       I    between atoms: N_7  and  C_8 
REMARK       I    between atoms: C_8  and  N_10 
REMARK    3  A    between atoms: N_10  and  C_11 
ROOT
HETATM    1  N   UNL     1     -40.702 -51.093  13.171  1.00  0.00    -0.337 N 
HETATM    2  C   UNL     1     -41.443 -52.219  12.896  1.00  0.00     0.322 C 
HETATM    3  O   UNL     1     -41.014 -53.150  12.223  1.00  0.00    -0.247 OA
HETATM    4  N   UNL     1     -42.660 -52.188  13.535  1.00  0.00    -0.293 N 
HETATM    5  H   UNL     1     -41.247 -50.242  13.251  1.00  0.00     0.164 HD
HETATM    6  H   UNL     1     -42.696 -51.699  14.416  1.00  0.00     0.172 HD
ENDROOT
BRANCH   1   7
HETATM    7  C   UNL     1     -39.252 -51.028  12.857  1.00  0.00     0.099 C 
HETATM    8  C   UNL     1     -38.363 -50.884  14.122  1.00  0.00     0.064 C 
HETATM    9  C   UNL     1     -38.344 -49.338  13.913  1.00  0.00     0.067 C 
HETATM   10  C   UNL     1     -39.386 -48.658  14.812  1.00  0.00     0.047 C 
HETATM   11  C   UNL     1     -38.705 -49.634  12.391  1.00  0.00     0.004 C 
HETATM   12  C   UNL     1     -39.687 -48.669  11.730  1.00  0.00     0.020 C 
HETATM   13  C   UNL     1     -37.483 -49.825  11.468  1.00  0.00     0.020 C 
BRANCH   9  14
HETATM   14  O   UNL     1     -37.039 -48.738  14.144  1.00  0.00    -0.384 OA
HETATM   15  C   UNL     1     -36.955 -47.647  15.047  1.00  0.00     0.202 C 
ENDBRANCH   9  14
ENDBRANCH   1   7
BRANCH   4  16
HETATM   16  C   UNL     1     -43.560 -53.230  13.450  1.00  0.00     0.131 A 
HETATM   17  C   UNL     1     -44.092 -54.016  14.495  1.00  0.00     0.077 A 
HETATM   18  C   UNL     1     -44.972 -54.858  13.870  1.00  0.00     0.171 A 
HETATM   19  O   UNL     1     -44.949 -54.626  12.536  1.00  0.00    -0.248 OA
HETATM   20  N   UNL     1     -44.027 -53.627  12.262  1.00  0.00    -0.245 N 
ATOM     21  HN  UNL     1     -43.760 -53.270  11.345  1.00  0.00     0.196 HD
ENDBRANCH   4  16
TORSDOF 3
ENDMDL
MODEL 7
REMARK VINA RESULT:      -5.4      4.627      6.135
REMARK  3 active torsions:
REMARK  status: ('A' for Active; 'I' for Inactive)
REMARK    1  A    between atoms: O_2  and  C_3 
REMARK    2  A    between atoms: C_6  and  N_7 
REMARK       I    between atoms: N_7  and  C_8 
REMARK       I    between atoms: C_8  and  N_10 
REMARK    3  A    between atoms: N_10  and  C_11 
ROOT
HETATM    1  N   UNL     1     -39.928 -48.879  12.147  1.00  0.00    -0.337 N 
HETATM    2  C   UNL     1     -41.079 -48.774  11.400  1.00  0.00     0.322 C 
HETATM    3  O   UNL     1     -41.985 -49.600  11.453  1.00  0.00    -0.247 OA
HETATM    4  N   UNL     1     -41.105 -47.605  10.677  1.00  0.00    -0.293 N 
HETATM    5  H   UNL     1     -39.102 -48.508  11.694  1.00  0.00     0.164 HD
HETATM    6  H   UNL     1     -40.629 -46.813  11.080  1.00  0.00     0.172 HD
ENDROOT
BRANCH   1   7
HETATM    7  C   UNL     1     -39.802 -49.884  13.232  1.00  0.00     0.099 C 
HETATM    8  C   UNL     1     -39.632 -49.242  14.636  1.00  0.00     0.064 C 
HETATM    9  C   UNL     1     -38.084 -49.389  14.498  1.00  0.00     0.067 C 
HETATM   10  C   UNL     1     -37.454 -48.068  14.037  1.00  0.00     0.047 C 
HETATM   11  C   UNL     1     -38.383 -50.525  13.422  1.00  0.00     0.004 C 
HETATM   12  C   UNL     1     -37.454 -50.570  12.211  1.00  0.00     0.020 C 
HETATM   13  C   UNL     1     -38.518 -51.945  14.012  1.00  0.00     0.020 C 
BRANCH   9  14
HETATM   14  O   UNL     1     -37.434 -49.837  15.719  1.00  0.00    -0.384 OA
HETATM   15  C   UNL     1     -36.238 -49.184  16.117  1.00  0.00     0.202 C 
ENDBRANCH   9  14
ENDBRANCH   1   7
BRANCH   4  16
HETATM   16  C   UNL     1     -42.181 -47.254   9.888  1.00  0.00     0.131 A 
HETATM   17  C   UNL     1     -42.884 -46.029   9.859  1.00  0.00     0.077 A 
HETATM   18  C   UNL     1     -43.810 -46.195   8.865  1.00  0.00     0.171 A 
HETATM   19  O   UNL     1     -43.703 -47.444   8.353  1.00  0.00    -0.248 OA
HETATM   20  N   UNL     1     -42.704 -48.131   9.025  1.00  0.00    -0.245 N 
ATOM     21  HN  UNL     1     -42.426 -49.102   8.889  1.00  0.00     0.196 HD
ENDBRANCH   4  16
TORSDOF 3
ENDMDL
MODEL 8
REMARK VINA RESULT:      -5.3      4.129      5.545
REMARK  3 active torsions:
REMARK  status: ('A' for Active; 'I' for Inactive)
REMARK    1  A    between atoms: O_2  and  C_3 
REMARK    2  A    between atoms: C_6  and  N_7 
REMARK       I    between atoms: N_7  and  C_8 
REMARK       I    between atoms: C_8  and  N_10 
REMARK    3  A    between atoms: N_10  and  C_11 
ROOT
HETATM    1  N   UNL     1     -41.806 -49.311  11.778  1.00  0.00    -0.337 N 
HETATM    2  C   UNL     1     -42.301 -48.464  10.814  1.00  0.00     0.322 C 
HETATM    3  O   UNL     1     -41.631 -48.073   9.863  1.00  0.00    -0.247 OA
HETATM    4  N   UNL     1     -43.634 -48.196  11.016  1.00  0.00    -0.293 N 
HETATM    5  H   UNL     1     -42.191 -49.162  12.703  1.00  0.00     0.164 HD
HETATM    6  H   UNL     1     -44.181 -48.923  11.452  1.00  0.00     0.172 HD
ENDROOT
BRANCH   1   7
HETATM    7  C   UNL     1     -40.494 -49.987  11.611  1.00  0.00     0.099 C 
HETATM    8  C   UNL     1     -40.373 -51.290  12.446  1.00  0.00     0.064 C 
HETATM    9  C   UNL     1     -39.665 -50.481  13.577  1.00  0.00     0.067 C 
HETATM   10  C   UNL     1     -40.664 -50.104  14.680  1.00  0.00     0.047 C 
HETATM   11  C   UNL     1     -39.305 -49.410  12.455  1.00  0.00     0.004 C 
HETATM   12  C   UNL     1     -39.375 -47.943  12.874  1.00  0.00     0.020 C 
HETATM   13  C   UNL     1     -37.966 -49.667  11.730  1.00  0.00     0.020 C 
BRANCH   9  14
HETATM   14  O   UNL     1     -38.532 -51.178  14.166  1.00  0.00    -0.384 OA
HETATM   15  C   UNL     1     -38.289 -51.005  15.553  1.00  0.00     0.202 C 
ENDBRANCH   9  14
ENDBRANCH   1   7
BRANCH   4  16
HETATM   16  C   UNL     1     -44.364 -47.407  10.151  1.00  0.00     0.131 A 
HETATM   17  C   UNL     1     -45.601 -47.695   9.534  1.00  0.00     0.077 A 
HETATM   18  C   UNL     1     -45.901 -46.560   8.831  1.00  0.00     0.171 A 
HETATM   19  O   UNL     1     -44.899 -45.660   8.979  1.00  0.00    -0.248 OA
HETATM   20  N   UNL     1     -43.907 -46.208   9.777  1.00  0.00    -0.245 N 
ATOM     21  HN  UNL     1     -43.014 -45.784  10.028  1.00  0.00     0.196 HD
ENDBRANCH   4  16
TORSDOF 3
ENDMDL
MODEL 9
REMARK VINA RESULT:      -5.2      3.012      3.757
REMARK  3 active torsions:
REMARK  status: ('A' for Active; 'I' for Inactive)
REMARK    1  A    between atoms: O_2  and  C_3 
REMARK    2  A    between atoms: C_6  and  N_7 
REMARK       I    between atoms: N_7  and  C_8 
REMARK       I    between atoms: C_8  and  N_10 
REMARK    3  A    between atoms: N_10  and  C_11 
ROOT
HETATM    1  N   UNL     1     -42.672 -51.379  13.506  1.00  0.00    -0.337 N 
HETATM    2  C   UNL     1     -41.462 -51.637  12.903  1.00  0.00     0.322 C 
HETATM    3  O   UNL     1     -41.277 -52.600  12.166  1.00  0.00    -0.247 OA
HETATM    4  N   UNL     1     -40.546 -50.646  13.168  1.00  0.00    -0.293 N 
HETATM    5  H   UNL     1     -42.600 -50.942  14.416  1.00  0.00     0.164 HD
HETATM    6  H   UNL     1     -40.913 -49.717  13.306  1.00  0.00     0.172 HD
ENDROOT
BRANCH   1   7
HETATM    7  C   UNL     1     -43.898 -52.127  13.126  1.00  0.00     0.099 C 
HETATM    8  C   UNL     1     -45.186 -51.266  13.220  1.00  0.00     0.064 C 
HETATM    9  C   UNL     1     -45.441 -51.832  14.652  1.00  0.00     0.067 C 
HETATM   10  C   UNL     1     -44.946 -50.848  15.719  1.00  0.00     0.047 C 
HETATM   11  C   UNL     1     -44.513 -53.055  14.230  1.00  0.00     0.004 C 
HETATM   12  C   UNL     1     -43.576 -53.595  15.309  1.00  0.00     0.020 C 
HETATM   13  C   UNL     1     -45.264 -54.234  13.574  1.00  0.00     0.020 C 
BRANCH   9  14
HETATM   14  O   UNL     1     -46.835 -52.161  14.905  1.00  0.00    -0.384 OA
HETATM   15  C   UNL     1     -47.421 -51.705  16.114  1.00  0.00     0.202 C 
ENDBRANCH   9  14
ENDBRANCH   1   7
BRANCH   4  16
HETATM   16  C   UNL     1     -39.275 -50.660  12.634  1.00  0.00     0.131 A 
HETATM   17  C   UNL     1     -38.742 -49.835  11.619  1.00  0.00     0.077 A 
HETATM   18  C   UNL     1     -37.435 -50.228  11.516  1.00  0.00     0.171 A 
HETATM   19  O   UNL     1     -37.200 -51.245  12.380  1.00  0.00    -0.248 OA
HETATM   20  N   UNL     1     -38.370 -51.549  13.057  1.00  0.00    -0.245 N 
ATOM     21  HN  UNL     1     -38.513 -52.296  13.737  1.00  0.00     0.196 HD
ENDBRANCH   4  16
TORSDOF 3
ENDMDL
