MODEL 1
REMARK VINA RESULT:      -5.4      0.000      0.000
REMARK  1 active torsions:
REMARK  status: ('A' for Active; 'I' for Inactive)
REMARK    1  A    between atoms: C_6  and  C_9 
ROOT
HETATM    1  C   UNL     1     -46.730 -48.385   8.887  1.00  0.00     0.090 C 
HETATM    2  C   UNL     1     -45.657 -47.394   9.118  1.00  0.00     0.093 A 
HETATM    3  N   UNL     1     -45.746 -46.117   8.736  1.00  0.00    -0.288 N 
ATOM      4  HN  UNL     1     -46.506 -45.641   8.251  1.00  0.00     0.188 HD
HETATM    5  N   UNL     1     -44.569 -45.626   9.160  1.00  0.00    -0.285 N 
HETATM    6  C   UNL     1     -43.814 -46.591   9.765  1.00  0.00     0.128 A 
HETATM    7  N   UNL     1     -44.495 -47.722   9.765  1.00  0.00    -0.332 N 
ATOM      8  HN  UNL     1     -44.221 -48.624  10.155  1.00  0.00     0.168 HD
HETATM    9  H   UNL     1     -44.348 -44.646   9.024  1.00  0.00     0.188 HD
ENDROOT
BRANCH   6  10
HETATM   10  C   UNL     1     -42.478 -46.327  10.378  1.00  0.00     0.218 C 
HETATM   11  C   UNL     1     -42.384 -46.738  11.867  1.00  0.00     0.309 C 
HETATM   12  N   UNL     1     -42.976 -45.753  12.800  1.00  0.00     0.088 N 
HETATM   13  C   UNL     1     -42.355 -44.445  12.527  1.00  0.00     0.295 C 
HETATM   14  H   UNL     1     -42.742 -46.033  13.756  1.00  0.00     0.316 HD
HETATM   15  C   UNL     1     -42.615 -44.020  11.079  1.00  0.00     0.198 C 
HETATM   16  O   UNL     1     -42.086 -44.961  10.139  1.00  0.00    -0.375 OA
ENDBRANCH   6  10
TORSDOF 1
ENDMDL
MODEL 2
REMARK VINA RESULT:      -5.4      1.810      2.216
REMARK  1 active torsions:
REMARK  status: ('A' for Active; 'I' for Inactive)
REMARK    1  A    between atoms: C_6  and  C_9 
ROOT
HETATM    1  C   UNL     1     -46.930 -48.039   8.901  1.00  0.00     0.090 C 
HETATM    2  C   UNL     1     -45.689 -47.287   9.185  1.00  0.00     0.093 A 
HETATM    3  N   UNL     1     -45.526 -45.999   8.870  1.00  0.00    -0.288 N 
ATOM      4  HN  UNL     1     -46.175 -45.361   8.409  1.00  0.00     0.188 HD
HETATM    5  N   UNL     1     -44.281 -45.767   9.320  1.00  0.00    -0.285 N 
HETATM    6  C   UNL     1     -43.733 -46.889   9.874  1.00  0.00     0.128 A 
HETATM    7  N   UNL     1     -44.619 -47.866   9.814  1.00  0.00    -0.332 N 
ATOM      8  HN  UNL     1     -44.529 -48.822  10.156  1.00  0.00     0.168 HD
HETATM    9  H   UNL     1     -43.874 -44.843   9.235  1.00  0.00     0.188 HD
ENDROOT
BRANCH   6  10
HETATM   10  C   UNL     1     -42.378 -46.920  10.501  1.00  0.00     0.218 C 
HETATM   11  C   UNL     1     -41.671 -48.291  10.390  1.00  0.00     0.309 C 
HETATM   12  N   UNL     1     -42.126 -49.283  11.390  1.00  0.00     0.088 N 
HETATM   13  C   UNL     1     -41.985 -48.674  12.724  1.00  0.00     0.295 C 
HETATM   14  H   UNL     1     -41.511 -50.100  11.338  1.00  0.00     0.316 HD
HETATM   15  C   UNL     1     -42.831 -47.400  12.823  1.00  0.00     0.198 C 
HETATM   16  O   UNL     1     -42.447 -46.423  11.852  1.00  0.00    -0.375 OA
ENDBRANCH   6  10
TORSDOF 1
ENDMDL
MODEL 3
REMARK VINA RESULT:      -5.3      1.822      2.308
REMARK  1 active torsions:
REMARK  status: ('A' for Active; 'I' for Inactive)
REMARK    1  A    between atoms: C_6  and  C_9 
ROOT
HETATM    1  C   UNL     1     -46.145 -48.125   8.714  1.00  0.00     0.090 C 
HETATM    2  C   UNL     1     -44.840 -47.461   8.917  1.00  0.00     0.093 A 
HETATM    3  N   UNL     1     -43.929 -47.326   7.948  1.00  0.00    -0.288 N 
ATOM      4  HN  UNL     1     -43.969 -47.638   6.979  1.00  0.00     0.188 HD
HETATM    5  N   UNL     1     -42.948 -46.671   8.591  1.00  0.00    -0.285 N 
HETATM    6  C   UNL     1     -43.275 -46.437   9.897  1.00  0.00     0.128 A 
HETATM    7  N   UNL     1     -44.484 -46.916  10.122  1.00  0.00    -0.332 N 
ATOM      8  HN  UNL     1     -45.023 -46.888  10.987  1.00  0.00     0.168 HD
HETATM    9  H   UNL     1     -42.105 -46.404   8.095  1.00  0.00     0.188 HD
ENDROOT
BRANCH   6  10
HETATM   10  C   UNL     1     -42.398 -45.684  10.843  1.00  0.00     0.218 C 
HETATM   11  C   UNL     1     -40.936 -45.543  10.358  1.00  0.00     0.309 C 
HETATM   12  N   UNL     1     -40.107 -46.748  10.592  1.00  0.00     0.088 N 
HETATM   13  C   UNL     1     -40.206 -47.090  12.022  1.00  0.00     0.295 C 
HETATM   14  H   UNL     1     -39.134 -46.518  10.377  1.00  0.00     0.316 HD
HETATM   15  C   UNL     1     -41.662 -47.369  12.407  1.00  0.00     0.198 C 
HETATM   16  O   UNL     1     -42.507 -46.241  12.168  1.00  0.00    -0.375 OA
ENDBRANCH   6  10
TORSDOF 1
ENDMDL
MODEL 4
REMARK VINA RESULT:      -5.2      3.483      4.524
REMARK  1 active torsions:
REMARK  status: ('A' for Active; 'I' for Inactive)
REMARK    1  A    between atoms: C_6  and  C_9 
ROOT
HETATM    1  C   UNL     1     -45.079 -47.069   9.328  1.00  0.00     0.090 C 
HETATM    2  C   UNL     1     -43.770 -47.644   9.703  1.00  0.00     0.093 A 
HETATM    3  N   UNL     1     -42.768 -47.810   8.834  1.00  0.00    -0.288 N 
ATOM      4  HN  UNL     1     -42.735 -47.591   7.838  1.00  0.00     0.188 HD
HETATM    5  N   UNL     1     -41.815 -48.340   9.619  1.00  0.00    -0.285 N 
HETATM    6  C   UNL     1     -42.252 -48.486  10.906  1.00  0.00     0.128 A 
HETATM    7  N   UNL     1     -43.489 -48.033  10.985  1.00  0.00    -0.332 N 
ATOM      8  HN  UNL     1     -44.091 -47.984  11.807  1.00  0.00     0.168 HD
HETATM    9  H   UNL     1     -40.905 -48.564   9.233  1.00  0.00     0.188 HD
ENDROOT
BRANCH   6  10
HETATM   10  C   UNL     1     -41.394 -49.005  12.013  1.00  0.00     0.218 C 
HETATM   11  C   UNL     1     -40.279 -49.966  11.537  1.00  0.00     0.309 C 
HETATM   12  N   UNL     1     -40.746 -51.349  11.288  1.00  0.00     0.088 N 
HETATM   13  C   UNL     1     -41.427 -51.821  12.507  1.00  0.00     0.295 C 
HETATM   14  H   UNL     1     -39.928 -51.941  11.121  1.00  0.00     0.316 HD
HETATM   15  C   UNL     1     -42.617 -50.915  12.840  1.00  0.00     0.198 C 
HETATM   16  O   UNL     1     -42.217 -49.559  13.058  1.00  0.00    -0.375 OA
ENDBRANCH   6  10
TORSDOF 1
ENDMDL
MODEL 5
REMARK VINA RESULT:      -5.2      7.576      8.828
REMARK  1 active torsions:
REMARK  status: ('A' for Active; 'I' for Inactive)
REMARK    1  A    between atoms: C_6  and  C_9 
ROOT
HETATM    1  C   UNL     1     -39.810 -54.231  13.662  1.00  0.00     0.090 C 
HETATM    2  C   UNL     1     -41.002 -53.679  12.985  1.00  0.00     0.093 A 
HETATM    3  N   UNL     1     -40.965 -53.138  11.763  1.00  0.00    -0.288 N 
ATOM      4  HN  UNL     1     -40.170 -53.016  11.136  1.00  0.00     0.188 HD
HETATM    5  N   UNL     1     -42.252 -52.799  11.580  1.00  0.00    -0.285 N 
HETATM    6  C   UNL     1     -43.015 -53.126  12.665  1.00  0.00     0.128 A 
HETATM    7  N   UNL     1     -42.242 -53.703  13.566  1.00  0.00    -0.332 N 
ATOM      8  HN  UNL     1     -42.506 -54.078  14.476  1.00  0.00     0.168 HD
HETATM    9  H   UNL     1     -42.546 -52.370  10.709  1.00  0.00     0.188 HD
ENDROOT
BRANCH   6  10
HETATM   10  C   UNL     1     -44.492 -52.911  12.728  1.00  0.00     0.218 C 
HETATM   11  C   UNL     1     -44.959 -52.165  14.001  1.00  0.00     0.309 C 
HETATM   12  N   UNL     1     -45.062 -53.029  15.198  1.00  0.00     0.088 N 
HETATM   13  C   UNL     1     -45.925 -54.173  14.855  1.00  0.00     0.295 C 
HETATM   14  H   UNL     1     -45.510 -52.494  15.946  1.00  0.00     0.316 HD
HETATM   15  C   UNL     1     -45.330 -54.963  13.686  1.00  0.00     0.198 C 
HETATM   16  O   UNL     1     -45.182 -54.158  12.513  1.00  0.00    -0.375 OA
ENDBRANCH   6  10
TORSDOF 1
ENDMDL
MODEL 6
REMARK VINA RESULT:      -5.0      3.537      5.269
REMARK  1 active torsions:
REMARK  status: ('A' for Active; 'I' for Inactive)
REMARK    1  A    between atoms: C_6  and  C_9 
ROOT
HETATM    1  C   UNL     1     -37.887 -49.553  12.793  1.00  0.00     0.090 C 
HETATM    2  C   UNL     1     -39.082 -49.453  11.927  1.00  0.00     0.093 A 
HETATM    3  N   UNL     1     -39.196 -50.098  10.762  1.00  0.00    -0.288 N 
ATOM      4  HN  UNL     1     -38.531 -50.717  10.300  1.00  0.00     0.188 HD
HETATM    5  N   UNL     1     -40.420 -49.714  10.362  1.00  0.00    -0.285 N 
HETATM    6  C   UNL     1     -40.998 -48.866  11.263  1.00  0.00     0.128 A 
HETATM    7  N   UNL     1     -40.170 -48.700  12.277  1.00  0.00    -0.332 N 
ATOM      8  HN  UNL     1     -40.309 -48.143  13.120  1.00  0.00     0.168 HD
HETATM    9  H   UNL     1     -40.803 -50.066   9.491  1.00  0.00     0.188 HD
ENDROOT
BRANCH   6  10
HETATM   10  C   UNL     1     -42.378 -48.316  11.108  1.00  0.00     0.218 C 
HETATM   11  C   UNL     1     -42.683 -47.793   9.684  1.00  0.00     0.309 C 
HETATM   12  N   UNL     1     -42.143 -46.441   9.413  1.00  0.00     0.088 N 
HETATM   13  C   UNL     1     -42.634 -45.540  10.471  1.00  0.00     0.295 C 
HETATM   14  H   UNL     1     -42.511 -46.121   8.514  1.00  0.00     0.316 HD
HETATM   15  C   UNL     1     -42.169 -46.027  11.847  1.00  0.00     0.198 C 
HETATM   16  O   UNL     1     -42.643 -47.345  12.140  1.00  0.00    -0.375 OA
ENDBRANCH   6  10
TORSDOF 1
ENDMDL
MODEL 7
REMARK VINA RESULT:      -4.9      6.779      7.772
REMARK  1 active torsions:
REMARK  status: ('A' for Active; 'I' for Inactive)
REMARK    1  A    between atoms: C_6  and  C_9 
ROOT
HETATM    1  C   UNL     1     -39.454 -51.338  12.729  1.00  0.00     0.090 C 
HETATM    2  C   UNL     1     -40.787 -51.937  12.503  1.00  0.00     0.093 A 
HETATM    3  N   UNL     1     -41.224 -52.317  11.299  1.00  0.00    -0.288 N 
ATOM      4  HN  UNL     1     -40.755 -52.260  10.395  1.00  0.00     0.188 HD
HETATM    5  N   UNL     1     -42.445 -52.794  11.594  1.00  0.00    -0.285 N 
HETATM    6  C   UNL     1     -42.714 -52.689  12.929  1.00  0.00     0.128 A 
HETATM    7  N   UNL     1     -41.665 -52.161  13.531  1.00  0.00    -0.332 N 
ATOM      8  HN  UNL     1     -41.538 -51.967  14.524  1.00  0.00     0.168 HD
HETATM    9  H   UNL     1     -43.030 -53.182  10.862  1.00  0.00     0.188 HD
ENDROOT
BRANCH   6  10
HETATM   10  C   UNL     1     -43.977 -53.183  13.556  1.00  0.00     0.218 C 
HETATM   11  C   UNL     1     -45.123 -53.419  12.544  1.00  0.00     0.309 C 
HETATM   12  N   UNL     1     -45.836 -52.184  12.147  1.00  0.00     0.088 N 
HETATM   13  C   UNL     1     -46.288 -51.510  13.377  1.00  0.00     0.295 C 
HETATM   14  H   UNL     1     -46.658 -52.448  11.598  1.00  0.00     0.316 HD
HETATM   15  C   UNL     1     -45.092 -51.163  14.268  1.00  0.00     0.198 C 
HETATM   16  O   UNL     1     -44.353 -52.326  14.653  1.00  0.00    -0.375 OA
ENDBRANCH   6  10
TORSDOF 1
ENDMDL
MODEL 8
REMARK VINA RESULT:      -4.7      6.848      7.646
REMARK  1 active torsions:
REMARK  status: ('A' for Active; 'I' for Inactive)
REMARK    1  A    between atoms: C_6  and  C_9 
ROOT
HETATM    1  C   UNL     1     -46.622 -51.790  14.197  1.00  0.00     0.090 C 
HETATM    2  C   UNL     1     -45.347 -52.038  13.492  1.00  0.00     0.093 A 
HETATM    3  N   UNL     1     -45.278 -52.590  12.276  1.00  0.00    -0.288 N 
ATOM      4  HN  UNL     1     -46.033 -52.916  11.673  1.00  0.00     0.188 HD
HETATM    5  N   UNL     1     -43.952 -52.601  12.060  1.00  0.00    -0.285 N 
HETATM    6  C   UNL     1     -43.268 -52.077  13.121  1.00  0.00     0.128 A 
HETATM    7  N   UNL     1     -44.138 -51.696  14.037  1.00  0.00    -0.332 N 
ATOM      8  HN  UNL     1     -43.954 -51.253  14.937  1.00  0.00     0.168 HD
HETATM    9  H   UNL     1     -43.582 -52.957  11.186  1.00  0.00     0.188 HD
ENDROOT
BRANCH   6  10
HETATM   10  C   UNL     1     -41.783 -51.916  13.145  1.00  0.00     0.218 C 
HETATM   11  C   UNL     1     -41.057 -52.671  12.006  1.00  0.00     0.309 C 
HETATM   12  N   UNL     1     -40.876 -54.118  12.266  1.00  0.00     0.088 N 
HETATM   13  C   UNL     1     -40.202 -54.260  13.569  1.00  0.00     0.295 C 
HETATM   14  H   UNL     1     -40.268 -54.503  11.540  1.00  0.00     0.316 HD
HETATM   15  C   UNL     1     -41.045 -53.627  14.680  1.00  0.00     0.198 C 
HETATM   16  O   UNL     1     -41.272 -52.232  14.455  1.00  0.00    -0.375 OA
ENDBRANCH   6  10
TORSDOF 1
ENDMDL
MODEL 9
REMARK VINA RESULT:      -4.6      3.528      4.833
REMARK  1 active torsions:
REMARK  status: ('A' for Active; 'I' for Inactive)
REMARK    1  A    between atoms: C_6  and  C_9 
ROOT
HETATM    1  C   UNL     1     -38.081 -50.180  11.770  1.00  0.00     0.090 C 
HETATM    2  C   UNL     1     -39.301 -49.507  11.275  1.00  0.00     0.093 A 
HETATM    3  N   UNL     1     -40.264 -50.143  10.600  1.00  0.00    -0.288 N 
ATOM      4  HN  UNL     1     -40.319 -51.123  10.324  1.00  0.00     0.188 HD
HETATM    5  N   UNL     1     -41.140 -49.148  10.381  1.00  0.00    -0.285 N 
HETATM    6  C   UNL     1     -40.697 -47.967  10.906  1.00  0.00     0.128 A 
HETATM    7  N   UNL     1     -39.536 -48.176  11.496  1.00  0.00    -0.332 N 
ATOM      8  HN  UNL     1     -38.952 -47.507  11.997  1.00  0.00     0.168 HD
HETATM    9  H   UNL     1     -42.008 -49.334   9.890  1.00  0.00     0.188 HD
ENDROOT
BRANCH   6  10
HETATM   10  C   UNL     1     -41.485 -46.698  10.858  1.00  0.00     0.218 C 
HETATM   11  C   UNL     1     -40.815 -45.522  11.607  1.00  0.00     0.309 C 
HETATM   12  N   UNL     1     -41.012 -45.555  13.074  1.00  0.00     0.088 N 
HETATM   13  C   UNL     1     -42.460 -45.649  13.332  1.00  0.00     0.295 C 
HETATM   14  H   UNL     1     -40.667 -44.676  13.466  1.00  0.00     0.316 HD
HETATM   15  C   UNL     1     -43.037 -46.916  12.694  1.00  0.00     0.198 C 
HETATM   16  O   UNL     1     -42.842 -46.942  11.277  1.00  0.00    -0.375 OA
ENDBRANCH   6  10
TORSDOF 1
ENDMDL
