MODEL 1
REMARK VINA RESULT:      -5.4      0.000      0.000
REMARK  3 active torsions:
REMARK  status: ('A' for Active; 'I' for Inactive)
REMARK       I    between atoms: N_2  and  C_3 
REMARK    1  A    between atoms: C_3  and  C_5 
REMARK    2  A    between atoms: C_5  and  C_6 
REMARK    3  A    between atoms: C_10  and  C_11 
ROOT
HETATM    1  C   UNL     1     -41.012 -50.558  11.714  1.00  0.00     0.113 A 
HETATM    2  N   UNL     1     -40.082 -51.514  11.759  1.00  0.00    -0.246 N 
ATOM      3  HN  UNL     1     -39.081 -51.433  11.578  1.00  0.00     0.196 HD
HETATM    4  O   UNL     1     -40.807 -52.648  12.114  1.00  0.00    -0.218 OA
HETATM    5  C   UNL     1     -42.129 -52.274  12.267  1.00  0.00     0.171 A 
HETATM    6  N   UNL     1     -42.281 -50.983  12.009  1.00  0.00    -0.323 N 
ATOM      7  HN  UNL     1     -43.141 -50.435  12.025  1.00  0.00     0.169 HD
ENDROOT
BRANCH   1   8
HETATM    8  C   UNL     1     -40.708 -49.145  11.409  1.00  0.00     0.181 C 
BRANCH   8   9
HETATM    9  C   UNL     1     -41.938 -48.404  10.934  1.00  0.00     0.224 C 
HETATM   10  N   UNL     1     -42.014 -48.212   9.567  1.00  0.00    -0.365 N 
HETATM   11  C   UNL     1     -43.115 -47.485   8.991  1.00  0.00     0.149 C 
HETATM   12  H   UNL     1     -41.170 -48.341   9.015  1.00  0.00     0.161 HD
HETATM   13  O   UNL     1     -42.836 -48.066  11.703  1.00  0.00    -0.273 OA
ENDBRANCH   8   9
ENDBRANCH   1   8
BRANCH   5  14
HETATM   14  C   UNL     1     -43.129 -53.208  12.654  1.00  0.00     0.061 C 
HETATM   15  C   UNL     1     -43.140 -53.887  13.809  1.00  0.00    -0.076 C 
HETATM   16  C   UNL     1     -44.095 -54.907  14.399  1.00  0.00     0.034 C 
HETATM   17  C   UNL     1     -42.219 -53.936  15.015  1.00  0.00     0.034 C 
HETATM   18  C   UNL     1     -42.881 -55.308  15.263  1.00  0.00     0.009 C 
ENDBRANCH   5  14
TORSDOF 3
ENDMDL
MODEL 2
REMARK VINA RESULT:      -5.4      2.844      3.496
REMARK  3 active torsions:
REMARK  status: ('A' for Active; 'I' for Inactive)
REMARK       I    between atoms: N_2  and  C_3 
REMARK    1  A    between atoms: C_3  and  C_5 
REMARK    2  A    between atoms: C_5  and  C_6 
REMARK    3  A    between atoms: C_10  and  C_11 
ROOT
HETATM    1  C   UNL     1     -42.661 -48.413  11.009  1.00  0.00     0.113 A 
HETATM    2  N   UNL     1     -41.702 -49.339  10.945  1.00  0.00    -0.246 N 
ATOM      3  HN  UNL     1     -40.958 -49.433  10.254  1.00  0.00     0.196 HD
HETATM    4  O   UNL     1     -41.962 -50.144  12.050  1.00  0.00    -0.218 OA
HETATM    5  C   UNL     1     -43.063 -49.623  12.704  1.00  0.00     0.171 A 
HETATM    6  N   UNL     1     -43.523 -48.556  12.065  1.00  0.00    -0.323 N 
ATOM      7  HN  UNL     1     -44.328 -47.978  12.304  1.00  0.00     0.169 HD
ENDROOT
BRANCH   1   8
HETATM    8  C   UNL     1     -42.776 -47.297  10.047  1.00  0.00     0.181 C 
BRANCH   8   9
HETATM    9  C   UNL     1     -44.014 -47.431   9.190  1.00  0.00     0.224 C 
HETATM   10  N   UNL     1     -45.168 -46.907   9.741  1.00  0.00    -0.365 N 
HETATM   11  C   UNL     1     -46.424 -47.008   9.043  1.00  0.00     0.149 C 
HETATM   12  H   UNL     1     -45.177 -46.706  10.737  1.00  0.00     0.161 HD
HETATM   13  O   UNL     1     -43.976 -47.905   8.056  1.00  0.00    -0.273 OA
ENDBRANCH   8   9
ENDBRANCH   1   8
BRANCH   5  14
HETATM   14  C   UNL     1     -43.572 -50.209  13.896  1.00  0.00     0.061 C 
HETATM   15  C   UNL     1     -44.711 -50.909  13.981  1.00  0.00    -0.076 C 
HETATM   16  C   UNL     1     -45.414 -51.602  15.132  1.00  0.00     0.034 C 
HETATM   17  C   UNL     1     -45.781 -51.312  12.983  1.00  0.00     0.034 C 
HETATM   18  C   UNL     1     -46.665 -51.473  14.238  1.00  0.00     0.009 C 
ENDBRANCH   5  14
TORSDOF 3
ENDMDL
MODEL 3
REMARK VINA RESULT:      -5.3      1.833      2.245
REMARK  3 active torsions:
REMARK  status: ('A' for Active; 'I' for Inactive)
REMARK       I    between atoms: N_2  and  C_3 
REMARK    1  A    between atoms: C_3  and  C_5 
REMARK    2  A    between atoms: C_5  and  C_6 
REMARK    3  A    between atoms: C_10  and  C_11 
ROOT
HETATM    1  C   UNL     1     -41.583 -50.189  11.632  1.00  0.00     0.113 A 
HETATM    2  N   UNL     1     -40.967 -51.331  11.320  1.00  0.00    -0.246 N 
ATOM      3  HN  UNL     1     -40.187 -51.475  10.679  1.00  0.00     0.196 HD
HETATM    4  O   UNL     1     -41.647 -52.278  12.081  1.00  0.00    -0.218 OA
HETATM    5  C   UNL     1     -42.620 -51.617  12.807  1.00  0.00     0.171 A 
HETATM    6  N   UNL     1     -42.608 -50.321  12.532  1.00  0.00    -0.323 N 
ATOM      7  HN  UNL     1     -43.218 -49.593  12.903  1.00  0.00     0.169 HD
ENDROOT
BRANCH   1   8
HETATM    8  C   UNL     1     -41.180 -48.876  11.087  1.00  0.00     0.181 C 
BRANCH   8   9
HETATM    9  C   UNL     1     -42.368 -48.112  10.549  1.00  0.00     0.224 C 
HETATM   10  N   UNL     1     -42.521 -48.158   9.176  1.00  0.00    -0.365 N 
HETATM   11  C   UNL     1     -43.590 -47.437   8.534  1.00  0.00     0.149 C 
HETATM   12  H   UNL     1     -41.732 -48.466   8.614  1.00  0.00     0.161 HD
HETATM   13  O   UNL     1     -43.177 -47.554  11.288  1.00  0.00    -0.273 OA
ENDBRANCH   8   9
ENDBRANCH   1   8
BRANCH   5  14
HETATM   14  C   UNL     1     -43.477 -52.307  13.709  1.00  0.00     0.061 C 
HETATM   15  C   UNL     1     -44.807 -52.152  13.773  1.00  0.00    -0.076 C 
HETATM   16  C   UNL     1     -45.878 -52.780  14.644  1.00  0.00     0.034 C 
HETATM   17  C   UNL     1     -45.809 -51.299  13.018  1.00  0.00     0.034 C 
HETATM   18  C   UNL     1     -46.698 -51.531  14.259  1.00  0.00     0.009 C 
ENDBRANCH   5  14
TORSDOF 3
ENDMDL
MODEL 4
REMARK VINA RESULT:      -5.3      2.671      3.605
REMARK  3 active torsions:
REMARK  status: ('A' for Active; 'I' for Inactive)
REMARK       I    between atoms: N_2  and  C_3 
REMARK    1  A    between atoms: C_3  and  C_5 
REMARK    2  A    between atoms: C_5  and  C_6 
REMARK    3  A    between atoms: C_10  and  C_11 
ROOT
HETATM    1  C   UNL     1     -39.897 -51.200  12.461  1.00  0.00     0.113 A 
HETATM    2  N   UNL     1     -40.617 -51.374  11.350  1.00  0.00    -0.246 N 
ATOM      3  HN  UNL     1     -40.518 -50.902  10.452  1.00  0.00     0.196 HD
HETATM    4  O   UNL     1     -41.533 -52.356  11.715  1.00  0.00    -0.218 OA
HETATM    5  C   UNL     1     -41.280 -52.706  13.027  1.00  0.00     0.171 A 
HETATM    6  N   UNL     1     -40.277 -51.990  13.516  1.00  0.00    -0.323 N 
ATOM      7  HN  UNL     1     -39.881 -52.019  14.455  1.00  0.00     0.169 HD
ENDROOT
BRANCH   1   8
HETATM    8  C   UNL     1     -38.758 -50.265  12.551  1.00  0.00     0.181 C 
BRANCH   8   9
HETATM    9  C   UNL     1     -37.606 -50.711  11.678  1.00  0.00     0.224 C 
HETATM   10  N   UNL     1     -37.457 -50.004  10.500  1.00  0.00    -0.365 N 
HETATM   11  C   UNL     1     -36.423 -50.356   9.561  1.00  0.00     0.149 C 
HETATM   12  H   UNL     1     -38.232 -49.431  10.180  1.00  0.00     0.161 HD
HETATM   13  O   UNL     1     -36.821 -51.588  12.030  1.00  0.00    -0.273 OA
ENDBRANCH   8   9
ENDBRANCH   1   8
BRANCH   5  14
HETATM   14  C   UNL     1     -42.035 -53.711  13.693  1.00  0.00     0.061 C 
HETATM   15  C   UNL     1     -43.331 -53.971  13.469  1.00  0.00    -0.076 C 
HETATM   16  C   UNL     1     -44.299 -54.978  14.060  1.00  0.00     0.034 C 
HETATM   17  C   UNL     1     -44.382 -53.385  12.543  1.00  0.00     0.034 C 
HETATM   18  C   UNL     1     -45.378 -54.000  13.549  1.00  0.00     0.009 C 
ENDBRANCH   5  14
TORSDOF 3
ENDMDL
MODEL 5
REMARK VINA RESULT:      -5.3      4.167      6.054
REMARK  3 active torsions:
REMARK  status: ('A' for Active; 'I' for Inactive)
REMARK       I    between atoms: N_2  and  C_3 
REMARK    1  A    between atoms: C_3  and  C_5 
REMARK    2  A    between atoms: C_5  and  C_6 
REMARK    3  A    between atoms: C_10  and  C_11 
ROOT
HETATM    1  C   UNL     1     -41.243 -54.240  13.743  1.00  0.00     0.113 A 
HETATM    2  N   UNL     1     -41.953 -54.688  14.781  1.00  0.00    -0.246 N 
ATOM      3  HN  UNL     1     -41.614 -55.121  15.639  1.00  0.00     0.196 HD
HETATM    4  O   UNL     1     -43.266 -54.419  14.408  1.00  0.00    -0.218 OA
HETATM    5  C   UNL     1     -43.239 -53.812  13.166  1.00  0.00     0.171 A 
HETATM    6  N   UNL     1     -41.992 -53.705  12.727  1.00  0.00    -0.323 N 
ATOM      7  HN  UNL     1     -41.667 -53.316  11.843  1.00  0.00     0.169 HD
ENDROOT
BRANCH   1   8
HETATM    8  C   UNL     1     -39.767 -54.277  13.694  1.00  0.00     0.181 C 
BRANCH   8   9
HETATM    9  C   UNL     1     -39.171 -54.395  15.080  1.00  0.00     0.224 C 
HETATM   10  N   UNL     1     -38.354 -55.492  15.273  1.00  0.00    -0.365 N 
HETATM   11  C   UNL     1     -37.757 -55.742  16.561  1.00  0.00     0.149 C 
HETATM   12  H   UNL     1     -38.399 -56.252  14.600  1.00  0.00     0.161 HD
HETATM   13  O   UNL     1     -39.345 -53.536  15.942  1.00  0.00    -0.273 OA
ENDBRANCH   8   9
ENDBRANCH   1   8
BRANCH   5  14
HETATM   14  C   UNL     1     -44.429 -53.388  12.514  1.00  0.00     0.061 C 
HETATM   15  C   UNL     1     -45.252 -52.431  12.966  1.00  0.00    -0.076 C 
HETATM   16  C   UNL     1     -46.544 -51.843  12.431  1.00  0.00     0.034 C 
HETATM   17  C   UNL     1     -45.255 -51.530  14.187  1.00  0.00     0.034 C 
HETATM   18  C   UNL     1     -46.767 -51.411  13.896  1.00  0.00     0.009 C 
ENDBRANCH   5  14
TORSDOF 3
ENDMDL
MODEL 6
REMARK VINA RESULT:      -5.2      4.315      5.583
REMARK  3 active torsions:
REMARK  status: ('A' for Active; 'I' for Inactive)
REMARK       I    between atoms: N_2  and  C_3 
REMARK    1  A    between atoms: C_3  and  C_5 
REMARK    2  A    between atoms: C_5  and  C_6 
REMARK    3  A    between atoms: C_10  and  C_11 
ROOT
HETATM    1  C   UNL     1     -42.717 -46.393  10.041  1.00  0.00     0.113 A 
HETATM    2  N   UNL     1     -43.207 -46.372  11.282  1.00  0.00    -0.246 N 
ATOM      3  HN  UNL     1     -44.150 -46.130  11.587  1.00  0.00     0.196 HD
HETATM    4  O   UNL     1     -42.120 -46.760  12.061  1.00  0.00    -0.218 OA
HETATM    5  C   UNL     1     -41.055 -46.998  11.213  1.00  0.00     0.171 A 
HETATM    6  N   UNL     1     -41.399 -46.762   9.955  1.00  0.00    -0.323 N 
ATOM      7  HN  UNL     1     -40.820 -46.836   9.119  1.00  0.00     0.169 HD
ENDROOT
BRANCH   1   8
HETATM    8  C   UNL     1     -43.526 -46.084   8.845  1.00  0.00     0.181 C 
BRANCH   8   9
HETATM    9  C   UNL     1     -44.199 -47.323   8.297  1.00  0.00     0.224 C 
HETATM   10  N   UNL     1     -45.535 -47.458   8.627  1.00  0.00    -0.365 N 
HETATM   11  C   UNL     1     -46.280 -48.615   8.202  1.00  0.00     0.149 C 
HETATM   12  H   UNL     1     -45.904 -46.890   9.384  1.00  0.00     0.161 HD
HETATM   13  O   UNL     1     -43.616 -48.110   7.554  1.00  0.00    -0.273 OA
ENDBRANCH   8   9
ENDBRANCH   1   8
BRANCH   5  14
HETATM   14  C   UNL     1     -39.794 -47.436  11.701  1.00  0.00     0.061 C 
HETATM   15  C   UNL     1     -39.407 -48.716  11.787  1.00  0.00    -0.076 C 
HETATM   16  C   UNL     1     -38.131 -49.380  12.268  1.00  0.00     0.034 C 
HETATM   17  C   UNL     1     -40.061 -50.043  11.445  1.00  0.00     0.034 C 
HETATM   18  C   UNL     1     -39.029 -50.623  12.437  1.00  0.00     0.009 C 
ENDBRANCH   5  14
TORSDOF 3
ENDMDL
MODEL 7
REMARK VINA RESULT:      -5.1      3.128      3.789
REMARK  3 active torsions:
REMARK  status: ('A' for Active; 'I' for Inactive)
REMARK       I    between atoms: N_2  and  C_3 
REMARK    1  A    between atoms: C_3  and  C_5 
REMARK    2  A    between atoms: C_5  and  C_6 
REMARK    3  A    between atoms: C_10  and  C_11 
ROOT
HETATM    1  C   UNL     1     -43.215 -52.602  12.354  1.00  0.00     0.113 A 
HETATM    2  N   UNL     1     -43.791 -53.772  12.072  1.00  0.00    -0.246 N 
ATOM      3  HN  UNL     1     -43.387 -54.577  11.594  1.00  0.00     0.196 HD
HETATM    4  O   UNL     1     -45.075 -53.629  12.589  1.00  0.00    -0.218 OA
HETATM    5  C   UNL     1     -45.165 -52.373  13.158  1.00  0.00     0.171 A 
HETATM    6  N   UNL     1     -44.026 -51.712  13.010  1.00  0.00    -0.323 N 
ATOM      7  HN  UNL     1     -43.804 -50.764  13.314  1.00  0.00     0.169 HD
ENDROOT
BRANCH   1   8
HETATM    8  C   UNL     1     -41.809 -52.290  12.027  1.00  0.00     0.181 C 
BRANCH   8   9
HETATM    9  C   UNL     1     -41.494 -50.832  12.275  1.00  0.00     0.224 C 
HETATM   10  N   UNL     1     -41.485 -50.034  11.146  1.00  0.00    -0.365 N 
HETATM   11  C   UNL     1     -41.158 -48.635  11.241  1.00  0.00     0.149 C 
HETATM   12  H   UNL     1     -41.437 -50.486  10.237  1.00  0.00     0.161 HD
HETATM   13  O   UNL     1     -41.332 -50.381  13.407  1.00  0.00    -0.273 OA
ENDBRANCH   8   9
ENDBRANCH   1   8
BRANCH   5  14
HETATM   14  C   UNL     1     -46.353 -51.926  13.798  1.00  0.00     0.061 C 
HETATM   15  C   UNL     1     -46.489 -51.735  15.118  1.00  0.00    -0.076 C 
HETATM   16  C   UNL     1     -47.647 -51.272  15.981  1.00  0.00     0.034 C 
HETATM   17  C   UNL     1     -45.563 -51.895  16.310  1.00  0.00     0.034 C 
HETATM   18  C   UNL     1     -46.876 -51.980  17.115  1.00  0.00     0.009 C 
ENDBRANCH   5  14
TORSDOF 3
ENDMDL
MODEL 8
REMARK VINA RESULT:      -5.1      3.451      4.993
REMARK  3 active torsions:
REMARK  status: ('A' for Active; 'I' for Inactive)
REMARK       I    between atoms: N_2  and  C_3 
REMARK    1  A    between atoms: C_3  and  C_5 
REMARK    2  A    between atoms: C_5  and  C_6 
REMARK    3  A    between atoms: C_10  and  C_11 
ROOT
HETATM    1  C   UNL     1     -43.242 -52.586  12.364  1.00  0.00     0.113 A 
HETATM    2  N   UNL     1     -43.834 -53.743  12.062  1.00  0.00    -0.246 N 
ATOM      3  HN  UNL     1     -43.442 -54.546  11.570  1.00  0.00     0.196 HD
HETATM    4  O   UNL     1     -45.116 -53.591  12.581  1.00  0.00    -0.218 OA
HETATM    5  C   UNL     1     -45.189 -52.343  13.172  1.00  0.00     0.171 A 
HETATM    6  N   UNL     1     -44.040 -51.696  13.035  1.00  0.00    -0.323 N 
ATOM      7  HN  UNL     1     -43.805 -50.756  13.355  1.00  0.00     0.169 HD
ENDROOT
BRANCH   1   8
HETATM    8  C   UNL     1     -41.832 -52.288  12.042  1.00  0.00     0.181 C 
BRANCH   8   9
HETATM    9  C   UNL     1     -40.888 -53.196  12.799  1.00  0.00     0.224 C 
HETATM   10  N   UNL     1     -39.991 -52.548  13.627  1.00  0.00    -0.365 N 
HETATM   11  C   UNL     1     -39.011 -53.296  14.372  1.00  0.00     0.149 C 
HETATM   12  H   UNL     1     -39.849 -51.550  13.496  1.00  0.00     0.161 HD
HETATM   13  O   UNL     1     -40.967 -54.421  12.735  1.00  0.00    -0.273 OA
ENDBRANCH   8   9
ENDBRANCH   1   8
BRANCH   5  14
HETATM   14  C   UNL     1     -46.370 -51.890  13.820  1.00  0.00     0.061 C 
HETATM   15  C   UNL     1     -46.502 -51.713  15.142  1.00  0.00    -0.076 C 
HETATM   16  C   UNL     1     -47.652 -51.247  16.013  1.00  0.00     0.034 C 
HETATM   17  C   UNL     1     -45.575 -51.898  16.329  1.00  0.00     0.034 C 
HETATM   18  C   UNL     1     -46.888 -51.976  17.137  1.00  0.00     0.009 C 
ENDBRANCH   5  14
TORSDOF 3
ENDMDL
MODEL 9
REMARK VINA RESULT:      -5.1      1.838      2.633
REMARK  3 active torsions:
REMARK  status: ('A' for Active; 'I' for Inactive)
REMARK       I    between atoms: N_2  and  C_3 
REMARK    1  A    between atoms: C_3  and  C_5 
REMARK    2  A    between atoms: C_5  and  C_6 
REMARK    3  A    between atoms: C_10  and  C_11 
ROOT
HETATM    1  C   UNL     1     -42.071 -48.849  11.430  1.00  0.00     0.113 A 
HETATM    2  N   UNL     1     -41.160 -48.873  10.455  1.00  0.00    -0.246 N 
ATOM      3  HN  UNL     1     -41.052 -48.226   9.674  1.00  0.00     0.196 HD
HETATM    4  O   UNL     1     -40.393 -49.993  10.762  1.00  0.00    -0.218 OA
HETATM    5  C   UNL     1     -40.904 -50.552  11.918  1.00  0.00     0.171 A 
HETATM    6  N   UNL     1     -41.956 -49.866  12.342  1.00  0.00    -0.323 N 
ATOM      7  HN  UNL     1     -42.542 -50.051  13.156  1.00  0.00     0.169 HD
ENDROOT
BRANCH   1   8
HETATM    8  C   UNL     1     -43.101 -47.798  11.551  1.00  0.00     0.181 C 
BRANCH   8   9
HETATM    9  C   UNL     1     -43.697 -47.450  10.205  1.00  0.00     0.224 C 
HETATM   10  N   UNL     1     -44.952 -47.978   9.967  1.00  0.00    -0.365 N 
HETATM   11  C   UNL     1     -45.612 -47.756   8.706  1.00  0.00     0.149 C 
HETATM   12  H   UNL     1     -45.277 -48.735  10.562  1.00  0.00     0.161 HD
HETATM   13  O   UNL     1     -43.135 -46.693   9.417  1.00  0.00    -0.273 OA
ENDBRANCH   8   9
ENDBRANCH   1   8
BRANCH   5  14
HETATM   14  C   UNL     1     -40.322 -51.706  12.512  1.00  0.00     0.061 C 
HETATM   15  C   UNL     1     -40.989 -52.821  12.838  1.00  0.00    -0.076 C 
HETATM   16  C   UNL     1     -40.563 -54.134  13.466  1.00  0.00     0.034 C 
HETATM   17  C   UNL     1     -42.439 -53.255  12.726  1.00  0.00     0.034 C 
HETATM   18  C   UNL     1     -42.056 -54.260  13.834  1.00  0.00     0.009 C 
ENDBRANCH   5  14
TORSDOF 3
ENDMDL
