MODEL 1
REMARK VINA RESULT:      -5.6      0.000      0.000
REMARK  2 active torsions:
REMARK  status: ('A' for Active; 'I' for Inactive)
REMARK    1  A    between atoms: N_1  and  C_2 
REMARK    2  A    between atoms: C_7  and  C_10 
ROOT
HETATM    1  C   UNL     1     -41.871 -52.950  12.149  1.00  0.00     0.154 A 
HETATM    2  N   UNL     1     -41.110 -53.578  13.046  1.00  0.00    -0.343 N 
ATOM      3  HN  UNL     1     -40.092 -53.546  13.005  1.00  0.00     0.167 HD
HETATM    4  C   UNL     1     -41.761 -54.253  14.007  1.00  0.00     0.092 A 
HETATM    5  C   UNL     1     -43.133 -54.307  14.109  1.00  0.00     0.042 A 
HETATM    6  C   UNL     1     -43.839 -53.608  13.153  1.00  0.00     0.018 A 
HETATM    7  N   UNL     1     -43.208 -52.914  12.175  1.00  0.00    -0.336 N 
ATOM      8  HN  UNL     1     -43.735 -52.382  11.481  1.00  0.00     0.168 HD
ENDROOT
BRANCH   6   9
HETATM    9  C   UNL     1     -45.356 -53.614  13.091  1.00  0.00     0.064 C 
HETATM   10  C   UNL     1     -46.000 -52.236  12.838  1.00  0.00     0.014 C 
HETATM   11  C   UNL     1     -46.416 -51.478  14.100  1.00  0.00     0.031 C 
HETATM   12  C   UNL     1     -47.065 -52.381  15.142  1.00  0.00     0.269 C 
HETATM   13  N   UNL     1     -46.176 -53.492  15.471  1.00  0.00     0.084 N 
HETATM   14  C   UNL     1     -45.977 -54.349  14.295  1.00  0.00     0.280 C 
HETATM   15  H   UNL     1     -46.594 -54.049  16.217  1.00  0.00     0.315 HD
ENDBRANCH   6   9
BRANCH   1  16
HETATM   16  N   UNL     1     -41.226 -52.259  11.143  1.00  0.00    -0.274 NA
HETATM   17  H   UNL     1     -41.886 -52.047  10.408  1.00  0.00     0.127 HD
HETATM   18  H   UNL     1     -40.377 -52.741  10.886  1.00  0.00     0.127 HD
ENDBRANCH   1  16
TORSDOF 2
ENDMDL
MODEL 2
REMARK VINA RESULT:      -5.3      3.600      5.279
REMARK  2 active torsions:
REMARK  status: ('A' for Active; 'I' for Inactive)
REMARK    1  A    between atoms: N_1  and  C_2 
REMARK    2  A    between atoms: C_7  and  C_10 
ROOT
HETATM    1  C   UNL     1     -41.529 -52.543  11.889  1.00  0.00     0.154 A 
HETATM    2  N   UNL     1     -42.610 -53.070  12.465  1.00  0.00    -0.343 N 
ATOM      3  HN  UNL     1     -42.765 -54.078  12.498  1.00  0.00     0.167 HD
HETATM    4  C   UNL     1     -43.481 -52.199  12.998  1.00  0.00     0.092 A 
HETATM    5  C   UNL     1     -43.302 -50.835  12.991  1.00  0.00     0.042 A 
HETATM    6  C   UNL     1     -42.143 -50.380  12.397  1.00  0.00     0.018 A 
HETATM    7  N   UNL     1     -41.244 -51.236  11.854  1.00  0.00    -0.336 N 
ATOM      8  HN  UNL     1     -40.379 -50.895  11.433  1.00  0.00     0.168 HD
ENDROOT
BRANCH   6   9
HETATM    9  C   UNL     1     -41.825 -48.902  12.254  1.00  0.00     0.064 C 
HETATM   10  C   UNL     1     -43.048 -47.966  12.326  1.00  0.00     0.014 C 
HETATM   11  C   UNL     1     -43.656 -47.595  10.971  1.00  0.00     0.031 C 
HETATM   12  C   UNL     1     -42.600 -47.298   9.914  1.00  0.00     0.269 C 
HETATM   13  N   UNL     1     -41.685 -48.430   9.783  1.00  0.00     0.084 N 
HETATM   14  C   UNL     1     -40.932 -48.622  11.030  1.00  0.00     0.280 C 
HETATM   15  H   UNL     1     -41.026 -48.244   9.026  1.00  0.00     0.315 HD
ENDBRANCH   6   9
BRANCH   1  16
HETATM   16  N   UNL     1     -40.623 -53.415  11.321  1.00  0.00    -0.274 NA
HETATM   17  H   UNL     1     -40.657 -54.299  11.811  1.00  0.00     0.127 HD
HETATM   18  H   UNL     1     -39.724 -52.965  11.231  1.00  0.00     0.127 HD
ENDBRANCH   1  16
TORSDOF 2
ENDMDL
MODEL 3
REMARK VINA RESULT:      -5.2      5.115      7.017
REMARK  2 active torsions:
REMARK  status: ('A' for Active; 'I' for Inactive)
REMARK    1  A    between atoms: N_1  and  C_2 
REMARK    2  A    between atoms: C_7  and  C_10 
ROOT
HETATM    1  C   UNL     1     -43.448 -47.843   8.050  1.00  0.00     0.154 A 
HETATM    2  N   UNL     1     -44.731 -47.484   8.092  1.00  0.00    -0.343 N 
ATOM      3  HN  UNL     1     -45.281 -47.347   7.244  1.00  0.00     0.167 HD
HETATM    4  C   UNL     1     -45.260 -47.314   9.315  1.00  0.00     0.092 A 
HETATM    5  C   UNL     1     -44.559 -47.505  10.484  1.00  0.00     0.042 A 
HETATM    6  C   UNL     1     -43.245 -47.901  10.346  1.00  0.00     0.018 A 
HETATM    7  N   UNL     1     -42.687 -48.084   9.124  1.00  0.00    -0.336 N 
ATOM      8  HN  UNL     1     -41.721 -48.395   9.027  1.00  0.00     0.168 HD
ENDROOT
BRANCH   6   9
HETATM    9  C   UNL     1     -42.322 -48.096  11.534  1.00  0.00     0.064 C 
HETATM   10  C   UNL     1     -40.827 -48.226  11.179  1.00  0.00     0.014 C 
HETATM   11  C   UNL     1     -40.326 -49.663  11.013  1.00  0.00     0.031 C 
HETATM   12  C   UNL     1     -40.885 -50.606  12.071  1.00  0.00     0.269 C 
HETATM   13  N   UNL     1     -42.345 -50.559  12.068  1.00  0.00     0.084 N 
HETATM   14  C   UNL     1     -42.812 -49.223  12.464  1.00  0.00     0.280 C 
HETATM   15  H   UNL     1     -42.706 -51.244  12.734  1.00  0.00     0.315 HD
ENDBRANCH   6   9
BRANCH   1  16
HETATM   16  N   UNL     1     -42.877 -48.012   6.805  1.00  0.00    -0.274 NA
HETATM   17  H   UNL     1     -43.084 -48.941   6.465  1.00  0.00     0.127 HD
HETATM   18  H   UNL     1     -41.909 -47.727   6.831  1.00  0.00     0.127 HD
ENDBRANCH   1  16
TORSDOF 2
ENDMDL
MODEL 4
REMARK VINA RESULT:      -5.1      6.804      8.109
REMARK  2 active torsions:
REMARK  status: ('A' for Active; 'I' for Inactive)
REMARK    1  A    between atoms: N_1  and  C_2 
REMARK    2  A    between atoms: C_7  and  C_10 
ROOT
HETATM    1  C   UNL     1     -43.552 -47.654   8.072  1.00  0.00     0.154 A 
HETATM    2  N   UNL     1     -44.883 -47.669   8.153  1.00  0.00    -0.343 N 
ATOM      3  HN  UNL     1     -45.472 -47.728   7.323  1.00  0.00     0.167 HD
HETATM    4  C   UNL     1     -45.403 -47.602   9.389  1.00  0.00     0.092 A 
HETATM    5  C   UNL     1     -44.644 -47.538  10.536  1.00  0.00     0.042 A 
HETATM    6  C   UNL     1     -43.276 -47.554  10.359  1.00  0.00     0.018 A 
HETATM    7  N   UNL     1     -42.724 -47.625   9.123  1.00  0.00    -0.336 N 
ATOM      8  HN  UNL     1     -41.712 -47.655   8.999  1.00  0.00     0.168 HD
ENDROOT
BRANCH   6   9
HETATM    9  C   UNL     1     -42.302 -47.431  11.516  1.00  0.00     0.064 C 
HETATM   10  C   UNL     1     -42.420 -46.124  12.327  1.00  0.00     0.014 C 
HETATM   11  C   UNL     1     -41.475 -45.004  11.885  1.00  0.00     0.031 C 
HETATM   12  C   UNL     1     -40.075 -45.510  11.559  1.00  0.00     0.269 C 
HETATM   13  N   UNL     1     -40.141 -46.565  10.551  1.00  0.00     0.084 N 
HETATM   14  C   UNL     1     -40.854 -47.733  11.084  1.00  0.00     0.280 C 
HETATM   15  H   UNL     1     -39.194 -46.846  10.295  1.00  0.00     0.315 HD
ENDBRANCH   6   9
BRANCH   1  16
HETATM   16  N   UNL     1     -42.992 -47.708   6.812  1.00  0.00    -0.274 NA
HETATM   17  H   UNL     1     -43.623 -47.282   6.147  1.00  0.00     0.127 HD
HETATM   18  H   UNL     1     -42.673 -48.646   6.619  1.00  0.00     0.127 HD
ENDBRANCH   1  16
TORSDOF 2
ENDMDL
MODEL 5
REMARK VINA RESULT:      -5.0      1.684      4.540
REMARK  2 active torsions:
REMARK  status: ('A' for Active; 'I' for Inactive)
REMARK    1  A    between atoms: N_1  and  C_2 
REMARK    2  A    between atoms: C_7  and  C_10 
ROOT
HETATM    1  C   UNL     1     -45.588 -53.140  12.544  1.00  0.00     0.154 A 
HETATM    2  N   UNL     1     -46.163 -53.833  13.528  1.00  0.00    -0.343 N 
ATOM      3  HN  UNL     1     -47.174 -53.838  13.664  1.00  0.00     0.167 HD
HETATM    4  C   UNL     1     -45.336 -54.523  14.329  1.00  0.00     0.092 A 
HETATM    5  C   UNL     1     -43.969 -54.557  14.171  1.00  0.00     0.042 A 
HETATM    6  C   UNL     1     -43.464 -53.833  13.112  1.00  0.00     0.018 A 
HETATM    7  N   UNL     1     -44.276 -53.130  12.285  1.00  0.00    -0.336 N 
ATOM      8  HN  UNL     1     -43.899 -52.611  11.491  1.00  0.00     0.168 HD
ENDROOT
BRANCH   6   9
HETATM    9  C   UNL     1     -41.975 -53.720  12.836  1.00  0.00     0.064 C 
HETATM   10  C   UNL     1     -41.065 -54.125  14.013  1.00  0.00     0.014 C 
HETATM   11  C   UNL     1     -40.619 -52.968  14.910  1.00  0.00     0.031 C 
HETATM   12  C   UNL     1     -40.238 -51.723  14.119  1.00  0.00     0.269 C 
HETATM   13  N   UNL     1     -41.344 -51.316  13.255  1.00  0.00     0.084 N 
HETATM   14  C   UNL     1     -41.603 -52.348  12.241  1.00  0.00     0.280 C 
HETATM   15  H   UNL     1     -41.100 -50.445  12.783  1.00  0.00     0.315 HD
ENDBRANCH   6   9
BRANCH   1  16
HETATM   16  N   UNL     1     -46.415 -52.411  11.714  1.00  0.00    -0.274 NA
HETATM   17  H   UNL     1     -46.847 -51.666  12.243  1.00  0.00     0.127 HD
HETATM   18  H   UNL     1     -47.023 -53.035  11.203  1.00  0.00     0.127 HD
ENDBRANCH   1  16
TORSDOF 2
ENDMDL
MODEL 6
REMARK VINA RESULT:      -4.7      6.404      8.213
REMARK  2 active torsions:
REMARK  status: ('A' for Active; 'I' for Inactive)
REMARK    1  A    between atoms: N_1  and  C_2 
REMARK    2  A    between atoms: C_7  and  C_10 
ROOT
HETATM    1  C   UNL     1     -43.606 -44.813  10.051  1.00  0.00     0.154 A 
HETATM    2  N   UNL     1     -44.338 -45.316   9.056  1.00  0.00    -0.343 N 
ATOM      3  HN  UNL     1     -44.810 -44.718   8.379  1.00  0.00     0.167 HD
HETATM    4  C   UNL     1     -44.418 -46.655   8.998  1.00  0.00     0.092 A 
HETATM    5  C   UNL     1     -43.784 -47.499   9.881  1.00  0.00     0.042 A 
HETATM    6  C   UNL     1     -43.027 -46.892  10.861  1.00  0.00     0.018 A 
HETATM    7  N   UNL     1     -42.925 -45.543  10.942  1.00  0.00    -0.336 N 
ATOM      8  HN  UNL     1     -42.349 -45.099  11.657  1.00  0.00     0.168 HD
ENDROOT
BRANCH   6   9
HETATM    9  C   UNL     1     -42.313 -47.678  11.946  1.00  0.00     0.064 C 
HETATM   10  C   UNL     1     -41.067 -46.986  12.535  1.00  0.00     0.014 C 
HETATM   11  C   UNL     1     -39.741 -47.381  11.880  1.00  0.00     0.031 C 
HETATM   12  C   UNL     1     -39.650 -48.875  11.590  1.00  0.00     0.269 C 
HETATM   13  N   UNL     1     -40.783 -49.300  10.772  1.00  0.00     0.084 N 
HETATM   14  C   UNL     1     -42.039 -49.132  11.516  1.00  0.00     0.280 C 
HETATM   15  H   UNL     1     -40.673 -50.286  10.531  1.00  0.00     0.315 HD
ENDBRANCH   6   9
BRANCH   1  16
HETATM   16  N   UNL     1     -43.518 -43.438  10.141  1.00  0.00    -0.274 NA
HETATM   17  H   UNL     1     -43.400 -43.174  11.110  1.00  0.00     0.127 HD
HETATM   18  H   UNL     1     -44.276 -43.012   9.629  1.00  0.00     0.127 HD
ENDBRANCH   1  16
TORSDOF 2
ENDMDL
MODEL 7
REMARK VINA RESULT:      -4.6      6.740      8.425
REMARK  2 active torsions:
REMARK  status: ('A' for Active; 'I' for Inactive)
REMARK    1  A    between atoms: N_1  and  C_2 
REMARK    2  A    between atoms: C_7  and  C_10 
ROOT
HETATM    1  C   UNL     1     -40.020 -45.625  10.810  1.00  0.00     0.154 A 
HETATM    2  N   UNL     1     -39.674 -44.694  11.699  1.00  0.00    -0.343 N 
ATOM      3  HN  UNL     1     -39.633 -43.705  11.455  1.00  0.00     0.167 HD
HETATM    4  C   UNL     1     -39.384 -45.134  12.935  1.00  0.00     0.092 A 
HETATM    5  C   UNL     1     -39.443 -46.456  13.311  1.00  0.00     0.042 A 
HETATM    6  C   UNL     1     -39.835 -47.347  12.333  1.00  0.00     0.018 A 
HETATM    7  N   UNL     1     -40.138 -46.931  11.079  1.00  0.00    -0.336 N 
ATOM      8  HN  UNL     1     -40.446 -47.591  10.365  1.00  0.00     0.168 HD
ENDROOT
BRANCH   6   9
HETATM    9  C   UNL     1     -39.895 -48.845  12.569  1.00  0.00     0.064 C 
HETATM   10  C   UNL     1     -39.017 -49.353  13.731  1.00  0.00     0.014 C 
HETATM   11  C   UNL     1     -37.624 -49.838  13.322  1.00  0.00     0.031 C 
HETATM   12  C   UNL     1     -37.640 -50.658  12.037  1.00  0.00     0.269 C 
HETATM   13  N   UNL     1     -38.264 -49.894  10.959  1.00  0.00     0.084 N 
HETATM   14  C   UNL     1     -39.678 -49.641  11.268  1.00  0.00     0.280 C 
HETATM   15  H   UNL     1     -38.208 -50.429  10.091  1.00  0.00     0.315 HD
ENDBRANCH   6   9
BRANCH   1  16
HETATM   16  N   UNL     1     -40.311 -45.202   9.529  1.00  0.00    -0.274 NA
HETATM   17  H   UNL     1     -40.555 -44.222   9.548  1.00  0.00     0.127 HD
HETATM   18  H   UNL     1     -40.966 -45.839   9.099  1.00  0.00     0.127 HD
ENDBRANCH   1  16
TORSDOF 2
ENDMDL
MODEL 8
REMARK VINA RESULT:      -4.6      4.421      6.816
REMARK  2 active torsions:
REMARK  status: ('A' for Active; 'I' for Inactive)
REMARK    1  A    between atoms: N_1  and  C_2 
REMARK    2  A    between atoms: C_7  and  C_10 
ROOT
HETATM    1  C   UNL     1     -41.050 -51.974  11.772  1.00  0.00     0.154 A 
HETATM    2  N   UNL     1     -42.312 -51.703  12.109  1.00  0.00    -0.343 N 
ATOM      3  HN  UNL     1     -43.030 -52.426  12.134  1.00  0.00     0.167 HD
HETATM    4  C   UNL     1     -42.581 -50.424  12.416  1.00  0.00     0.092 A 
HETATM    5  C   UNL     1     -41.639 -49.421  12.412  1.00  0.00     0.042 A 
HETATM    6  C   UNL     1     -40.355 -49.797  12.075  1.00  0.00     0.018 A 
HETATM    7  N   UNL     1     -40.054 -51.081  11.766  1.00  0.00    -0.336 N 
ATOM      8  HN  UNL     1     -39.099 -51.358  11.536  1.00  0.00     0.168 HD
ENDROOT
BRANCH   6   9
HETATM    9  C   UNL     1     -39.215 -48.801  11.968  1.00  0.00     0.064 C 
HETATM   10  C   UNL     1     -37.872 -49.289  12.549  1.00  0.00     0.014 C 
HETATM   11  C   UNL     1     -37.612 -48.880  14.001  1.00  0.00     0.031 C 
HETATM   12  C   UNL     1     -38.027 -47.443  14.291  1.00  0.00     0.269 C 
HETATM   13  N   UNL     1     -39.430 -47.242  13.936  1.00  0.00     0.084 N 
HETATM   14  C   UNL     1     -39.616 -47.408  12.488  1.00  0.00     0.280 C 
HETATM   15  H   UNL     1     -39.711 -46.296  14.197  1.00  0.00     0.315 HD
ENDBRANCH   6   9
BRANCH   1  16
HETATM   16  N   UNL     1     -40.749 -53.279  11.440  1.00  0.00    -0.274 NA
HETATM   17  H   UNL     1     -40.685 -53.832  12.283  1.00  0.00     0.127 HD
HETATM   18  H   UNL     1     -39.963 -53.298  10.806  1.00  0.00     0.127 HD
ENDBRANCH   1  16
TORSDOF 2
ENDMDL
MODEL 9
REMARK VINA RESULT:      -4.6      6.015      7.890
REMARK  2 active torsions:
REMARK  status: ('A' for Active; 'I' for Inactive)
REMARK    1  A    between atoms: N_1  and  C_2 
REMARK    2  A    between atoms: C_7  and  C_10 
ROOT
HETATM    1  C   UNL     1     -40.795 -46.008  10.190  1.00  0.00     0.154 A 
HETATM    2  N   UNL     1     -42.028 -45.965   9.685  1.00  0.00    -0.343 N 
ATOM      3  HN  UNL     1     -42.336 -45.205   9.078  1.00  0.00     0.167 HD
HETATM    4  C   UNL     1     -42.842 -46.979  10.019  1.00  0.00     0.092 A 
HETATM    5  C   UNL     1     -42.463 -48.032  10.820  1.00  0.00     0.042 A 
HETATM    6  C   UNL     1     -41.162 -48.008  11.277  1.00  0.00     0.018 A 
HETATM    7  N   UNL     1     -40.318 -46.999  10.952  1.00  0.00    -0.336 N 
ATOM      8  HN  UNL     1     -39.350 -46.995  11.277  1.00  0.00     0.168 HD
ENDROOT
BRANCH   6   9
HETATM    9  C   UNL     1     -40.607 -49.063  12.216  1.00  0.00     0.064 C 
HETATM   10  C   UNL     1     -39.555 -48.548  13.220  1.00  0.00     0.014 C 
HETATM   11  C   UNL     1     -38.101 -48.705  12.767  1.00  0.00     0.031 C 
HETATM   12  C   UNL     1     -37.837 -50.045  12.091  1.00  0.00     0.269 C 
HETATM   13  N   UNL     1     -38.755 -50.235  10.971  1.00  0.00     0.084 N 
HETATM   14  C   UNL     1     -40.139 -50.320  11.457  1.00  0.00     0.280 C 
HETATM   15  H   UNL     1     -38.522 -51.104  10.488  1.00  0.00     0.315 HD
ENDBRANCH   6   9
BRANCH   1  16
HETATM   16  N   UNL     1     -39.943 -44.971   9.872  1.00  0.00    -0.274 NA
HETATM   17  H   UNL     1     -40.341 -44.429   9.118  1.00  0.00     0.127 HD
HETATM   18  H   UNL     1     -39.005 -45.324   9.751  1.00  0.00     0.127 HD
ENDBRANCH   1  16
TORSDOF 2
ENDMDL
