MODEL 1
REMARK VINA RESULT:      -5.6      0.000      0.000
REMARK  5 active torsions:
REMARK  status: ('A' for Active; 'I' for Inactive)
REMARK    1  A    between atoms: O_1  and  C_2 
REMARK    2  A    between atoms: C_5  and  N_8 
REMARK       I    between atoms: N_8  and  C_9 
REMARK       I    between atoms: C_9  and  N_11 
REMARK    3  A    between atoms: N_11  and  C_12 
REMARK    4  A    between atoms: C_12  and  C_13 
REMARK    5  A    between atoms: C_13  and  N_14 
ROOT
HETATM    1  N   UNL     1     -43.317 -50.747  12.559  1.00  0.00    -0.339 N 
HETATM    2  C   UNL     1     -43.065 -49.399  12.549  1.00  0.00     0.316 C 
HETATM    3  O   UNL     1     -43.190 -48.663  13.515  1.00  0.00    -0.247 OA
HETATM    4  N   UNL     1     -42.623 -48.982  11.313  1.00  0.00    -0.342 N 
HETATM    5  H   UNL     1     -43.618 -51.122  11.671  1.00  0.00     0.164 HD
HETATM    6  H   UNL     1     -42.095 -49.692  10.827  1.00  0.00     0.164 HD
ENDROOT
BRANCH   1   7
HETATM    7  C   UNL     1     -43.805 -51.403  13.772  1.00  0.00     0.086 C 
HETATM    8  C   UNL     1     -43.080 -52.733  13.992  1.00  0.00     0.028 C 
HETATM    9  C   UNL     1     -43.497 -53.802  12.980  1.00  0.00     0.034 C 
HETATM   10  C   UNL     1     -45.012 -53.998  12.951  1.00  0.00     0.118 C 
HETATM   11  C   UNL     1     -45.756 -52.679  12.740  1.00  0.00     0.034 C 
HETATM   12  C   UNL     1     -45.327 -51.601  13.739  1.00  0.00     0.028 C 
BRANCH  10  13
HETATM   13  O   UNL     1     -45.438 -54.567  14.186  1.00  0.00    -0.396 OA
HETATM   14  H   UNL     1     -44.837 -54.251  14.882  1.00  0.00     0.210 HD
ENDBRANCH  10  13
ENDBRANCH   1   7
BRANCH   4  15
HETATM   15  C   UNL     1     -42.159 -47.608  11.201  1.00  0.00     0.144 C 
BRANCH  15  16
HETATM   16  C   UNL     1     -42.308 -47.025   9.800  1.00  0.00     0.149 C 
BRANCH  16  17
HETATM   17  N   UNL     1     -43.570 -47.410   9.203  1.00  0.00    -0.350 N 
HETATM   18  C   UNL     1     -44.801 -47.346   9.793  1.00  0.00     0.108 A 
HETATM   19  C   UNL     1     -45.667 -47.864   8.859  1.00  0.00     0.106 A 
HETATM   20  N   UNL     1     -44.996 -48.221   7.719  1.00  0.00    -0.361 N 
HETATM   21  C   UNL     1     -43.735 -47.935   7.953  1.00  0.00     0.182 A 
ATOM     22  HN  UNL     1     -45.391 -48.624   6.869  1.00  0.00     0.166 HD
ENDBRANCH  16  17
ENDBRANCH  15  16
ENDBRANCH   4  15
TORSDOF 5
ENDMDL
MODEL 2
REMARK VINA RESULT:      -5.5      3.048      7.388
REMARK  5 active torsions:
REMARK  status: ('A' for Active; 'I' for Inactive)
REMARK    1  A    between atoms: O_1  and  C_2 
REMARK    2  A    between atoms: C_5  and  N_8 
REMARK       I    between atoms: N_8  and  C_9 
REMARK       I    between atoms: C_9  and  N_11 
REMARK    3  A    between atoms: N_11  and  C_12 
REMARK    4  A    between atoms: C_12  and  C_13 
REMARK    5  A    between atoms: C_13  and  N_14 
ROOT
HETATM    1  N   UNL     1     -42.405 -48.748  10.730  1.00  0.00    -0.339 N 
HETATM    2  C   UNL     1     -41.748 -49.441  11.714  1.00  0.00     0.316 C 
HETATM    3  O   UNL     1     -41.913 -49.268  12.912  1.00  0.00    -0.247 OA
HETATM    4  N   UNL     1     -40.898 -50.384  11.180  1.00  0.00    -0.342 N 
HETATM    5  H   UNL     1     -41.883 -48.646   9.871  1.00  0.00     0.164 HD
HETATM    6  H   UNL     1     -41.232 -50.760  10.304  1.00  0.00     0.164 HD
ENDROOT
BRANCH   1   7
HETATM    7  C   UNL     1     -43.355 -47.689  11.073  1.00  0.00     0.086 C 
HETATM    8  C   UNL     1     -44.468 -47.606  10.024  1.00  0.00     0.028 C 
HETATM    9  C   UNL     1     -43.976 -47.037   8.692  1.00  0.00     0.034 C 
HETATM   10  C   UNL     1     -43.284 -45.686   8.871  1.00  0.00     0.118 C 
HETATM   11  C   UNL     1     -42.174 -45.746   9.920  1.00  0.00     0.034 C 
HETATM   12  C   UNL     1     -42.658 -46.333  11.249  1.00  0.00     0.028 C 
BRANCH  10  13
HETATM   13  O   UNL     1     -44.243 -44.715   9.280  1.00  0.00    -0.396 OA
HETATM   14  H   UNL     1     -44.938 -44.680   8.601  1.00  0.00     0.210 HD
ENDBRANCH  10  13
ENDBRANCH   1   7
BRANCH   4  15
HETATM   15  C   UNL     1     -40.260 -51.306  12.106  1.00  0.00     0.144 C 
BRANCH  15  16
HETATM   16  C   UNL     1     -40.979 -52.645  12.226  1.00  0.00     0.149 C 
BRANCH  16  17
HETATM   17  N   UNL     1     -40.583 -53.348  13.430  1.00  0.00    -0.350 N 
HETATM   18  C   UNL     1     -41.354 -54.211  14.157  1.00  0.00     0.108 A 
HETATM   19  C   UNL     1     -40.566 -54.573  15.224  1.00  0.00     0.106 A 
HETATM   20  N   UNL     1     -39.339 -53.968  15.150  1.00  0.00    -0.361 N 
HETATM   21  C   UNL     1     -39.376 -53.237  14.058  1.00  0.00     0.182 A 
ATOM     22  HN  UNL     1     -38.561 -54.063  15.803  1.00  0.00     0.166 HD
ENDBRANCH  16  17
ENDBRANCH  15  16
ENDBRANCH   4  15
TORSDOF 5
ENDMDL
MODEL 3
REMARK VINA RESULT:      -5.4      3.186      4.321
REMARK  5 active torsions:
REMARK  status: ('A' for Active; 'I' for Inactive)
REMARK    1  A    between atoms: O_1  and  C_2 
REMARK    2  A    between atoms: C_5  and  N_8 
REMARK       I    between atoms: N_8  and  C_9 
REMARK       I    between atoms: C_9  and  N_11 
REMARK    3  A    between atoms: N_11  and  C_12 
REMARK    4  A    between atoms: C_12  and  C_13 
REMARK    5  A    between atoms: C_13  and  N_14 
ROOT
HETATM    1  N   UNL     1     -41.821 -53.011  14.310  1.00  0.00    -0.339 N 
HETATM    2  C   UNL     1     -40.555 -52.641  13.934  1.00  0.00     0.316 C 
HETATM    3  O   UNL     1     -39.892 -53.207  13.078  1.00  0.00    -0.247 OA
HETATM    4  N   UNL     1     -40.134 -51.526  14.625  1.00  0.00    -0.342 N 
HETATM    5  H   UNL     1     -42.052 -52.794  15.268  1.00  0.00     0.164 HD
HETATM    6  H   UNL     1     -40.893 -50.905  14.863  1.00  0.00     0.164 HD
ENDROOT
BRANCH   1   7
HETATM    7  C   UNL     1     -42.464 -54.179  13.706  1.00  0.00     0.086 C 
HETATM    8  C   UNL     1     -43.409 -53.749  12.580  1.00  0.00     0.028 C 
HETATM    9  C   UNL     1     -44.666 -53.052  13.105  1.00  0.00     0.034 C 
HETATM   10  C   UNL     1     -45.396 -53.901  14.145  1.00  0.00     0.118 C 
HETATM   11  C   UNL     1     -44.467 -54.347  15.274  1.00  0.00     0.034 C 
HETATM   12  C   UNL     1     -43.200 -55.029  14.752  1.00  0.00     0.028 C 
BRANCH  10  13
HETATM   13  O   UNL     1     -45.933 -55.060  13.514  1.00  0.00    -0.396 OA
HETATM   14  H   UNL     1     -45.188 -55.606  13.211  1.00  0.00     0.210 HD
ENDBRANCH  10  13
ENDBRANCH   1   7
BRANCH   4  15
HETATM   15  C   UNL     1     -38.877 -50.922  14.211  1.00  0.00     0.144 C 
BRANCH  15  16
HETATM   16  C   UNL     1     -39.019 -49.480  13.738  1.00  0.00     0.149 C 
BRANCH  16  17
HETATM   17  N   UNL     1     -39.771 -49.404  12.503  1.00  0.00    -0.350 N 
HETATM   18  C   UNL     1     -40.875 -48.632  12.269  1.00  0.00     0.108 A 
HETATM   19  C   UNL     1     -41.256 -48.942  10.985  1.00  0.00     0.106 A 
HETATM   20  N   UNL     1     -40.404 -49.863  10.434  1.00  0.00    -0.361 N 
HETATM   21  C   UNL     1     -39.519 -50.123  11.369  1.00  0.00     0.182 A 
ATOM     22  HN  UNL     1     -40.448 -50.263   9.496  1.00  0.00     0.166 HD
ENDBRANCH  16  17
ENDBRANCH  15  16
ENDBRANCH   4  15
TORSDOF 5
ENDMDL
MODEL 4
REMARK VINA RESULT:      -5.3      3.173      4.846
REMARK  5 active torsions:
REMARK  status: ('A' for Active; 'I' for Inactive)
REMARK    1  A    between atoms: O_1  and  C_2 
REMARK    2  A    between atoms: C_5  and  N_8 
REMARK       I    between atoms: N_8  and  C_9 
REMARK       I    between atoms: C_9  and  N_11 
REMARK    3  A    between atoms: N_11  and  C_12 
REMARK    4  A    between atoms: C_12  and  C_13 
REMARK    5  A    between atoms: C_13  and  N_14 
ROOT
HETATM    1  N   UNL     1     -43.366 -51.041  12.757  1.00  0.00    -0.339 N 
HETATM    2  C   UNL     1     -42.102 -50.924  12.238  1.00  0.00     0.316 C 
HETATM    3  O   UNL     1     -41.263 -51.811  12.249  1.00  0.00    -0.247 OA
HETATM    4  N   UNL     1     -41.906 -49.683  11.672  1.00  0.00    -0.342 N 
HETATM    5  H   UNL     1     -43.761 -50.175  13.093  1.00  0.00     0.164 HD
HETATM    6  H   UNL     1     -42.752 -49.294  11.281  1.00  0.00     0.164 HD
ENDROOT
BRANCH   1   7
HETATM    7  C   UNL     1     -43.788 -52.278  13.415  1.00  0.00     0.086 C 
HETATM    8  C   UNL     1     -44.718 -53.082  12.501  1.00  0.00     0.028 C 
HETATM    9  C   UNL     1     -46.095 -52.431  12.350  1.00  0.00     0.034 C 
HETATM   10  C   UNL     1     -46.749 -52.162  13.705  1.00  0.00     0.118 C 
HETATM   11  C   UNL     1     -45.832 -51.367  14.635  1.00  0.00     0.034 C 
HETATM   12  C   UNL     1     -44.447 -52.005  14.773  1.00  0.00     0.028 C 
BRANCH  10  13
HETATM   13  O   UNL     1     -47.066 -53.402  14.330  1.00  0.00    -0.396 OA
HETATM   14  H   UNL     1     -47.180 -54.067  13.630  1.00  0.00     0.210 HD
ENDBRANCH  10  13
ENDBRANCH   1   7
BRANCH   4  15
HETATM   15  C   UNL     1     -40.669 -49.474  10.937  1.00  0.00     0.144 C 
BRANCH  15  16
HETATM   16  C   UNL     1     -39.608 -48.718  11.728  1.00  0.00     0.149 C 
BRANCH  16  17
HETATM   17  N   UNL     1     -38.713 -49.630  12.411  1.00  0.00    -0.350 N 
HETATM   18  C   UNL     1     -38.645 -49.843  13.759  1.00  0.00     0.108 A 
HETATM   19  C   UNL     1     -37.620 -50.745  13.921  1.00  0.00     0.106 A 
HETATM   20  N   UNL     1     -37.082 -51.093  12.710  1.00  0.00    -0.361 N 
HETATM   21  C   UNL     1     -37.761 -50.408  11.818  1.00  0.00     0.182 A 
ATOM     22  HN  UNL     1     -36.317 -51.746  12.537  1.00  0.00     0.166 HD
ENDBRANCH  16  17
ENDBRANCH  15  16
ENDBRANCH   4  15
TORSDOF 5
ENDMDL
MODEL 5
REMARK VINA RESULT:      -5.3      5.253      7.268
REMARK  5 active torsions:
REMARK  status: ('A' for Active; 'I' for Inactive)
REMARK    1  A    between atoms: O_1  and  C_2 
REMARK    2  A    between atoms: C_5  and  N_8 
REMARK       I    between atoms: N_8  and  C_9 
REMARK       I    between atoms: C_9  and  N_11 
REMARK    3  A    between atoms: N_11  and  C_12 
REMARK    4  A    between atoms: C_12  and  C_13 
REMARK    5  A    between atoms: C_13  and  N_14 
ROOT
HETATM    1  N   UNL     1     -44.134 -53.937  15.419  1.00  0.00    -0.339 N 
HETATM    2  C   UNL     1     -43.203 -54.772  15.981  1.00  0.00     0.316 C 
HETATM    3  O   UNL     1     -43.071 -55.953  15.701  1.00  0.00    -0.247 OA
HETATM    4  N   UNL     1     -42.409 -54.099  16.884  1.00  0.00    -0.342 N 
HETATM    5  H   UNL     1     -44.439 -53.186  16.020  1.00  0.00     0.164 HD
HETATM    6  H   UNL     1     -42.272 -53.130  16.638  1.00  0.00     0.164 HD
ENDROOT
BRANCH   1   7
HETATM    7  C   UNL     1     -45.090 -54.446  14.434  1.00  0.00     0.086 C 
HETATM    8  C   UNL     1     -44.538 -54.283  13.015  1.00  0.00     0.028 C 
HETATM    9  C   UNL     1     -44.512 -52.821  12.562  1.00  0.00     0.034 C 
HETATM   10  C   UNL     1     -45.881 -52.158  12.702  1.00  0.00     0.118 C 
HETATM   11  C   UNL     1     -46.453 -52.316  14.111  1.00  0.00     0.034 C 
HETATM   12  C   UNL     1     -46.464 -53.775  14.574  1.00  0.00     0.028 C 
BRANCH  10  13
HETATM   13  O   UNL     1     -46.787 -52.746  11.774  1.00  0.00    -0.396 OA
HETATM   14  H   UNL     1     -47.611 -52.948  12.250  1.00  0.00     0.210 HD
ENDBRANCH  10  13
ENDBRANCH   1   7
BRANCH   4  15
HETATM   15  C   UNL     1     -41.271 -54.818  17.434  1.00  0.00     0.144 C 
BRANCH  15  16
HETATM   16  C   UNL     1     -39.944 -54.087  17.260  1.00  0.00     0.149 C 
BRANCH  16  17
HETATM   17  N   UNL     1     -39.552 -54.035  15.867  1.00  0.00    -0.350 N 
HETATM   18  C   UNL     1     -39.564 -52.932  15.060  1.00  0.00     0.108 A 
HETATM   19  C   UNL     1     -39.162 -53.393  13.828  1.00  0.00     0.106 A 
HETATM   20  N   UNL     1     -38.892 -54.735  13.875  1.00  0.00    -0.361 N 
HETATM   21  C   UNL     1     -39.134 -55.096  15.115  1.00  0.00     0.182 A 
ATOM     22  HN  UNL     1     -38.571 -55.329  13.110  1.00  0.00     0.166 HD
ENDBRANCH  16  17
ENDBRANCH  15  16
ENDBRANCH   4  15
TORSDOF 5
ENDMDL
MODEL 6
REMARK VINA RESULT:      -5.2      3.146      6.830
REMARK  5 active torsions:
REMARK  status: ('A' for Active; 'I' for Inactive)
REMARK    1  A    between atoms: O_1  and  C_2 
REMARK    2  A    between atoms: C_5  and  N_8 
REMARK       I    between atoms: N_8  and  C_9 
REMARK       I    between atoms: C_9  and  N_11 
REMARK    3  A    between atoms: N_11  and  C_12 
REMARK    4  A    between atoms: C_12  and  C_13 
REMARK    5  A    between atoms: C_13  and  N_14 
ROOT
HETATM    1  N   UNL     1     -42.708 -48.748  11.005  1.00  0.00    -0.339 N 
HETATM    2  C   UNL     1     -42.434 -49.595  12.048  1.00  0.00     0.316 C 
HETATM    3  O   UNL     1     -42.899 -49.485  13.171  1.00  0.00    -0.247 OA
HETATM    4  N   UNL     1     -41.587 -50.610  11.658  1.00  0.00    -0.342 N 
HETATM    5  H   UNL     1     -41.963 -48.662  10.329  1.00  0.00     0.164 HD
HETATM    6  H   UNL     1     -41.710 -50.872  10.691  1.00  0.00     0.164 HD
ENDROOT
BRANCH   1   7
HETATM    7  C   UNL     1     -43.584 -47.592  11.197  1.00  0.00     0.086 C 
HETATM    8  C   UNL     1     -44.632 -47.521  10.083  1.00  0.00     0.028 C 
HETATM    9  C   UNL     1     -44.028 -47.117   8.736  1.00  0.00     0.034 C 
HETATM   10  C   UNL     1     -43.237 -45.814   8.834  1.00  0.00     0.118 C 
HETATM   11  C   UNL     1     -42.190 -45.862   9.947  1.00  0.00     0.034 C 
HETATM   12  C   UNL     1     -42.788 -46.283  11.292  1.00  0.00     0.028 C 
BRANCH  10  13
HETATM   13  O   UNL     1     -44.133 -44.738   9.099  1.00  0.00    -0.396 OA
HETATM   14  H   UNL     1     -44.826 -44.754   8.418  1.00  0.00     0.210 HD
ENDBRANCH  10  13
ENDBRANCH   1   7
BRANCH   4  15
HETATM   15  C   UNL     1     -41.342 -51.676  12.616  1.00  0.00     0.144 C 
BRANCH  15  16
HETATM   16  C   UNL     1     -39.862 -51.935  12.876  1.00  0.00     0.149 C 
BRANCH  16  17
HETATM   17  N   UNL     1     -39.170 -50.713  13.233  1.00  0.00    -0.350 N 
HETATM   18  C   UNL     1     -39.401 -49.942  14.337  1.00  0.00     0.108 A 
HETATM   19  C   UNL     1     -38.542 -48.876  14.208  1.00  0.00     0.106 A 
HETATM   20  N   UNL     1     -37.791 -48.992  13.068  1.00  0.00    -0.361 N 
HETATM   21  C   UNL     1     -38.189 -50.109  12.501  1.00  0.00     0.182 A 
ATOM     22  HN  UNL     1     -37.075 -48.349  12.730  1.00  0.00     0.166 HD
ENDBRANCH  16  17
ENDBRANCH  15  16
ENDBRANCH   4  15
TORSDOF 5
ENDMDL
MODEL 7
REMARK VINA RESULT:      -5.2      2.538      3.325
REMARK  5 active torsions:
REMARK  status: ('A' for Active; 'I' for Inactive)
REMARK    1  A    between atoms: O_1  and  C_2 
REMARK    2  A    between atoms: C_5  and  N_8 
REMARK       I    between atoms: N_8  and  C_9 
REMARK       I    between atoms: C_9  and  N_11 
REMARK    3  A    between atoms: N_11  and  C_12 
REMARK    4  A    between atoms: C_12  and  C_13 
REMARK    5  A    between atoms: C_13  and  N_14 
ROOT
HETATM    1  N   UNL     1     -43.667 -51.792  12.889  1.00  0.00    -0.339 N 
HETATM    2  C   UNL     1     -42.344 -51.713  12.536  1.00  0.00     0.316 C 
HETATM    3  O   UNL     1     -41.743 -52.569  11.905  1.00  0.00    -0.247 OA
HETATM    4  N   UNL     1     -41.784 -50.528  12.957  1.00  0.00    -0.342 N 
HETATM    5  H   UNL     1     -43.902 -51.304  13.741  1.00  0.00     0.164 HD
HETATM    6  H   UNL     1     -42.446 -49.765  12.971  1.00  0.00     0.164 HD
ENDROOT
BRANCH   1   7
HETATM    7  C   UNL     1     -44.458 -52.975  12.547  1.00  0.00     0.086 C 
HETATM    8  C   UNL     1     -45.951 -52.631  12.514  1.00  0.00     0.028 C 
HETATM    9  C   UNL     1     -46.523 -52.379  13.911  1.00  0.00     0.034 C 
HETATM   10  C   UNL     1     -46.245 -53.545  14.859  1.00  0.00     0.118 C 
HETATM   11  C   UNL     1     -44.761 -53.908  14.900  1.00  0.00     0.034 C 
HETATM   12  C   UNL     1     -44.180 -54.143  13.503  1.00  0.00     0.028 C 
BRANCH  10  13
HETATM   13  O   UNL     1     -46.982 -54.687  14.431  1.00  0.00    -0.396 OA
HETATM   14  H   UNL     1     -47.753 -54.372  13.929  1.00  0.00     0.210 HD
ENDBRANCH  10  13
ENDBRANCH   1   7
BRANCH   4  15
HETATM   15  C   UNL     1     -40.432 -50.233  12.508  1.00  0.00     0.144 C 
BRANCH  15  16
HETATM   16  C   UNL     1     -40.364 -49.713  11.077  1.00  0.00     0.149 C 
BRANCH  16  17
HETATM   17  N   UNL     1     -40.915 -48.377  10.977  1.00  0.00    -0.350 N 
HETATM   18  C   UNL     1     -42.047 -48.014  10.304  1.00  0.00     0.108 A 
HETATM   19  C   UNL     1     -42.125 -46.650  10.455  1.00  0.00     0.106 A 
HETATM   20  N   UNL     1     -41.083 -46.185  11.213  1.00  0.00    -0.361 N 
HETATM   21  C   UNL     1     -40.371 -47.247  11.515  1.00  0.00     0.182 A 
ATOM     22  HN  UNL     1     -40.898 -45.219  11.485  1.00  0.00     0.166 HD
ENDBRANCH  16  17
ENDBRANCH  15  16
ENDBRANCH   4  15
TORSDOF 5
ENDMDL
MODEL 8
REMARK VINA RESULT:      -5.0      4.443      6.088
REMARK  5 active torsions:
REMARK  status: ('A' for Active; 'I' for Inactive)
REMARK    1  A    between atoms: O_1  and  C_2 
REMARK    2  A    between atoms: C_5  and  N_8 
REMARK       I    between atoms: N_8  and  C_9 
REMARK       I    between atoms: C_9  and  N_11 
REMARK    3  A    between atoms: N_11  and  C_12 
REMARK    4  A    between atoms: C_12  and  C_13 
REMARK    5  A    between atoms: C_13  and  N_14 
ROOT
HETATM    1  N   UNL     1     -44.177 -53.222  15.939  1.00  0.00    -0.339 N 
HETATM    2  C   UNL     1     -43.253 -54.174  15.593  1.00  0.00     0.316 C 
HETATM    3  O   UNL     1     -43.518 -55.342  15.354  1.00  0.00    -0.247 OA
HETATM    4  N   UNL     1     -41.986 -53.639  15.518  1.00  0.00    -0.342 N 
HETATM    5  H   UNL     1     -43.817 -52.485  16.528  1.00  0.00     0.164 HD
HETATM    6  H   UNL     1     -41.987 -52.673  15.225  1.00  0.00     0.164 HD
ENDROOT
BRANCH   1   7
HETATM    7  C   UNL     1     -45.590 -53.574  16.084  1.00  0.00     0.086 C 
HETATM    8  C   UNL     1     -46.436 -52.838  15.041  1.00  0.00     0.028 C 
HETATM    9  C   UNL     1     -46.552 -51.340  15.332  1.00  0.00     0.034 C 
HETATM   10  C   UNL     1     -47.063 -51.073  16.747  1.00  0.00     0.118 C 
HETATM   11  C   UNL     1     -46.235 -51.806  17.803  1.00  0.00     0.034 C 
HETATM   12  C   UNL     1     -46.103 -53.301  17.505  1.00  0.00     0.028 C 
BRANCH  10  13
HETATM   13  O   UNL     1     -48.416 -51.507  16.849  1.00  0.00    -0.396 OA
HETATM   14  H   UNL     1     -48.576 -51.767  17.772  1.00  0.00     0.210 HD
ENDBRANCH  10  13
ENDBRANCH   1   7
BRANCH   4  15
HETATM   15  C   UNL     1     -40.931 -54.496  15.000  1.00  0.00     0.144 C 
BRANCH  15  16
HETATM   16  C   UNL     1     -39.802 -53.730  14.320  1.00  0.00     0.149 C 
BRANCH  16  17
HETATM   17  N   UNL     1     -40.299 -52.924  13.224  1.00  0.00    -0.350 N 
HETATM   18  C   UNL     1     -40.168 -51.570  13.087  1.00  0.00     0.108 A 
HETATM   19  C   UNL     1     -40.842 -51.267  11.927  1.00  0.00     0.106 A 
HETATM   20  N   UNL     1     -41.359 -52.400  11.355  1.00  0.00    -0.361 N 
HETATM   21  C   UNL     1     -41.015 -53.383  12.156  1.00  0.00     0.182 A 
ATOM     22  HN  UNL     1     -41.896 -52.466  10.490  1.00  0.00     0.166 HD
ENDBRANCH  16  17
ENDBRANCH  15  16
ENDBRANCH   4  15
TORSDOF 5
ENDMDL
MODEL 9
REMARK VINA RESULT:      -5.0      4.616      6.036
REMARK  5 active torsions:
REMARK  status: ('A' for Active; 'I' for Inactive)
REMARK    1  A    between atoms: O_1  and  C_2 
REMARK    2  A    between atoms: C_5  and  N_8 
REMARK       I    between atoms: N_8  and  C_9 
REMARK       I    between atoms: C_9  and  N_11 
REMARK    3  A    between atoms: N_11  and  C_12 
REMARK    4  A    between atoms: C_12  and  C_13 
REMARK    5  A    between atoms: C_13  and  N_14 
ROOT
HETATM    1  N   UNL     1     -42.208 -52.918  13.767  1.00  0.00    -0.339 N 
HETATM    2  C   UNL     1     -41.059 -52.579  13.099  1.00  0.00     0.316 C 
HETATM    3  O   UNL     1     -40.546 -53.251  12.217  1.00  0.00    -0.247 OA
HETATM    4  N   UNL     1     -40.570 -51.365  13.528  1.00  0.00    -0.342 N 
HETATM    5  H   UNL     1     -42.261 -52.566  14.712  1.00  0.00     0.164 HD
HETATM    6  H   UNL     1     -41.300 -50.732  13.822  1.00  0.00     0.164 HD
ENDROOT
BRANCH   1   7
HETATM    7  C   UNL     1     -42.895 -54.176  13.474  1.00  0.00     0.086 C 
HETATM    8  C   UNL     1     -44.096 -53.931  12.556  1.00  0.00     0.028 C 
HETATM    9  C   UNL     1     -45.243 -53.215  13.272  1.00  0.00     0.034 C 
HETATM   10  C   UNL     1     -45.662 -53.946  14.547  1.00  0.00     0.118 C 
HETATM   11  C   UNL     1     -44.475 -54.207  15.474  1.00  0.00     0.034 C 
HETATM   12  C   UNL     1     -43.318 -54.907  14.756  1.00  0.00     0.028 C 
BRANCH  10  13
HETATM   13  O   UNL     1     -46.253 -55.195  14.202  1.00  0.00    -0.396 OA
HETATM   14  H   UNL     1     -47.207 -55.133  14.382  1.00  0.00     0.210 HD
ENDBRANCH  10  13
ENDBRANCH   1   7
BRANCH   4  15
HETATM   15  C   UNL     1     -39.450 -50.801  12.792  1.00  0.00     0.144 C 
BRANCH  15  16
HETATM   16  C   UNL     1     -38.101 -51.028  13.465  1.00  0.00     0.149 C 
BRANCH  16  17
HETATM   17  N   UNL     1     -37.652 -49.836  14.156  1.00  0.00    -0.350 N 
HETATM   18  C   UNL     1     -37.815 -48.545  13.737  1.00  0.00     0.108 A 
HETATM   19  C   UNL     1     -37.181 -47.783  14.691  1.00  0.00     0.106 A 
HETATM   20  N   UNL     1     -36.657 -48.576  15.678  1.00  0.00    -0.361 N 
HETATM   21  C   UNL     1     -36.958 -49.808  15.331  1.00  0.00     0.182 A 
ATOM     22  HN  UNL     1     -36.144 -48.276  16.507  1.00  0.00     0.166 HD
ENDBRANCH  16  17
ENDBRANCH  15  16
ENDBRANCH   4  15
TORSDOF 5
ENDMDL
