MODEL 1
REMARK VINA RESULT:      -6.5      0.000      0.000
REMARK  4 active torsions:
REMARK  status: ('A' for Active; 'I' for Inactive)
REMARK    1  A    between atoms: C_5  and  C_6 
REMARK    2  A    between atoms: C_6  and  C_7 
REMARK    3  A    between atoms: C_7  and  N_8 
REMARK       I    between atoms: N_8  and  C_9 
REMARK    4  A    between atoms: C_9  and  C_11 
ROOT
HETATM    1  N   UNL     1     -42.744 -48.780  11.029  1.00  0.00    -0.359 N 
HETATM    2  C   UNL     1     -42.628 -47.652  10.249  1.00  0.00     0.242 C 
HETATM    3  O   UNL     1     -41.653 -46.904  10.294  1.00  0.00    -0.271 OA
HETATM    4  H   UNL     1     -43.694 -49.079  11.241  1.00  0.00     0.162 HD
ENDROOT
BRANCH   1   5
HETATM    5  C   UNL     1     -41.708 -49.163  11.976  1.00  0.00     0.128 C 
BRANCH   5   6
HETATM    6  C   UNL     1     -40.851 -50.348  11.526  1.00  0.00     0.077 C 
BRANCH   6   7
HETATM    7  C   UNL     1     -41.292 -51.642  12.138  1.00  0.00     0.018 A 
HETATM    8  N   UNL     1     -42.615 -52.029  11.996  1.00  0.00    -0.357 N 
HETATM    9  C   UNL     1     -42.823 -53.170  12.618  1.00  0.00     0.046 A 
ATOM     10  HN  UNL     1     -43.325 -51.505  11.485  1.00  0.00     0.166 HD
HETATM   11  C   UNL     1     -44.138 -53.862  12.684  1.00  0.00     0.076 C 
HETATM   12  S   UNL     1     -41.448 -53.856  13.384  1.00  0.00    -0.087 SA
HETATM   13  C   UNL     1     -40.507 -52.520  12.862  1.00  0.00     0.076 A 
ENDBRANCH   6   7
ENDBRANCH   5   6
ENDBRANCH   1   5
BRANCH   2  14
HETATM   14  C   UNL     1     -43.767 -47.418   9.259  1.00  0.00     0.196 C 
HETATM   15  C   UNL     1     -44.055 -45.934   9.068  1.00  0.00     0.159 C 
HETATM   16  N   UNL     1     -45.461 -45.921   8.752  1.00  0.00    -0.341 N 
HETATM   17  C   UNL     1     -46.060 -47.115   9.104  1.00  0.00     0.316 C 
HETATM   18  H   UNL     1     -46.006 -45.132   8.431  1.00  0.00     0.164 HD
HETATM   19  O   UNL     1     -47.238 -47.390   8.986  1.00  0.00    -0.247 OA
HETATM   20  N   UNL     1     -45.074 -47.962   9.585  1.00  0.00    -0.328 N 
HETATM   21  H   UNL     1     -45.284 -48.951   9.621  1.00  0.00     0.165 HD
ENDBRANCH   2  14
TORSDOF 4
ENDMDL
MODEL 2
REMARK VINA RESULT:      -6.1      1.532      1.707
REMARK  4 active torsions:
REMARK  status: ('A' for Active; 'I' for Inactive)
REMARK    1  A    between atoms: C_5  and  C_6 
REMARK    2  A    between atoms: C_6  and  C_7 
REMARK    3  A    between atoms: C_7  and  N_8 
REMARK       I    between atoms: N_8  and  C_9 
REMARK    4  A    between atoms: C_9  and  C_11 
ROOT
HETATM    1  N   UNL     1     -43.141 -48.661  11.394  1.00  0.00    -0.359 N 
HETATM    2  C   UNL     1     -42.743 -47.820  10.379  1.00  0.00     0.242 C 
HETATM    3  O   UNL     1     -41.593 -47.395  10.273  1.00  0.00    -0.271 OA
HETATM    4  H   UNL     1     -44.126 -48.616  11.648  1.00  0.00     0.162 HD
ENDROOT
BRANCH   1   5
HETATM    5  C   UNL     1     -42.215 -49.103  12.425  1.00  0.00     0.128 C 
BRANCH   5   6
HETATM    6  C   UNL     1     -41.873 -50.593  12.368  1.00  0.00     0.077 C 
BRANCH   6   7
HETATM    7  C   UNL     1     -43.053 -51.466  12.661  1.00  0.00     0.018 A 
HETATM    8  N   UNL     1     -44.215 -50.878  13.135  1.00  0.00    -0.357 N 
HETATM    9  C   UNL     1     -45.129 -51.796  13.361  1.00  0.00     0.046 A 
ATOM     10  HN  UNL     1     -44.344 -49.878  13.287  1.00  0.00     0.166 HD
HETATM   11  C   UNL     1     -46.490 -51.514  13.893  1.00  0.00     0.076 C 
HETATM   12  S   UNL     1     -44.664 -53.409  12.998  1.00  0.00    -0.087 SA
HETATM   13  C   UNL     1     -43.118 -52.840  12.520  1.00  0.00     0.076 A 
ENDBRANCH   6   7
ENDBRANCH   5   6
ENDBRANCH   1   5
BRANCH   2  14
HETATM   14  C   UNL     1     -43.811 -47.496   9.337  1.00  0.00     0.196 C 
HETATM   15  C   UNL     1     -44.009 -45.994   9.177  1.00  0.00     0.159 C 
HETATM   16  N   UNL     1     -45.393 -45.896   8.787  1.00  0.00    -0.341 N 
HETATM   17  C   UNL     1     -46.072 -47.065   9.068  1.00  0.00     0.316 C 
HETATM   18  H   UNL     1     -45.877 -45.069   8.462  1.00  0.00     0.164 HD
HETATM   19  O   UNL     1     -47.255 -47.272   8.878  1.00  0.00    -0.247 OA
HETATM   20  N   UNL     1     -45.161 -47.977   9.575  1.00  0.00    -0.328 N 
HETATM   21  H   UNL     1     -45.424 -48.954   9.568  1.00  0.00     0.165 HD
ENDBRANCH   2  14
TORSDOF 4
ENDMDL
MODEL 3
REMARK VINA RESULT:      -6.0      5.124      6.765
REMARK  4 active torsions:
REMARK  status: ('A' for Active; 'I' for Inactive)
REMARK    1  A    between atoms: C_5  and  C_6 
REMARK    2  A    between atoms: C_6  and  C_7 
REMARK    3  A    between atoms: C_7  and  N_8 
REMARK       I    between atoms: N_8  and  C_9 
REMARK    4  A    between atoms: C_9  and  C_11 
ROOT
HETATM    1  N   UNL     1     -41.667 -46.481  10.220  1.00  0.00    -0.359 N 
HETATM    2  C   UNL     1     -42.888 -46.117   9.698  1.00  0.00     0.242 C 
HETATM    3  O   UNL     1     -43.158 -44.963   9.369  1.00  0.00    -0.271 OA
HETATM    4  H   UNL     1     -41.670 -47.296  10.831  1.00  0.00     0.162 HD
ENDROOT
BRANCH   1   5
HETATM    5  C   UNL     1     -40.604 -45.509  10.422  1.00  0.00     0.128 C 
BRANCH   5   6
HETATM    6  C   UNL     1     -40.576 -44.890  11.821  1.00  0.00     0.077 C 
BRANCH   6   7
HETATM    7  C   UNL     1     -41.074 -43.479  11.836  1.00  0.00     0.018 A 
HETATM    8  N   UNL     1     -42.430 -43.250  11.666  1.00  0.00    -0.357 N 
HETATM    9  C   UNL     1     -42.678 -41.958  11.680  1.00  0.00     0.046 A 
ATOM     10  HN  UNL     1     -43.135 -43.977  11.546  1.00  0.00     0.166 HD
HETATM   11  C   UNL     1     -44.029 -41.360  11.504  1.00  0.00     0.076 C 
HETATM   12  S   UNL     1     -41.312 -40.945  11.923  1.00  0.00    -0.087 SA
HETATM   13  C   UNL     1     -40.312 -42.337  11.996  1.00  0.00     0.076 A 
ENDBRANCH   6   7
ENDBRANCH   5   6
ENDBRANCH   1   5
BRANCH   2  14
HETATM   14  C   UNL     1     -43.880 -47.259   9.486  1.00  0.00     0.196 C 
HETATM   15  C   UNL     1     -43.850 -47.775   8.053  1.00  0.00     0.159 C 
HETATM   16  N   UNL     1     -45.198 -48.247   7.857  1.00  0.00    -0.341 N 
HETATM   17  C   UNL     1     -46.047 -47.736   8.818  1.00  0.00     0.316 C 
HETATM   18  H   UNL     1     -45.549 -48.781   7.073  1.00  0.00     0.164 HD
HETATM   19  O   UNL     1     -47.244 -47.932   8.897  1.00  0.00    -0.247 OA
HETATM   20  N   UNL     1     -45.290 -46.984   9.702  1.00  0.00    -0.328 N 
HETATM   21  H   UNL     1     -45.694 -46.776  10.605  1.00  0.00     0.165 HD
ENDBRANCH   2  14
TORSDOF 4
ENDMDL
MODEL 4
REMARK VINA RESULT:      -5.8      4.006      4.979
REMARK  4 active torsions:
REMARK  status: ('A' for Active; 'I' for Inactive)
REMARK    1  A    between atoms: C_5  and  C_6 
REMARK    2  A    between atoms: C_6  and  C_7 
REMARK    3  A    between atoms: C_7  and  N_8 
REMARK       I    between atoms: N_8  and  C_9 
REMARK    4  A    between atoms: C_9  and  C_11 
ROOT
HETATM    1  N   UNL     1     -41.514 -47.481  10.170  1.00  0.00    -0.359 N 
HETATM    2  C   UNL     1     -42.806 -47.826  10.497  1.00  0.00     0.242 C 
HETATM    3  O   UNL     1     -43.120 -48.277  11.598  1.00  0.00    -0.271 OA
HETATM    4  H   UNL     1     -41.277 -47.530   9.181  1.00  0.00     0.162 HD
ENDROOT
BRANCH   1   5
HETATM    5  C   UNL     1     -40.421 -47.633  11.117  1.00  0.00     0.128 C 
BRANCH   5   6
HETATM    6  C   UNL     1     -39.885 -46.314  11.678  1.00  0.00     0.077 C 
BRANCH   6   7
HETATM    7  C   UNL     1     -40.943 -45.509  12.367  1.00  0.00     0.018 A 
HETATM    8  N   UNL     1     -41.654 -46.092  13.403  1.00  0.00    -0.357 N 
HETATM    9  C   UNL     1     -42.553 -45.250  13.866  1.00  0.00     0.046 A 
ATOM     10  HN  UNL     1     -41.503 -47.036  13.756  1.00  0.00     0.166 HD
HETATM   11  C   UNL     1     -43.503 -45.560  14.969  1.00  0.00     0.076 C 
HETATM   12  S   UNL     1     -42.584 -43.709  13.108  1.00  0.00    -0.087 SA
HETATM   13  C   UNL     1     -41.313 -44.210  12.071  1.00  0.00     0.076 A 
ENDBRANCH   6   7
ENDBRANCH   5   6
ENDBRANCH   1   5
BRANCH   2  14
HETATM   14  C   UNL     1     -43.853 -47.549   9.420  1.00  0.00     0.196 C 
HETATM   15  C   UNL     1     -44.030 -46.056   9.173  1.00  0.00     0.159 C 
HETATM   16  N   UNL     1     -45.406 -45.965   8.755  1.00  0.00    -0.341 N 
HETATM   17  C   UNL     1     -46.104 -47.108   9.090  1.00  0.00     0.316 C 
HETATM   18  H   UNL     1     -45.875 -45.153   8.375  1.00  0.00     0.164 HD
HETATM   19  O   UNL     1     -47.286 -47.313   8.892  1.00  0.00    -0.247 OA
HETATM   20  N   UNL     1     -45.213 -48.001   9.662  1.00  0.00    -0.328 N 
HETATM   21  H   UNL     1     -45.487 -48.973   9.706  1.00  0.00     0.165 HD
ENDBRANCH   2  14
TORSDOF 4
ENDMDL
MODEL 5
REMARK VINA RESULT:      -5.8      2.382      3.309
REMARK  4 active torsions:
REMARK  status: ('A' for Active; 'I' for Inactive)
REMARK    1  A    between atoms: C_5  and  C_6 
REMARK    2  A    between atoms: C_6  and  C_7 
REMARK    3  A    between atoms: C_7  and  N_8 
REMARK       I    between atoms: N_8  and  C_9 
REMARK    4  A    between atoms: C_9  and  C_11 
ROOT
HETATM    1  N   UNL     1     -43.351 -49.450  12.057  1.00  0.00    -0.359 N 
HETATM    2  C   UNL     1     -42.705 -48.348  11.544  1.00  0.00     0.242 C 
HETATM    3  O   UNL     1     -41.562 -48.031  11.869  1.00  0.00    -0.271 OA
HETATM    4  H   UNL     1     -44.368 -49.401  12.076  1.00  0.00     0.162 HD
ENDROOT
BRANCH   1   5
HETATM    5  C   UNL     1     -42.716 -50.321  13.034  1.00  0.00     0.128 C 
BRANCH   5   6
HETATM    6  C   UNL     1     -41.876 -51.444  12.424  1.00  0.00     0.077 C 
BRANCH   6   7
HETATM    7  C   UNL     1     -40.406 -51.233  12.615  1.00  0.00     0.018 A 
HETATM    8  N   UNL     1     -39.695 -50.570  11.628  1.00  0.00    -0.357 N 
HETATM    9  C   UNL     1     -38.422 -50.502  11.953  1.00  0.00     0.046 A 
ATOM     10  HN  UNL     1     -40.099 -50.190  10.772  1.00  0.00     0.166 HD
HETATM   11  C   UNL     1     -37.372 -49.873  11.108  1.00  0.00     0.076 C 
HETATM   12  S   UNL     1     -38.006 -51.203  13.465  1.00  0.00    -0.087 SA
HETATM   13  C   UNL     1     -39.647 -51.646  13.695  1.00  0.00     0.076 A 
ENDBRANCH   6   7
ENDBRANCH   5   6
ENDBRANCH   1   5
BRANCH   2  14
HETATM   14  C   UNL     1     -43.477 -47.569  10.481  1.00  0.00     0.196 C 
HETATM   15  C   UNL     1     -42.864 -47.741   9.096  1.00  0.00     0.159 C 
HETATM   16  N   UNL     1     -43.197 -46.500   8.445  1.00  0.00    -0.341 N 
HETATM   17  C   UNL     1     -43.566 -45.539   9.366  1.00  0.00     0.316 C 
HETATM   18  H   UNL     1     -43.077 -46.274   7.467  1.00  0.00     0.164 HD
HETATM   19  O   UNL     1     -43.874 -44.389   9.121  1.00  0.00    -0.247 OA
HETATM   20  N   UNL     1     -43.558 -46.125  10.621  1.00  0.00    -0.328 N 
HETATM   21  H   UNL     1     -44.065 -45.656  11.360  1.00  0.00     0.165 HD
ENDBRANCH   2  14
TORSDOF 4
ENDMDL
MODEL 6
REMARK VINA RESULT:      -5.7      1.859      2.690
REMARK  4 active torsions:
REMARK  status: ('A' for Active; 'I' for Inactive)
REMARK    1  A    between atoms: C_5  and  C_6 
REMARK    2  A    between atoms: C_6  and  C_7 
REMARK    3  A    between atoms: C_7  and  N_8 
REMARK       I    between atoms: N_8  and  C_9 
REMARK    4  A    between atoms: C_9  and  C_11 
ROOT
HETATM    1  N   UNL     1     -42.715 -48.684  10.954  1.00  0.00    -0.359 N 
HETATM    2  C   UNL     1     -42.686 -47.542  10.185  1.00  0.00     0.242 C 
HETATM    3  O   UNL     1     -41.763 -46.729  10.229  1.00  0.00    -0.271 OA
HETATM    4  H   UNL     1     -43.641 -49.049  11.172  1.00  0.00     0.162 HD
ENDROOT
BRANCH   1   5
HETATM    5  C   UNL     1     -41.645 -49.005  11.884  1.00  0.00     0.128 C 
BRANCH   5   6
HETATM    6  C   UNL     1     -40.685 -50.089  11.390  1.00  0.00     0.077 C 
BRANCH   6   7
HETATM    7  C   UNL     1     -39.942 -50.754  12.507  1.00  0.00     0.018 A 
HETATM    8  N   UNL     1     -38.951 -50.042  13.163  1.00  0.00    -0.357 N 
HETATM    9  C   UNL     1     -38.392 -50.791  14.090  1.00  0.00     0.046 A 
ATOM     10  HN  UNL     1     -38.691 -49.078  12.958  1.00  0.00     0.166 HD
HETATM   11  C   UNL     1     -37.278 -50.346  14.970  1.00  0.00     0.076 C 
HETATM   12  S   UNL     1     -39.035 -52.376  14.247  1.00  0.00    -0.087 SA
HETATM   13  C   UNL     1     -40.129 -52.043  12.969  1.00  0.00     0.076 A 
ENDBRANCH   6   7
ENDBRANCH   5   6
ENDBRANCH   1   5
BRANCH   2  14
HETATM   14  C   UNL     1     -43.849 -47.375   9.210  1.00  0.00     0.196 C 
HETATM   15  C   UNL     1     -44.199 -45.909   8.991  1.00  0.00     0.159 C 
HETATM   16  N   UNL     1     -45.609 -45.958   8.700  1.00  0.00    -0.341 N 
HETATM   17  C   UNL     1     -46.154 -47.166   9.088  1.00  0.00     0.316 C 
HETATM   18  H   UNL     1     -46.191 -45.199   8.371  1.00  0.00     0.164 HD
HETATM   19  O   UNL     1     -47.322 -47.491   8.997  1.00  0.00    -0.247 OA
HETATM   20  N   UNL     1     -45.128 -47.963   9.571  1.00  0.00    -0.328 N 
HETATM   21  H   UNL     1     -45.298 -48.958   9.633  1.00  0.00     0.165 HD
ENDBRANCH   2  14
TORSDOF 4
ENDMDL
MODEL 7
REMARK VINA RESULT:      -5.6      1.978      2.644
REMARK  4 active torsions:
REMARK  status: ('A' for Active; 'I' for Inactive)
REMARK    1  A    between atoms: C_5  and  C_6 
REMARK    2  A    between atoms: C_6  and  C_7 
REMARK    3  A    between atoms: C_7  and  N_8 
REMARK       I    between atoms: N_8  and  C_9 
REMARK    4  A    between atoms: C_9  and  C_11 
ROOT
HETATM    1  N   UNL     1     -41.759 -50.058  11.549  1.00  0.00    -0.359 N 
HETATM    2  C   UNL     1     -41.023 -48.919  11.314  1.00  0.00     0.242 C 
HETATM    3  O   UNL     1     -39.848 -48.797  11.659  1.00  0.00    -0.271 OA
HETATM    4  H   UNL     1     -42.766 -49.929  11.626  1.00  0.00     0.162 HD
ENDROOT
BRANCH   1   5
HETATM    5  C   UNL     1     -41.187 -51.207  12.235  1.00  0.00     0.128 C 
BRANCH   5   6
HETATM    6  C   UNL     1     -41.901 -52.529  11.950  1.00  0.00     0.077 C 
BRANCH   6   7
HETATM    7  C   UNL     1     -43.090 -52.745  12.835  1.00  0.00     0.018 A 
HETATM    8  N   UNL     1     -44.204 -51.939  12.660  1.00  0.00    -0.357 N 
HETATM    9  C   UNL     1     -45.132 -52.253  13.538  1.00  0.00     0.046 A 
ATOM     10  HN  UNL     1     -44.291 -51.208  11.955  1.00  0.00     0.166 HD
HETATM   11  C   UNL     1     -46.451 -51.571  13.645  1.00  0.00     0.076 C 
HETATM   12  S   UNL     1     -44.739 -53.542  14.603  1.00  0.00    -0.087 SA
HETATM   13  C   UNL     1     -43.206 -53.679  13.847  1.00  0.00     0.076 A 
ENDBRANCH   6   7
ENDBRANCH   5   6
ENDBRANCH   1   5
BRANCH   2  14
HETATM   14  C   UNL     1     -41.740 -47.824  10.527  1.00  0.00     0.196 C 
HETATM   15  C   UNL     1     -42.810 -47.133  11.363  1.00  0.00     0.159 C 
HETATM   16  N   UNL     1     -43.774 -46.726  10.373  1.00  0.00    -0.341 N 
HETATM   17  C   UNL     1     -43.583 -47.405   9.186  1.00  0.00     0.316 C 
HETATM   18  H   UNL     1     -44.573 -46.122  10.513  1.00  0.00     0.164 HD
HETATM   19  O   UNL     1     -44.256 -47.296   8.179  1.00  0.00    -0.247 OA
HETATM   20  N   UNL     1     -42.466 -48.211   9.329  1.00  0.00    -0.328 N 
HETATM   21  H   UNL     1     -42.025 -48.556   8.486  1.00  0.00     0.165 HD
ENDBRANCH   2  14
TORSDOF 4
ENDMDL
MODEL 8
REMARK VINA RESULT:      -5.6      4.525      6.038
REMARK  4 active torsions:
REMARK  status: ('A' for Active; 'I' for Inactive)
REMARK    1  A    between atoms: C_5  and  C_6 
REMARK    2  A    between atoms: C_6  and  C_7 
REMARK    3  A    between atoms: C_7  and  N_8 
REMARK       I    between atoms: N_8  and  C_9 
REMARK    4  A    between atoms: C_9  and  C_11 
ROOT
HETATM    1  N   UNL     1     -41.186 -47.280  10.656  1.00  0.00    -0.359 N 
HETATM    2  C   UNL     1     -42.234 -46.590  10.090  1.00  0.00     0.242 C 
HETATM    3  O   UNL     1     -42.190 -45.385   9.848  1.00  0.00    -0.271 OA
HETATM    4  H   UNL     1     -41.436 -48.109  11.191  1.00  0.00     0.162 HD
ENDROOT
BRANCH   1   5
HETATM    5  C   UNL     1     -39.942 -46.617  11.014  1.00  0.00     0.128 C 
BRANCH   5   6
HETATM    6  C   UNL     1     -39.755 -46.397  12.516  1.00  0.00     0.077 C 
BRANCH   6   7
HETATM    7  C   UNL     1     -40.151 -45.021  12.951  1.00  0.00     0.018 A 
HETATM    8  N   UNL     1     -40.291 -44.033  11.989  1.00  0.00    -0.357 N 
HETATM    9  C   UNL     1     -40.614 -42.891  12.556  1.00  0.00     0.046 A 
ATOM     10  HN  UNL     1     -40.162 -44.172  10.987  1.00  0.00     0.166 HD
HETATM   11  C   UNL     1     -40.823 -41.617  11.816  1.00  0.00     0.076 C 
HETATM   12  S   UNL     1     -40.793 -42.935  14.263  1.00  0.00    -0.087 SA
HETATM   13  C   UNL     1     -40.391 -44.603  14.247  1.00  0.00     0.076 A 
ENDBRANCH   6   7
ENDBRANCH   5   6
ENDBRANCH   1   5
BRANCH   2  14
HETATM   14  C   UNL     1     -43.449 -47.435   9.712  1.00  0.00     0.196 C 
HETATM   15  C   UNL     1     -43.558 -47.628   8.205  1.00  0.00     0.159 C 
HETATM   16  N   UNL     1     -44.979 -47.764   8.003  1.00  0.00    -0.341 N 
HETATM   17  C   UNL     1     -45.681 -47.309   9.101  1.00  0.00     0.316 C 
HETATM   18  H   UNL     1     -45.450 -48.035   7.151  1.00  0.00     0.164 HD
HETATM   19  O   UNL     1     -46.891 -47.270   9.215  1.00  0.00    -0.247 OA
HETATM   20  N   UNL     1     -44.765 -46.933  10.070  1.00  0.00    -0.328 N 
HETATM   21  H   UNL     1     -45.098 -46.844  11.021  1.00  0.00     0.165 HD
ENDBRANCH   2  14
TORSDOF 4
ENDMDL
MODEL 9
REMARK VINA RESULT:      -5.5      4.174      6.900
REMARK  4 active torsions:
REMARK  status: ('A' for Active; 'I' for Inactive)
REMARK    1  A    between atoms: C_5  and  C_6 
REMARK    2  A    between atoms: C_6  and  C_7 
REMARK    3  A    between atoms: C_7  and  N_8 
REMARK       I    between atoms: N_8  and  C_9 
REMARK    4  A    between atoms: C_9  and  C_11 
ROOT
HETATM    1  N   UNL     1     -42.682 -50.957  12.185  1.00  0.00    -0.359 N 
HETATM    2  C   UNL     1     -42.603 -52.216  12.733  1.00  0.00     0.242 C 
HETATM    3  O   UNL     1     -41.653 -52.589  13.421  1.00  0.00    -0.271 OA
HETATM    4  H   UNL     1     -43.235 -50.876  11.333  1.00  0.00     0.162 HD
ENDROOT
BRANCH   1   5
HETATM    5  C   UNL     1     -41.630 -49.972  12.382  1.00  0.00     0.128 C 
BRANCH   5   6
HETATM    6  C   UNL     1     -41.015 -49.439  11.086  1.00  0.00     0.077 C 
BRANCH   6   7
HETATM    7  C   UNL     1     -41.268 -47.977  10.887  1.00  0.00     0.018 A 
HETATM    8  N   UNL     1     -40.185 -47.136  10.682  1.00  0.00    -0.357 N 
HETATM    9  C   UNL     1     -40.594 -45.892  10.555  1.00  0.00     0.046 A 
ATOM     10  HN  UNL     1     -39.212 -47.438  10.636  1.00  0.00     0.166 HD
HETATM   11  C   UNL     1     -39.690 -44.729  10.343  1.00  0.00     0.076 C 
HETATM   12  S   UNL     1     -42.293 -45.658  10.649  1.00  0.00    -0.087 SA
HETATM   13  C   UNL     1     -42.497 -47.343  10.896  1.00  0.00     0.076 A 
ENDBRANCH   6   7
ENDBRANCH   5   6
ENDBRANCH   1   5
BRANCH   2  14
HETATM   14  C   UNL     1     -43.813 -53.116  12.491  1.00  0.00     0.196 C 
HETATM   15  C   UNL     1     -45.121 -52.405  12.813  1.00  0.00     0.159 C 
HETATM   16  N   UNL     1     -45.981 -53.488  13.218  1.00  0.00    -0.341 N 
HETATM   17  C   UNL     1     -45.246 -54.618  13.522  1.00  0.00     0.316 C 
HETATM   18  H   UNL     1     -46.976 -53.444  13.390  1.00  0.00     0.164 HD
HETATM   19  O   UNL     1     -45.689 -55.678  13.918  1.00  0.00    -0.247 OA
HETATM   20  N   UNL     1     -43.913 -54.343  13.263  1.00  0.00    -0.328 N 
HETATM   21  H   UNL     1     -43.285 -55.129  13.162  1.00  0.00     0.165 HD
ENDBRANCH   2  14
TORSDOF 4
ENDMDL
