MODEL 1
REMARK VINA RESULT:      -5.6      0.000      0.000
REMARK  3 active torsions:
REMARK  status: ('A' for Active; 'I' for Inactive)
REMARK    1  A    between atoms: C_1  and  C_7 
REMARK    2  A    between atoms: C_8  and  C_14 
REMARK    3  A    between atoms: C_12  and  O_13 
ROOT
HETATM    1  C   UNL     1     -28.572 -53.822  -4.591  1.00  0.00     0.173 A 
HETATM    2  N   UNL     1     -27.936 -54.898  -4.172  1.00  0.00    -0.280 N 
ATOM      3  HN  UNL     1     -28.283 -55.857  -4.185  1.00  0.00     0.189 HD
HETATM    4  O   UNL     1     -27.835 -52.675  -4.430  1.00  0.00    -0.280 OA
HETATM    5  N   UNL     1     -26.707 -54.471  -3.712  1.00  0.00    -0.281 N 
ATOM      6  HN  UNL     1     -25.966 -55.051  -3.319  1.00  0.00     0.189 HD
HETATM    7  C   UNL     1     -26.682 -53.166  -3.880  1.00  0.00     0.140 A 
ENDROOT
BRANCH   1   8
HETATM    8  C   UNL     1     -29.928 -53.716  -5.193  1.00  0.00     0.298 C 
HETATM    9  N   UNL     1     -30.589 -52.419  -4.940  1.00  0.00     0.098 N 
HETATM   10  C   UNL     1     -32.035 -52.644  -5.073  1.00  0.00     0.302 C 
HETATM   11  H   UNL     1     -30.261 -51.727  -5.615  1.00  0.00     0.317 HD
HETATM   12  C   UNL     1     -32.242 -54.163  -5.107  1.00  0.00     0.148 C 
HETATM   13  C   UNL     1     -30.915 -54.722  -4.625  1.00  0.00     0.077 C 
BRANCH  12  14
HETATM   14  O   UNL     1     -33.313 -54.599  -4.293  1.00  0.00    -0.394 OA
HETATM   15  H   UNL     1     -34.103 -54.084  -4.532  1.00  0.00     0.210 HD
ENDBRANCH  12  14
ENDBRANCH   1   8
BRANCH   7  16
HETATM   16  C   UNL     1     -25.610 -52.196  -3.569  1.00  0.00     0.081 C 
HETATM   17  C   UNL     1     -24.459 -52.307  -4.555  1.00  0.00     0.013 C 
ENDBRANCH   7  16
TORSDOF 3
ENDMDL
MODEL 2
REMARK VINA RESULT:      -5.5     19.969     20.367
REMARK  3 active torsions:
REMARK  status: ('A' for Active; 'I' for Inactive)
REMARK    1  A    between atoms: C_1  and  C_7 
REMARK    2  A    between atoms: C_8  and  C_14 
REMARK    3  A    between atoms: C_12  and  O_13 
ROOT
HETATM    1  C   UNL     1     -41.181 -48.664  10.702  1.00  0.00     0.173 A 
HETATM    2  N   UNL     1     -40.587 -49.733  10.212  1.00  0.00    -0.280 N 
ATOM      3  HN  UNL     1     -40.913 -50.311   9.436  1.00  0.00     0.189 HD
HETATM    4  O   UNL     1     -40.493 -48.113  11.755  1.00  0.00    -0.280 OA
HETATM    5  N   UNL     1     -39.439 -49.918  10.954  1.00  0.00    -0.281 N 
ATOM      6  HN  UNL     1     -38.747 -50.658  10.836  1.00  0.00     0.189 HD
HETATM    7  C   UNL     1     -39.415 -48.951  11.845  1.00  0.00     0.140 A 
ENDROOT
BRANCH   1   8
HETATM    8  C   UNL     1     -42.446 -48.015  10.263  1.00  0.00     0.298 C 
HETATM    9  N   UNL     1     -42.722 -48.170   8.820  1.00  0.00     0.098 N 
HETATM   10  C   UNL     1     -43.621 -47.073   8.438  1.00  0.00     0.302 C 
HETATM   11  H   UNL     1     -43.154 -49.078   8.647  1.00  0.00     0.317 HD
HETATM   12  C   UNL     1     -43.632 -46.085   9.610  1.00  0.00     0.148 C 
HETATM   13  C   UNL     1     -42.442 -46.508  10.453  1.00  0.00     0.077 C 
BRANCH  12  14
HETATM   14  O   UNL     1     -43.524 -44.735   9.203  1.00  0.00    -0.394 OA
HETATM   15  H   UNL     1     -42.610 -44.443   9.365  1.00  0.00     0.210 HD
ENDBRANCH  12  14
ENDBRANCH   1   8
BRANCH   7  16
HETATM   16  C   UNL     1     -38.412 -48.658  12.892  1.00  0.00     0.081 C 
HETATM   17  C   UNL     1     -37.846 -49.935  13.489  1.00  0.00     0.013 C 
ENDBRANCH   7  16
TORSDOF 3
ENDMDL
MODEL 3
REMARK VINA RESULT:      -5.5     20.183     21.483
REMARK  3 active torsions:
REMARK  status: ('A' for Active; 'I' for Inactive)
REMARK    1  A    between atoms: C_1  and  C_7 
REMARK    2  A    between atoms: C_8  and  C_14 
REMARK    3  A    between atoms: C_12  and  O_13 
ROOT
HETATM    1  C   UNL     1     -43.155 -47.439   9.590  1.00  0.00     0.173 A 
HETATM    2  N   UNL     1     -43.028 -47.666   8.298  1.00  0.00    -0.280 N 
ATOM      3  HN  UNL     1     -42.157 -47.722   7.771  1.00  0.00     0.189 HD
HETATM    4  O   UNL     1     -44.466 -47.415   9.997  1.00  0.00    -0.280 OA
HETATM    5  N   UNL     1     -44.306 -47.813   7.800  1.00  0.00    -0.281 N 
ATOM      6  HN  UNL     1     -44.567 -48.000   6.832  1.00  0.00     0.189 HD
HETATM    7  C   UNL     1     -45.121 -47.663   8.821  1.00  0.00     0.140 A 
ENDROOT
BRANCH   1   8
HETATM    8  C   UNL     1     -42.092 -47.221  10.608  1.00  0.00     0.298 C 
HETATM    9  N   UNL     1     -41.121 -46.170  10.235  1.00  0.00     0.098 N 
HETATM   10  C   UNL     1     -39.889 -46.442  10.988  1.00  0.00     0.302 C 
HETATM   11  H   UNL     1     -41.501 -45.252  10.468  1.00  0.00     0.317 HD
HETATM   12  C   UNL     1     -40.038 -47.847  11.583  1.00  0.00     0.148 C 
HETATM   13  C   UNL     1     -41.212 -48.441  10.824  1.00  0.00     0.077 C 
BRANCH  12  14
HETATM   14  O   UNL     1     -38.876 -48.641  11.439  1.00  0.00    -0.394 OA
HETATM   15  H   UNL     1     -38.514 -48.489  10.549  1.00  0.00     0.210 HD
ENDBRANCH  12  14
ENDBRANCH   1   8
BRANCH   7  16
HETATM   16  C   UNL     1     -46.598 -47.727   8.866  1.00  0.00     0.081 C 
HETATM   17  C   UNL     1     -47.083 -49.146   9.111  1.00  0.00     0.013 C 
ENDBRANCH   7  16
TORSDOF 3
ENDMDL
MODEL 4
REMARK VINA RESULT:      -5.3     21.623     23.311
REMARK  3 active torsions:
REMARK  status: ('A' for Active; 'I' for Inactive)
REMARK    1  A    between atoms: C_1  and  C_7 
REMARK    2  A    between atoms: C_8  and  C_14 
REMARK    3  A    between atoms: C_12  and  O_13 
ROOT
HETATM    1  C   UNL     1     -43.224 -52.694  13.318  1.00  0.00     0.173 A 
HETATM    2  N   UNL     1     -43.617 -53.038  12.108  1.00  0.00    -0.280 N 
ATOM      3  HN  UNL     1     -43.055 -53.496  11.390  1.00  0.00     0.189 HD
HETATM    4  O   UNL     1     -44.218 -52.084  14.043  1.00  0.00    -0.280 OA
HETATM    5  N   UNL     1     -44.938 -52.656  12.002  1.00  0.00    -0.281 N 
ATOM      6  HN  UNL     1     -45.547 -52.777  11.193  1.00  0.00     0.189 HD
HETATM    7  C   UNL     1     -45.257 -52.104  13.153  1.00  0.00     0.140 A 
ENDROOT
BRANCH   1   8
HETATM    8  C   UNL     1     -41.894 -52.885  13.956  1.00  0.00     0.298 C 
HETATM    9  N   UNL     1     -40.903 -51.855  13.581  1.00  0.00     0.098 N 
HETATM   10  C   UNL     1     -39.575 -52.445  13.795  1.00  0.00     0.302 C 
HETATM   11  H   UNL     1     -41.034 -51.024  14.157  1.00  0.00     0.317 HD
HETATM   12  C   UNL     1     -39.790 -53.947  14.014  1.00  0.00     0.148 C 
HETATM   13  C   UNL     1     -41.216 -54.182  13.547  1.00  0.00     0.077 C 
BRANCH  12  14
HETATM   14  O   UNL     1     -38.873 -54.753  13.298  1.00  0.00    -0.394 OA
HETATM   15  H   UNL     1     -37.973 -54.458  13.522  1.00  0.00     0.210 HD
ENDBRANCH  12  14
ENDBRANCH   1   8
BRANCH   7  16
HETATM   16  C   UNL     1     -46.545 -51.527  13.598  1.00  0.00     0.081 C 
HETATM   17  C   UNL     1     -46.601 -51.401  15.111  1.00  0.00     0.013 C 
ENDBRANCH   7  16
TORSDOF 3
ENDMDL
MODEL 5
REMARK VINA RESULT:      -5.3     20.214     21.278
REMARK  3 active torsions:
REMARK  status: ('A' for Active; 'I' for Inactive)
REMARK    1  A    between atoms: C_1  and  C_7 
REMARK    2  A    between atoms: C_8  and  C_14 
REMARK    3  A    between atoms: C_12  and  O_13 
ROOT
HETATM    1  C   UNL     1     -41.585 -50.560  11.770  1.00  0.00     0.173 A 
HETATM    2  N   UNL     1     -40.843 -51.356  11.028  1.00  0.00    -0.280 N 
ATOM      3  HN  UNL     1     -40.184 -51.076  10.301  1.00  0.00     0.189 HD
HETATM    4  O   UNL     1     -42.378 -51.248  12.655  1.00  0.00    -0.280 OA
HETATM    5  N   UNL     1     -41.132 -52.645  11.427  1.00  0.00    -0.281 N 
ATOM      6  HN  UNL     1     -40.729 -53.505  11.056  1.00  0.00     0.189 HD
HETATM    7  C   UNL     1     -42.032 -52.544  12.382  1.00  0.00     0.140 A 
ENDROOT
BRANCH   1   8
HETATM    8  C   UNL     1     -41.655 -49.074  11.761  1.00  0.00     0.298 C 
HETATM    9  N   UNL     1     -42.525 -48.528  10.697  1.00  0.00     0.098 N 
HETATM   10  C   UNL     1     -42.077 -47.152  10.446  1.00  0.00     0.302 C 
HETATM   11  H   UNL     1     -43.498 -48.549  11.002  1.00  0.00     0.317 HD
HETATM   12  C   UNL     1     -40.731 -46.989  11.162  1.00  0.00     0.148 C 
HETATM   13  C   UNL     1     -40.315 -48.414  11.484  1.00  0.00     0.077 C 
BRANCH  12  14
HETATM   14  O   UNL     1     -39.756 -46.331  10.377  1.00  0.00    -0.394 OA
HETATM   15  H   UNL     1     -40.204 -45.646   9.851  1.00  0.00     0.210 HD
ENDBRANCH  12  14
ENDBRANCH   1   8
BRANCH   7  16
HETATM   16  C   UNL     1     -42.691 -53.605  13.173  1.00  0.00     0.081 C 
HETATM   17  C   UNL     1     -44.110 -53.855  12.689  1.00  0.00     0.013 C 
ENDBRANCH   7  16
TORSDOF 3
ENDMDL
MODEL 6
REMARK VINA RESULT:      -5.0     20.375     21.287
REMARK  3 active torsions:
REMARK  status: ('A' for Active; 'I' for Inactive)
REMARK    1  A    between atoms: C_1  and  C_7 
REMARK    2  A    between atoms: C_8  and  C_14 
REMARK    3  A    between atoms: C_12  and  O_13 
ROOT
HETATM    1  C   UNL     1     -41.367 -49.042  10.912  1.00  0.00     0.173 A 
HETATM    2  N   UNL     1     -40.526 -49.927  10.416  1.00  0.00    -0.280 N 
ATOM      3  HN  UNL     1     -39.915 -49.804   9.609  1.00  0.00     0.189 HD
HETATM    4  O   UNL     1     -42.055 -49.517  12.001  1.00  0.00    -0.280 OA
HETATM    5  N   UNL     1     -40.635 -51.054  11.205  1.00  0.00    -0.281 N 
ATOM      6  HN  UNL     1     -40.120 -51.927  11.098  1.00  0.00     0.189 HD
HETATM    7  C   UNL     1     -41.536 -50.777  12.123  1.00  0.00     0.140 A 
ENDROOT
BRANCH   1   8
HETATM    8  C   UNL     1     -41.640 -47.654  10.450  1.00  0.00     0.298 C 
HETATM    9  N   UNL     1     -40.455 -46.771  10.496  1.00  0.00     0.098 N 
HETATM   10  C   UNL     1     -40.956 -45.392  10.570  1.00  0.00     0.302 C 
HETATM   11  H   UNL     1     -39.887 -46.912   9.661  1.00  0.00     0.317 HD
HETATM   12  C   UNL     1     -42.455 -45.483  10.876  1.00  0.00     0.148 C 
HETATM   13  C   UNL     1     -42.649 -46.922  11.319  1.00  0.00     0.077 C 
BRANCH  12  14
HETATM   14  O   UNL     1     -42.879 -44.574  11.873  1.00  0.00    -0.394 OA
HETATM   15  H   UNL     1     -43.631 -44.067  11.521  1.00  0.00     0.210 HD
ENDBRANCH  12  14
ENDBRANCH   1   8
BRANCH   7  16
HETATM   16  C   UNL     1     -42.041 -51.616  13.232  1.00  0.00     0.081 C 
HETATM   17  C   UNL     1     -42.260 -53.052  12.784  1.00  0.00     0.013 C 
ENDBRANCH   7  16
TORSDOF 3
ENDMDL
MODEL 7
REMARK VINA RESULT:      -5.0     20.391     21.374
REMARK  3 active torsions:
REMARK  status: ('A' for Active; 'I' for Inactive)
REMARK    1  A    between atoms: C_1  and  C_7 
REMARK    2  A    between atoms: C_8  and  C_14 
REMARK    3  A    between atoms: C_12  and  O_13 
ROOT
HETATM    1  C   UNL     1     -40.867 -50.568  11.669  1.00  0.00     0.173 A 
HETATM    2  N   UNL     1     -40.453 -50.096  10.510  1.00  0.00    -0.280 N 
ATOM      3  HN  UNL     1     -39.744 -50.505   9.903  1.00  0.00     0.189 HD
HETATM    4  O   UNL     1     -41.830 -49.779  12.249  1.00  0.00    -0.280 OA
HETATM    5  N   UNL     1     -41.169 -48.939  10.282  1.00  0.00    -0.281 N 
ATOM      6  HN  UNL     1     -41.094 -48.324   9.472  1.00  0.00     0.189 HD
HETATM    7  C   UNL     1     -41.966 -48.785  11.317  1.00  0.00     0.140 A 
ENDROOT
BRANCH   1   8
HETATM    8  C   UNL     1     -40.435 -51.800  12.382  1.00  0.00     0.298 C 
HETATM    9  N   UNL     1     -40.856 -53.050  11.715  1.00  0.00     0.098 N 
HETATM   10  C   UNL     1     -40.875 -54.097  12.745  1.00  0.00     0.302 C 
HETATM   11  H   UNL     1     -40.200 -53.280  10.968  1.00  0.00     0.317 HD
HETATM   12  C   UNL     1     -40.755 -53.386  14.097  1.00  0.00     0.148 C 
HETATM   13  C   UNL     1     -41.040 -51.931  13.770  1.00  0.00     0.077 C 
BRANCH  12  14
HETATM   14  O   UNL     1     -41.653 -53.882  15.071  1.00  0.00    -0.394 OA
HETATM   15  H   UNL     1     -42.010 -54.729  14.750  1.00  0.00     0.210 HD
ENDBRANCH  12  14
ENDBRANCH   1   8
BRANCH   7  16
HETATM   16  C   UNL     1     -42.956 -47.723  11.597  1.00  0.00     0.081 C 
HETATM   17  C   UNL     1     -43.900 -47.524  10.423  1.00  0.00     0.013 C 
ENDBRANCH   7  16
TORSDOF 3
ENDMDL
MODEL 8
REMARK VINA RESULT:      -5.0     20.669     22.397
REMARK  3 active torsions:
REMARK  status: ('A' for Active; 'I' for Inactive)
REMARK    1  A    between atoms: C_1  and  C_7 
REMARK    2  A    between atoms: C_8  and  C_14 
REMARK    3  A    between atoms: C_12  and  O_13 
ROOT
HETATM    1  C   UNL     1     -42.768 -51.959  12.571  1.00  0.00     0.173 A 
HETATM    2  N   UNL     1     -42.936 -53.050  11.851  1.00  0.00    -0.280 N 
ATOM      3  HN  UNL     1     -42.289 -53.432  11.161  1.00  0.00     0.189 HD
HETATM    4  O   UNL     1     -43.828 -51.707  13.405  1.00  0.00    -0.280 OA
HETATM    5  N   UNL     1     -44.159 -53.573  12.214  1.00  0.00    -0.281 N 
ATOM      6  HN  UNL     1     -44.596 -54.419  11.848  1.00  0.00     0.189 HD
HETATM    7  C   UNL     1     -44.652 -52.764  13.127  1.00  0.00     0.140 A 
ENDROOT
BRANCH   1   8
HETATM    8  C   UNL     1     -41.615 -51.018  12.584  1.00  0.00     0.298 C 
HETATM    9  N   UNL     1     -41.536 -50.160  11.382  1.00  0.00     0.098 N 
HETATM   10  C   UNL     1     -40.138 -49.729  11.258  1.00  0.00     0.302 C 
HETATM   11  H   UNL     1     -42.161 -49.361  11.488  1.00  0.00     0.317 HD
HETATM   12  C   UNL     1     -39.323 -50.591  12.230  1.00  0.00     0.148 C 
HETATM   13  C   UNL     1     -40.269 -51.723  12.592  1.00  0.00     0.077 C 
BRANCH  12  14
HETATM   14  O   UNL     1     -38.121 -51.082  11.668  1.00  0.00    -0.394 OA
HETATM   15  H   UNL     1     -38.327 -51.463  10.798  1.00  0.00     0.210 HD
ENDBRANCH  12  14
ENDBRANCH   1   8
BRANCH   7  16
HETATM   16  C   UNL     1     -45.930 -52.844  13.868  1.00  0.00     0.081 C 
HETATM   17  C   UNL     1     -46.588 -51.480  13.984  1.00  0.00     0.013 C 
ENDBRANCH   7  16
TORSDOF 3
ENDMDL
MODEL 9
REMARK VINA RESULT:      -4.9     19.888     20.982
REMARK  3 active torsions:
REMARK  status: ('A' for Active; 'I' for Inactive)
REMARK    1  A    between atoms: C_1  and  C_7 
REMARK    2  A    between atoms: C_8  and  C_14 
REMARK    3  A    between atoms: C_12  and  O_13 
ROOT
HETATM    1  C   UNL     1     -40.633 -51.715  11.887  1.00  0.00     0.173 A 
HETATM    2  N   UNL     1     -40.836 -50.757  11.004  1.00  0.00    -0.280 N 
ATOM      3  HN  UNL     1     -41.649 -50.648  10.398  1.00  0.00     0.189 HD
HETATM    4  O   UNL     1     -39.432 -51.587  12.540  1.00  0.00    -0.280 OA
HETATM    5  N   UNL     1     -39.731 -49.933  11.061  1.00  0.00    -0.281 N 
ATOM      6  HN  UNL     1     -39.565 -49.093  10.507  1.00  0.00     0.189 HD
HETATM    7  C   UNL     1     -38.932 -50.447  11.971  1.00  0.00     0.140 A 
ENDROOT
BRANCH   1   8
HETATM    8  C   UNL     1     -41.516 -52.858  12.242  1.00  0.00     0.298 C 
HETATM    9  N   UNL     1     -42.905 -52.706  11.761  1.00  0.00     0.098 N 
HETATM   10  C   UNL     1     -43.747 -53.554  12.615  1.00  0.00     0.302 C 
HETATM   11  H   UNL     1     -42.965 -52.992  10.784  1.00  0.00     0.317 HD
HETATM   12  C   UNL     1     -42.879 -53.978  13.806  1.00  0.00     0.148 C 
HETATM   13  C   UNL     1     -41.688 -53.039  13.740  1.00  0.00     0.077 C 
BRANCH  12  14
HETATM   14  O   UNL     1     -43.549 -53.878  15.048  1.00  0.00    -0.394 OA
HETATM   15  H   UNL     1     -44.505 -53.841  14.875  1.00  0.00     0.210 HD
ENDBRANCH  12  14
ENDBRANCH   1   8
BRANCH   7  16
HETATM   16  C   UNL     1     -37.614 -49.971  12.447  1.00  0.00     0.081 C 
HETATM   17  C   UNL     1     -37.765 -48.873  13.486  1.00  0.00     0.013 C 
ENDBRANCH   7  16
TORSDOF 3
ENDMDL
