MODEL 1
REMARK VINA RESULT:      -6.0      0.000      0.000
REMARK  4 active torsions:
REMARK  status: ('A' for Active; 'I' for Inactive)
REMARK    1  A    between atoms: O_2  and  C_3 
REMARK    2  A    between atoms: C_5  and  N_6 
REMARK       I    between atoms: N_6  and  C_7 
REMARK       I    between atoms: C_7  and  N_9 
REMARK    3  A    between atoms: N_9  and  C_10 
REMARK    4  A    between atoms: C_10  and  C_11 
ROOT
HETATM    1  N   UNL     1     -42.940 -52.862  11.879  1.00  0.00    -0.295 N 
HETATM    2  C   UNL     1     -43.873 -53.319  12.770  1.00  0.00     0.321 C 
HETATM    3  O   UNL     1     -44.718 -54.132  12.410  1.00  0.00    -0.247 OA
HETATM    4  N   UNL     1     -43.840 -52.767  14.014  1.00  0.00    -0.342 N 
HETATM    5  H   UNL     1     -43.096 -53.194  10.939  1.00  0.00     0.172 HD
HETATM    6  H   UNL     1     -42.948 -52.338  14.243  1.00  0.00     0.164 HD
ENDROOT
BRANCH   1   7
HETATM    7  C   UNL     1     -41.905 -51.946  12.114  1.00  0.00     0.114 A 
HETATM    8  C   UNL     1     -40.694 -52.421  12.563  1.00  0.00     0.104 A 
HETATM    9  C   UNL     1     -39.701 -51.474  12.694  1.00  0.00     0.146 A 
HETATM   10  N   UNL     1     -39.872 -50.164  12.468  1.00  0.00    -0.333 N 
HETATM   11  C   UNL     1     -41.095 -49.807  12.073  1.00  0.00     0.183 A 
ATOM     12  HN  UNL     1     -39.120 -49.487  12.589  1.00  0.00     0.168 HD
HETATM   13  N   UNL     1     -42.124 -50.637  11.873  1.00  0.00    -0.338 N 
ATOM     14  HN  UNL     1     -43.031 -50.297  11.553  1.00  0.00     0.168 HD
BRANCH   9  15
HETATM   15  O   UNL     1     -38.452 -51.933  13.068  1.00  0.00    -0.341 OA
HETATM   16  C   UNL     1     -37.422 -50.982  12.805  1.00  0.00     0.211 C 
ENDBRANCH   9  15
ENDBRANCH   1   7
BRANCH   4  17
HETATM   17  C   UNL     1     -44.751 -53.134  15.069  1.00  0.00     0.133 C 
BRANCH  17  18
HETATM   18  C   UNL     1     -45.520 -51.885  15.517  1.00  0.00    -0.028 C 
HETATM   19  C   UNL     1     -44.615 -50.666  15.749  1.00  0.00     0.016 C 
HETATM   20  C   UNL     1     -46.439 -52.167  16.747  1.00  0.00     0.011 C 
HETATM   21  C   UNL     1     -47.514 -51.281  16.087  1.00  0.00     0.002 C 
HETATM   22  C   UNL     1     -46.839 -51.581  14.733  1.00  0.00     0.011 C 
ENDBRANCH  17  18
ENDBRANCH   4  17
TORSDOF 4
ENDMDL
MODEL 2
REMARK VINA RESULT:      -5.7      3.080      4.027
REMARK  4 active torsions:
REMARK  status: ('A' for Active; 'I' for Inactive)
REMARK    1  A    between atoms: O_2  and  C_3 
REMARK    2  A    between atoms: C_5  and  N_6 
REMARK       I    between atoms: N_6  and  C_7 
REMARK       I    between atoms: C_7  and  N_9 
REMARK    3  A    between atoms: N_9  and  C_10 
REMARK    4  A    between atoms: C_10  and  C_11 
ROOT
HETATM    1  N   UNL     1     -41.803 -50.320  11.904  1.00  0.00    -0.295 N 
HETATM    2  C   UNL     1     -42.381 -51.501  12.284  1.00  0.00     0.321 C 
HETATM    3  O   UNL     1     -41.720 -52.535  12.286  1.00  0.00    -0.247 OA
HETATM    4  N   UNL     1     -43.711 -51.456  12.571  1.00  0.00    -0.342 N 
HETATM    5  H   UNL     1     -40.859 -50.433  11.567  1.00  0.00     0.172 HD
HETATM    6  H   UNL     1     -44.046 -50.523  12.794  1.00  0.00     0.164 HD
ENDROOT
BRANCH   1   7
HETATM    7  C   UNL     1     -42.398 -49.052  11.849  1.00  0.00     0.114 A 
HETATM    8  C   UNL     1     -42.541 -48.339  13.017  1.00  0.00     0.104 A 
HETATM    9  C   UNL     1     -43.059 -47.070  12.873  1.00  0.00     0.146 A 
HETATM   10  N   UNL     1     -43.463 -46.547  11.707  1.00  0.00    -0.333 N 
HETATM   11  C   UNL     1     -43.315 -47.337  10.644  1.00  0.00     0.183 A 
ATOM     12  HN  UNL     1     -43.857 -45.609  11.639  1.00  0.00     0.168 HD
HETATM   13  N   UNL     1     -42.789 -48.567  10.653  1.00  0.00    -0.338 N 
ATOM     14  HN  UNL     1     -42.690 -49.112   9.796  1.00  0.00     0.168 HD
BRANCH   9  15
HETATM   15  O   UNL     1     -43.142 -46.301  14.019  1.00  0.00    -0.341 OA
HETATM   16  C   UNL     1     -42.811 -44.933  13.781  1.00  0.00     0.211 C 
ENDBRANCH   9  15
ENDBRANCH   1   7
BRANCH   4  17
HETATM   17  C   UNL     1     -44.473 -52.609  12.984  1.00  0.00     0.133 C 
BRANCH  17  18
HETATM   18  C   UNL     1     -45.864 -52.148  13.435  1.00  0.00    -0.028 C 
HETATM   19  C   UNL     1     -46.729 -51.616  12.284  1.00  0.00     0.016 C 
HETATM   20  C   UNL     1     -45.795 -51.139  14.624  1.00  0.00     0.011 C 
HETATM   21  C   UNL     1     -47.010 -51.859  15.243  1.00  0.00     0.002 C 
HETATM   22  C   UNL     1     -46.609 -53.104  14.425  1.00  0.00     0.011 C 
ENDBRANCH  17  18
ENDBRANCH   4  17
TORSDOF 4
ENDMDL
MODEL 3
REMARK VINA RESULT:      -5.7      2.639      3.521
REMARK  4 active torsions:
REMARK  status: ('A' for Active; 'I' for Inactive)
REMARK    1  A    between atoms: O_2  and  C_3 
REMARK    2  A    between atoms: C_5  and  N_6 
REMARK       I    between atoms: N_6  and  C_7 
REMARK       I    between atoms: C_7  and  N_9 
REMARK    3  A    between atoms: N_9  and  C_10 
REMARK    4  A    between atoms: C_10  and  C_11 
ROOT
HETATM    1  N   UNL     1     -40.437 -50.789  11.257  1.00  0.00    -0.295 N 
HETATM    2  C   UNL     1     -41.217 -51.771  11.805  1.00  0.00     0.321 C 
HETATM    3  O   UNL     1     -40.828 -52.935  11.805  1.00  0.00    -0.247 OA
HETATM    4  N   UNL     1     -42.442 -51.386  12.259  1.00  0.00    -0.342 N 
HETATM    5  H   UNL     1     -39.607 -51.148  10.810  1.00  0.00     0.172 HD
HETATM    6  H   UNL     1     -42.509 -50.389  12.446  1.00  0.00     0.164 HD
ENDROOT
BRANCH   1   7
HETATM    7  C   UNL     1     -40.715 -49.417  11.176  1.00  0.00     0.114 A 
HETATM    8  C   UNL     1     -40.062 -48.560  12.032  1.00  0.00     0.104 A 
HETATM    9  C   UNL     1     -40.325 -47.221  11.839  1.00  0.00     0.146 A 
HETATM   10  N   UNL     1     -41.192 -46.744  10.934  1.00  0.00    -0.333 N 
HETATM   11  C   UNL     1     -41.798 -47.664  10.183  1.00  0.00     0.183 A 
ATOM     12  HN  UNL     1     -41.374 -45.747  10.828  1.00  0.00     0.168 HD
HETATM   13  N   UNL     1     -41.595 -48.984  10.250  1.00  0.00    -0.338 N 
ATOM     14  HN  UNL     1     -42.082 -49.632   9.631  1.00  0.00     0.168 HD
BRANCH   9  15
HETATM   15  O   UNL     1     -39.625 -46.332  12.632  1.00  0.00    -0.341 OA
HETATM   16  C   UNL     1     -39.736 -44.987  12.169  1.00  0.00     0.211 C 
ENDBRANCH   9  15
ENDBRANCH   1   7
BRANCH   4  17
HETATM   17  C   UNL     1     -43.387 -52.293  12.860  1.00  0.00     0.133 C 
BRANCH  17  18
HETATM   18  C   UNL     1     -44.429 -51.481  13.637  1.00  0.00    -0.028 C 
HETATM   19  C   UNL     1     -43.868 -50.178  14.224  1.00  0.00     0.016 C 
HETATM   20  C   UNL     1     -45.159 -52.337  14.719  1.00  0.00     0.011 C 
HETATM   21  C   UNL     1     -46.471 -51.629  14.326  1.00  0.00     0.002 C 
HETATM   22  C   UNL     1     -45.829 -51.340  12.953  1.00  0.00     0.011 C 
ENDBRANCH  17  18
ENDBRANCH   4  17
TORSDOF 4
ENDMDL
MODEL 4
REMARK VINA RESULT:      -5.6      1.601      2.169
REMARK  4 active torsions:
REMARK  status: ('A' for Active; 'I' for Inactive)
REMARK    1  A    between atoms: O_2  and  C_3 
REMARK    2  A    between atoms: C_5  and  N_6 
REMARK       I    between atoms: N_6  and  C_7 
REMARK       I    between atoms: C_7  and  N_9 
REMARK    3  A    between atoms: N_9  and  C_10 
REMARK    4  A    between atoms: C_10  and  C_11 
ROOT
HETATM    1  N   UNL     1     -42.154 -54.602  14.222  1.00  0.00    -0.295 N 
HETATM    2  C   UNL     1     -43.251 -54.481  15.031  1.00  0.00     0.321 C 
HETATM    3  O   UNL     1     -43.693 -55.465  15.617  1.00  0.00    -0.247 OA
HETATM    4  N   UNL     1     -43.836 -53.252  15.073  1.00  0.00    -0.342 N 
HETATM    5  H   UNL     1     -41.845 -55.556  14.115  1.00  0.00     0.172 HD
HETATM    6  H   UNL     1     -43.221 -52.500  14.777  1.00  0.00     0.164 HD
ENDROOT
BRANCH   1   7
HETATM    7  C   UNL     1     -41.513 -53.593  13.488  1.00  0.00     0.114 A 
HETATM    8  C   UNL     1     -40.284 -53.146  13.915  1.00  0.00     0.104 A 
HETATM    9  C   UNL     1     -39.680 -52.213  13.100  1.00  0.00     0.146 A 
HETATM   10  N   UNL     1     -40.237 -51.706  11.991  1.00  0.00    -0.333 N 
HETATM   11  C   UNL     1     -41.445 -52.182  11.689  1.00  0.00     0.183 A 
ATOM     12  HN  UNL     1     -39.768 -51.006  11.418  1.00  0.00     0.168 HD
HETATM   13  N   UNL     1     -42.113 -53.113  12.379  1.00  0.00    -0.338 N 
ATOM     14  HN  UNL     1     -43.030 -53.445  12.081  1.00  0.00     0.168 HD
BRANCH   9  15
HETATM   15  O   UNL     1     -38.411 -51.803  13.462  1.00  0.00    -0.341 OA
HETATM   16  C   UNL     1     -37.900 -50.790  12.597  1.00  0.00     0.211 C 
ENDBRANCH   9  15
ENDBRANCH   1   7
BRANCH   4  17
HETATM   17  C   UNL     1     -44.999 -52.955  15.872  1.00  0.00     0.133 C 
BRANCH  17  18
HETATM   18  C   UNL     1     -45.960 -52.090  15.047  1.00  0.00    -0.028 C 
HETATM   19  C   UNL     1     -47.043 -51.409  15.895  1.00  0.00     0.016 C 
HETATM   20  C   UNL     1     -46.572 -52.872  13.843  1.00  0.00     0.011 C 
HETATM   21  C   UNL     1     -46.398 -51.600  12.990  1.00  0.00     0.002 C 
HETATM   22  C   UNL     1     -45.293 -51.167  13.974  1.00  0.00     0.011 C 
ENDBRANCH  17  18
ENDBRANCH   4  17
TORSDOF 4
ENDMDL
MODEL 5
REMARK VINA RESULT:      -5.4      4.082      6.848
REMARK  4 active torsions:
REMARK  status: ('A' for Active; 'I' for Inactive)
REMARK    1  A    between atoms: O_2  and  C_3 
REMARK    2  A    between atoms: C_5  and  N_6 
REMARK       I    between atoms: N_6  and  C_7 
REMARK       I    between atoms: C_7  and  N_9 
REMARK    3  A    between atoms: N_9  and  C_10 
REMARK    4  A    between atoms: C_10  and  C_11 
ROOT
HETATM    1  N   UNL     1     -43.187 -48.852  11.808  1.00  0.00    -0.295 N 
HETATM    2  C   UNL     1     -42.233 -49.772  12.148  1.00  0.00     0.321 C 
HETATM    3  O   UNL     1     -42.439 -50.559  13.067  1.00  0.00    -0.247 OA
HETATM    4  N   UNL     1     -41.055 -49.698  11.469  1.00  0.00    -0.342 N 
HETATM    5  H   UNL     1     -43.980 -48.856  12.432  1.00  0.00     0.172 HD
HETATM    6  H   UNL     1     -41.128 -49.206  10.583  1.00  0.00     0.164 HD
ENDROOT
BRANCH   1   7
HETATM    7  C   UNL     1     -43.127 -47.888  10.791  1.00  0.00     0.114 A 
HETATM    8  C   UNL     1     -42.547 -46.672  11.068  1.00  0.00     0.104 A 
HETATM    9  C   UNL     1     -42.451 -45.807   9.999  1.00  0.00     0.146 A 
HETATM   10  N   UNL     1     -42.927 -46.066   8.774  1.00  0.00    -0.333 N 
HETATM   11  C   UNL     1     -43.505 -47.259   8.624  1.00  0.00     0.183 A 
ATOM     12  HN  UNL     1     -42.853 -45.397   8.008  1.00  0.00     0.168 HD
HETATM   13  N   UNL     1     -43.621 -48.194   9.574  1.00  0.00    -0.338 N 
ATOM     14  HN  UNL     1     -44.060 -49.095   9.386  1.00  0.00     0.168 HD
BRANCH   9  15
HETATM   15  O   UNL     1     -41.802 -44.609  10.228  1.00  0.00    -0.341 OA
HETATM   16  C   UNL     1     -42.480 -43.799  11.188  1.00  0.00     0.211 C 
ENDBRANCH   9  15
ENDBRANCH   1   7
BRANCH   4  17
HETATM   17  C   UNL     1     -39.946 -50.588  11.705  1.00  0.00     0.133 C 
BRANCH  17  18
HETATM   18  C   UNL     1     -38.724 -49.760  12.121  1.00  0.00    -0.028 C 
HETATM   19  C   UNL     1     -37.498 -49.999  11.229  1.00  0.00     0.016 C 
HETATM   20  C   UNL     1     -38.384 -49.930  13.635  1.00  0.00     0.011 C 
HETATM   21  C   UNL     1     -38.086 -48.418  13.688  1.00  0.00     0.002 C 
HETATM   22  C   UNL     1     -39.004 -48.258  12.458  1.00  0.00     0.011 C 
ENDBRANCH  17  18
ENDBRANCH   4  17
TORSDOF 4
ENDMDL
MODEL 6
REMARK VINA RESULT:      -5.3      1.862      2.436
REMARK  4 active torsions:
REMARK  status: ('A' for Active; 'I' for Inactive)
REMARK    1  A    between atoms: O_2  and  C_3 
REMARK    2  A    between atoms: C_5  and  N_6 
REMARK       I    between atoms: N_6  and  C_7 
REMARK       I    between atoms: C_7  and  N_9 
REMARK    3  A    between atoms: N_9  and  C_10 
REMARK    4  A    between atoms: C_10  and  C_11 
ROOT
HETATM    1  N   UNL     1     -43.573 -53.758  12.415  1.00  0.00    -0.295 N 
HETATM    2  C   UNL     1     -44.696 -53.034  12.711  1.00  0.00     0.321 C 
HETATM    3  O   UNL     1     -45.692 -53.128  12.000  1.00  0.00    -0.247 OA
HETATM    4  N   UNL     1     -44.600 -52.177  13.765  1.00  0.00    -0.342 N 
HETATM    5  H   UNL     1     -43.649 -54.267  11.547  1.00  0.00     0.172 HD
HETATM    6  H   UNL     1     -43.845 -52.405  14.405  1.00  0.00     0.164 HD
ENDROOT
BRANCH   1   7
HETATM    7  C   UNL     1     -42.357 -53.781  13.113  1.00  0.00     0.114 A 
HETATM    8  C   UNL     1     -41.305 -53.040  12.628  1.00  0.00     0.104 A 
HETATM    9  C   UNL     1     -40.169 -53.047  13.410  1.00  0.00     0.146 A 
HETATM   10  N   UNL     1     -40.034 -53.756  14.538  1.00  0.00    -0.333 N 
HETATM   11  C   UNL     1     -41.102 -54.470  14.897  1.00  0.00     0.183 A 
ATOM     12  HN  UNL     1     -39.174 -53.751  15.085  1.00  0.00     0.168 HD
HETATM   13  N   UNL     1     -42.269 -54.511  14.244  1.00  0.00    -0.338 N 
ATOM     14  HN  UNL     1     -43.053 -55.066  14.584  1.00  0.00     0.168 HD
BRANCH   9  15
HETATM   15  O   UNL     1     -39.122 -52.249  12.989  1.00  0.00    -0.341 OA
HETATM   16  C   UNL     1     -38.478 -51.581  14.072  1.00  0.00     0.211 C 
ENDBRANCH   9  15
ENDBRANCH   1   7
BRANCH   4  17
HETATM   17  C   UNL     1     -45.687 -51.340  14.208  1.00  0.00     0.133 C 
BRANCH  17  18
HETATM   18  C   UNL     1     -46.022 -51.690  15.663  1.00  0.00    -0.028 C 
HETATM   19  C   UNL     1     -45.466 -53.052  16.102  1.00  0.00     0.016 C 
HETATM   20  C   UNL     1     -47.547 -51.560  15.965  1.00  0.00     0.011 C 
HETATM   21  C   UNL     1     -47.176 -50.938  17.326  1.00  0.00     0.002 C 
HETATM   22  C   UNL     1     -45.823 -50.538  16.702  1.00  0.00     0.011 C 
ENDBRANCH  17  18
ENDBRANCH   4  17
TORSDOF 4
ENDMDL
MODEL 7
REMARK VINA RESULT:      -5.3      5.138      6.691
REMARK  4 active torsions:
REMARK  status: ('A' for Active; 'I' for Inactive)
REMARK    1  A    between atoms: O_2  and  C_3 
REMARK    2  A    between atoms: C_5  and  N_6 
REMARK       I    between atoms: N_6  and  C_7 
REMARK       I    between atoms: C_7  and  N_9 
REMARK    3  A    between atoms: N_9  and  C_10 
REMARK    4  A    between atoms: C_10  and  C_11 
ROOT
HETATM    1  N   UNL     1     -40.995 -49.312  10.708  1.00  0.00    -0.295 N 
HETATM    2  C   UNL     1     -41.460 -48.067  10.381  1.00  0.00     0.321 C 
HETATM    3  O   UNL     1     -42.507 -47.948   9.753  1.00  0.00    -0.247 OA
HETATM    4  N   UNL     1     -40.663 -47.017  10.723  1.00  0.00    -0.342 N 
HETATM    5  H   UNL     1     -41.547 -50.056  10.310  1.00  0.00     0.172 HD
HETATM    6  H   UNL     1     -39.996 -47.237  11.457  1.00  0.00     0.164 HD
ENDROOT
BRANCH   1   7
HETATM    7  C   UNL     1     -39.831 -49.634  11.421  1.00  0.00     0.114 A 
HETATM    8  C   UNL     1     -39.898 -49.703  12.794  1.00  0.00     0.104 A 
HETATM    9  C   UNL     1     -38.737 -50.104  13.421  1.00  0.00     0.146 A 
HETATM   10  N   UNL     1     -37.586 -50.362  12.785  1.00  0.00    -0.333 N 
HETATM   11  C   UNL     1     -37.623 -50.228  11.459  1.00  0.00     0.183 A 
ATOM     12  HN  UNL     1     -36.741 -50.642  13.281  1.00  0.00     0.168 HD
HETATM   13  N   UNL     1     -38.697 -49.885  10.738  1.00  0.00    -0.338 N 
ATOM     14  HN  UNL     1     -38.659 -49.817   9.721  1.00  0.00     0.168 HD
BRANCH   9  15
HETATM   15  O   UNL     1     -38.795 -50.257  14.793  1.00  0.00    -0.341 OA
HETATM   16  C   UNL     1     -38.200 -49.163  15.488  1.00  0.00     0.211 C 
ENDBRANCH   9  15
ENDBRANCH   1   7
BRANCH   4  17
HETATM   17  C   UNL     1     -41.001 -45.642  10.450  1.00  0.00     0.133 C 
BRANCH  17  18
HETATM   18  C   UNL     1     -40.986 -44.857  11.767  1.00  0.00    -0.028 C 
HETATM   19  C   UNL     1     -42.324 -44.173  12.081  1.00  0.00     0.016 C 
HETATM   20  C   UNL     1     -39.790 -43.856  11.844  1.00  0.00     0.011 C 
HETATM   21  C   UNL     1     -39.614 -44.255  13.323  1.00  0.00     0.002 C 
HETATM   22  C   UNL     1     -40.322 -45.583  12.984  1.00  0.00     0.011 C 
ENDBRANCH  17  18
ENDBRANCH   4  17
TORSDOF 4
ENDMDL
MODEL 8
REMARK VINA RESULT:      -5.2      3.309      5.218
REMARK  4 active torsions:
REMARK  status: ('A' for Active; 'I' for Inactive)
REMARK    1  A    between atoms: O_2  and  C_3 
REMARK    2  A    between atoms: C_5  and  N_6 
REMARK       I    between atoms: N_6  and  C_7 
REMARK       I    between atoms: C_7  and  N_9 
REMARK    3  A    between atoms: N_9  and  C_10 
REMARK    4  A    between atoms: C_10  and  C_11 
ROOT
HETATM    1  N   UNL     1     -40.036 -49.114  11.263  1.00  0.00    -0.295 N 
HETATM    2  C   UNL     1     -39.881 -50.441  11.560  1.00  0.00     0.321 C 
HETATM    3  O   UNL     1     -38.755 -50.918  11.668  1.00  0.00    -0.247 OA
HETATM    4  N   UNL     1     -41.023 -51.178  11.646  1.00  0.00    -0.342 N 
HETATM    5  H   UNL     1     -39.163 -48.648  11.071  1.00  0.00     0.172 HD
HETATM    6  H   UNL     1     -41.855 -50.618  11.810  1.00  0.00     0.164 HD
ENDROOT
BRANCH   1   7
HETATM    7  C   UNL     1     -41.236 -48.404  11.111  1.00  0.00     0.114 A 
HETATM    8  C   UNL     1     -41.800 -47.818  12.221  1.00  0.00     0.104 A 
HETATM    9  C   UNL     1     -42.932 -47.070  11.981  1.00  0.00     0.146 A 
HETATM   10  N   UNL     1     -43.511 -46.940  10.779  1.00  0.00    -0.333 N 
HETATM   11  C   UNL     1     -42.903 -47.579   9.779  1.00  0.00     0.183 A 
ATOM     12  HN  UNL     1     -44.358 -46.390  10.639  1.00  0.00     0.168 HD
HETATM   13  N   UNL     1     -41.781 -48.301   9.882  1.00  0.00    -0.338 N 
ATOM     14  HN  UNL     1     -41.358 -48.751   9.070  1.00  0.00     0.168 HD
BRANCH   9  15
HETATM   15  O   UNL     1     -43.478 -46.406  13.064  1.00  0.00    -0.341 OA
HETATM   16  C   UNL     1     -42.612 -45.392  13.572  1.00  0.00     0.211 C 
ENDBRANCH   9  15
ENDBRANCH   1   7
BRANCH   4  17
HETATM   17  C   UNL     1     -41.036 -52.587  11.948  1.00  0.00     0.133 C 
BRANCH  17  18
HETATM   18  C   UNL     1     -41.916 -52.822  13.182  1.00  0.00    -0.028 C 
HETATM   19  C   UNL     1     -42.399 -51.521  13.839  1.00  0.00     0.016 C 
HETATM   20  C   UNL     1     -41.241 -53.777  14.216  1.00  0.00     0.011 C 
HETATM   21  C   UNL     1     -42.619 -54.434  14.436  1.00  0.00     0.002 C 
HETATM   22  C   UNL     1     -43.015 -53.926  13.034  1.00  0.00     0.011 C 
ENDBRANCH  17  18
ENDBRANCH   4  17
TORSDOF 4
ENDMDL
MODEL 9
REMARK VINA RESULT:      -5.2      4.660      6.591
REMARK  4 active torsions:
REMARK  status: ('A' for Active; 'I' for Inactive)
REMARK    1  A    between atoms: O_2  and  C_3 
REMARK    2  A    between atoms: C_5  and  N_6 
REMARK       I    between atoms: N_6  and  C_7 
REMARK       I    between atoms: C_7  and  N_9 
REMARK    3  A    between atoms: N_9  and  C_10 
REMARK    4  A    between atoms: C_10  and  C_11 
ROOT
HETATM    1  N   UNL     1     -40.932 -49.427  10.400  1.00  0.00    -0.295 N 
HETATM    2  C   UNL     1     -41.599 -48.236  10.488  1.00  0.00     0.321 C 
HETATM    3  O   UNL     1     -42.477 -47.963   9.676  1.00  0.00    -0.247 OA
HETATM    4  N   UNL     1     -41.177 -47.380  11.459  1.00  0.00    -0.342 N 
HETATM    5  H   UNL     1     -41.184 -49.962   9.582  1.00  0.00     0.172 HD
HETATM    6  H   UNL     1     -40.657 -47.835  12.204  1.00  0.00     0.164 HD
ENDROOT
BRANCH   1   7
HETATM    7  C   UNL     1     -39.914 -49.906  11.237  1.00  0.00     0.114 A 
HETATM    8  C   UNL     1     -40.266 -50.605  12.369  1.00  0.00     0.104 A 
HETATM    9  C   UNL     1     -39.213 -51.113  13.099  1.00  0.00     0.146 A 
HETATM   10  N   UNL     1     -37.921 -50.917  12.799  1.00  0.00    -0.333 N 
HETATM   11  C   UNL     1     -37.692 -50.194  11.702  1.00  0.00     0.183 A 
ATOM     12  HN  UNL     1     -37.166 -51.295  13.370  1.00  0.00     0.168 HD
HETATM   13  N   UNL     1     -38.629 -49.683  10.894  1.00  0.00    -0.338 N 
ATOM     14  HN  UNL     1     -38.383 -49.152  10.059  1.00  0.00     0.168 HD
BRANCH   9  15
HETATM   15  O   UNL     1     -39.537 -51.886  14.198  1.00  0.00    -0.341 OA
HETATM   16  C   UNL     1     -39.796 -53.245  13.850  1.00  0.00     0.211 C 
ENDBRANCH   9  15
ENDBRANCH   1   7
BRANCH   4  17
HETATM   17  C   UNL     1     -41.768 -46.085  11.687  1.00  0.00     0.133 C 
BRANCH  17  18
HETATM   18  C   UNL     1     -40.661 -45.092  12.061  1.00  0.00    -0.028 C 
HETATM   19  C   UNL     1     -39.528 -45.728  12.879  1.00  0.00     0.016 C 
HETATM   20  C   UNL     1     -41.226 -43.810  12.750  1.00  0.00     0.011 C 
HETATM   21  C   UNL     1     -40.212 -42.983  11.934  1.00  0.00     0.002 C 
HETATM   22  C   UNL     1     -40.185 -44.141  10.914  1.00  0.00     0.011 C 
ENDBRANCH  17  18
ENDBRANCH   4  17
TORSDOF 4
ENDMDL
