MODEL 1
REMARK VINA RESULT:      -6.4      0.000      0.000
REMARK  2 active torsions:
REMARK  status: ('A' for Active; 'I' for Inactive)
REMARK    1  A    between atoms: C_7  and  N_8 
REMARK       I    between atoms: N_8  and  C_9 
REMARK       I    between atoms: C_9  and  N_11 
REMARK    2  A    between atoms: N_11  and  C_12 
ROOT
HETATM    1  N   UNL     1     -43.353 -51.502  12.780  1.00  0.00    -0.338 N 
HETATM    2  C   UNL     1     -42.786 -50.247  12.690  1.00  0.00     0.321 C 
HETATM    3  O   UNL     1     -43.069 -49.328  13.449  1.00  0.00    -0.247 OA
HETATM    4  N   UNL     1     -41.946 -50.152  11.600  1.00  0.00    -0.305 N 
HETATM    5  H   UNL     1     -42.755 -52.272  12.514  1.00  0.00     0.164 HD
HETATM    6  H   UNL     1     -42.260 -50.687  10.803  1.00  0.00     0.171 HD
ENDROOT
BRANCH   1   7
HETATM    7  C   UNL     1     -44.392 -51.760  13.770  1.00  0.00     0.089 C 
HETATM    8  C   UNL     1     -44.405 -53.217  14.289  1.00  0.00     0.004 C 
HETATM    9  C   UNL     1     -44.608 -54.259  13.184  1.00  0.00     0.012 C 
HETATM   10  C   UNL     1     -45.478 -53.356  15.384  1.00  0.00     0.006 C 
HETATM   11  C   UNL     1     -46.860 -52.897  14.921  1.00  0.00     0.001 C 
HETATM   12  C   UNL     1     -46.836 -51.491  14.329  1.00  0.00     0.002 C 
HETATM   13  C   UNL     1     -45.767 -51.326  13.250  1.00  0.00     0.026 C 
ENDBRANCH   1   7
BRANCH   4  14
HETATM   14  C   UNL     1     -41.277 -48.965  11.324  1.00  0.00     0.092 A 
HETATM   15  C   UNL     1     -41.621 -47.880  10.469  1.00  0.00     0.058 A 
HETATM   16  C   UNL     1     -42.844 -47.645   9.667  1.00  0.00     0.072 C 
HETATM   17  N   UNL     1     -40.673 -46.927  10.499  1.00  0.00    -0.263 N 
HETATM   18  O   UNL     1     -39.700 -47.387  11.360  1.00  0.00    -0.240 OA
ATOM     19  HN  UNL     1     -40.674 -46.043   9.990  1.00  0.00     0.194 HD
HETATM   20  C   UNL     1     -40.065 -48.597  11.859  1.00  0.00     0.101 A 
HETATM   21  C   UNL     1     -39.082 -49.249  12.745  1.00  0.00     0.081 C 
ENDBRANCH   4  14
TORSDOF 2
ENDMDL
MODEL 2
REMARK VINA RESULT:      -6.3      3.372      4.507
REMARK  2 active torsions:
REMARK  status: ('A' for Active; 'I' for Inactive)
REMARK    1  A    between atoms: C_7  and  N_8 
REMARK       I    between atoms: N_8  and  C_9 
REMARK       I    between atoms: C_9  and  N_11 
REMARK    2  A    between atoms: N_11  and  C_12 
ROOT
HETATM    1  N   UNL     1     -41.023 -50.012  11.054  1.00  0.00    -0.338 N 
HETATM    2  C   UNL     1     -41.743 -48.838  11.144  1.00  0.00     0.321 C 
HETATM    3  O   UNL     1     -42.287 -48.463  12.176  1.00  0.00    -0.247 OA
HETATM    4  N   UNL     1     -41.836 -48.211   9.919  1.00  0.00    -0.305 N 
HETATM    5  H   UNL     1     -40.240 -49.997  10.416  1.00  0.00     0.164 HD
HETATM    6  H   UNL     1     -41.900 -48.853   9.143  1.00  0.00     0.171 HD
ENDROOT
BRANCH   1   7
HETATM    7  C   UNL     1     -40.944 -50.906  12.205  1.00  0.00     0.089 C 
HETATM    8  C   UNL     1     -39.714 -50.647  13.106  1.00  0.00     0.004 C 
HETATM    9  C   UNL     1     -38.376 -50.786  12.371  1.00  0.00     0.012 C 
HETATM   10  C   UNL     1     -39.775 -51.583  14.327  1.00  0.00     0.006 C 
HETATM   11  C   UNL     1     -39.906 -53.055  13.940  1.00  0.00     0.001 C 
HETATM   12  C   UNL     1     -41.068 -53.301  12.982  1.00  0.00     0.002 C 
HETATM   13  C   UNL     1     -41.036 -52.372  11.769  1.00  0.00     0.026 C 
ENDBRANCH   1   7
BRANCH   4  14
HETATM   14  C   UNL     1     -42.528 -47.012   9.789  1.00  0.00     0.092 A 
HETATM   15  C   UNL     1     -43.840 -46.742   9.307  1.00  0.00     0.058 A 
HETATM   16  C   UNL     1     -44.907 -47.670   8.868  1.00  0.00     0.072 C 
HETATM   17  N   UNL     1     -44.105 -45.425   9.352  1.00  0.00    -0.263 N 
HETATM   18  O   UNL     1     -42.967 -44.825   9.849  1.00  0.00    -0.240 OA
ATOM     19  HN  UNL     1     -44.971 -44.963   9.076  1.00  0.00     0.194 HD
HETATM   20  C   UNL     1     -42.031 -45.772  10.119  1.00  0.00     0.101 A 
HETATM   21  C   UNL     1     -40.727 -45.271  10.592  1.00  0.00     0.081 C 
ENDBRANCH   4  14
TORSDOF 2
ENDMDL
MODEL 3
REMARK VINA RESULT:      -6.3      0.488      1.910
REMARK  2 active torsions:
REMARK  status: ('A' for Active; 'I' for Inactive)
REMARK    1  A    between atoms: C_7  and  N_8 
REMARK       I    between atoms: N_8  and  C_9 
REMARK       I    between atoms: C_9  and  N_11 
REMARK    2  A    between atoms: N_11  and  C_12 
ROOT
HETATM    1  N   UNL     1     -43.371 -51.492  12.760  1.00  0.00    -0.338 N 
HETATM    2  C   UNL     1     -42.776 -50.248  12.689  1.00  0.00     0.321 C 
HETATM    3  O   UNL     1     -43.001 -49.351  13.491  1.00  0.00    -0.247 OA
HETATM    4  N   UNL     1     -41.983 -50.134  11.565  1.00  0.00    -0.305 N 
HETATM    5  H   UNL     1     -42.805 -52.266  12.440  1.00  0.00     0.164 HD
HETATM    6  H   UNL     1     -42.346 -50.632  10.766  1.00  0.00     0.171 HD
ENDROOT
BRANCH   1   7
HETATM    7  C   UNL     1     -44.371 -51.760  13.787  1.00  0.00     0.089 C 
HETATM    8  C   UNL     1     -44.337 -53.211  14.321  1.00  0.00     0.004 C 
HETATM    9  C   UNL     1     -44.555 -54.269  13.233  1.00  0.00     0.012 C 
HETATM   10  C   UNL     1     -45.370 -53.360  15.452  1.00  0.00     0.006 C 
HETATM   11  C   UNL     1     -46.776 -52.935  15.031  1.00  0.00     0.001 C 
HETATM   12  C   UNL     1     -46.801 -51.534  14.424  1.00  0.00     0.002 C 
HETATM   13  C   UNL     1     -45.771 -51.359  13.308  1.00  0.00     0.026 C 
ENDBRANCH   1   7
BRANCH   4  14
HETATM   14  C   UNL     1     -41.297 -48.955  11.301  1.00  0.00     0.092 A 
HETATM   15  C   UNL     1     -39.987 -48.536  11.672  1.00  0.00     0.058 A 
HETATM   16  C   UNL     1     -38.917 -49.268  12.389  1.00  0.00     0.072 C 
HETATM   17  N   UNL     1     -39.727 -47.304  11.203  1.00  0.00    -0.263 N 
HETATM   18  O   UNL     1     -40.866 -46.903  10.538  1.00  0.00    -0.240 OA
ATOM     19  HN  UNL     1     -38.864 -46.773  11.316  1.00  0.00     0.194 HD
HETATM   20  C   UNL     1     -41.798 -47.891  10.587  1.00  0.00     0.101 A 
HETATM   21  C   UNL     1     -43.102 -47.576   9.976  1.00  0.00     0.081 C 
ENDBRANCH   4  14
TORSDOF 2
ENDMDL
MODEL 4
REMARK VINA RESULT:      -6.2      1.657      2.731
REMARK  2 active torsions:
REMARK  status: ('A' for Active; 'I' for Inactive)
REMARK    1  A    between atoms: C_7  and  N_8 
REMARK       I    between atoms: N_8  and  C_9 
REMARK       I    between atoms: C_9  and  N_11 
REMARK    2  A    between atoms: N_11  and  C_12 
ROOT
HETATM    1  N   UNL     1     -42.298 -51.812  11.975  1.00  0.00    -0.338 N 
HETATM    2  C   UNL     1     -41.996 -50.483  12.191  1.00  0.00     0.321 C 
HETATM    3  O   UNL     1     -42.229 -49.906  13.247  1.00  0.00    -0.247 OA
HETATM    4  N   UNL     1     -41.491 -49.890  11.053  1.00  0.00    -0.305 N 
HETATM    5  H   UNL     1     -41.665 -52.310  11.365  1.00  0.00     0.164 HD
HETATM    6  H   UNL     1     -41.901 -50.244  10.201  1.00  0.00     0.171 HD
ENDROOT
BRANCH   1   7
HETATM    7  C   UNL     1     -42.990 -52.576  13.007  1.00  0.00     0.089 C 
HETATM    8  C   UNL     1     -42.038 -53.355  13.944  1.00  0.00     0.004 C 
HETATM    9  C   UNL     1     -41.139 -54.356  13.210  1.00  0.00     0.012 C 
HETATM   10  C   UNL     1     -42.864 -54.054  15.039  1.00  0.00     0.006 C 
HETATM   11  C   UNL     1     -43.969 -54.944  14.471  1.00  0.00     0.001 C 
HETATM   12  C   UNL     1     -44.860 -54.201  13.480  1.00  0.00     0.002 C 
HETATM   13  C   UNL     1     -44.059 -53.487  12.391  1.00  0.00     0.026 C 
ENDBRANCH   1   7
BRANCH   4  14
HETATM   14  C   UNL     1     -41.128 -48.549  11.055  1.00  0.00     0.092 A 
HETATM   15  C   UNL     1     -40.043 -47.878  11.688  1.00  0.00     0.058 A 
HETATM   16  C   UNL     1     -38.914 -48.421  12.478  1.00  0.00     0.072 C 
HETATM   17  N   UNL     1     -40.075 -46.560  11.425  1.00  0.00    -0.263 N 
HETATM   18  O   UNL     1     -41.185 -46.358  10.634  1.00  0.00    -0.240 OA
ATOM     19  HN  UNL     1     -39.413 -45.854  11.746  1.00  0.00     0.194 HD
HETATM   20  C   UNL     1     -41.806 -47.545  10.404  1.00  0.00     0.101 A 
HETATM   21  C   UNL     1     -43.058 -47.475   9.626  1.00  0.00     0.081 C 
ENDBRANCH   4  14
TORSDOF 2
ENDMDL
MODEL 5
REMARK VINA RESULT:      -5.8      2.054      6.671
REMARK  2 active torsions:
REMARK  status: ('A' for Active; 'I' for Inactive)
REMARK    1  A    between atoms: C_7  and  N_8 
REMARK       I    between atoms: N_8  and  C_9 
REMARK       I    between atoms: C_9  and  N_11 
REMARK    2  A    between atoms: N_11  and  C_12 
ROOT
HETATM    1  N   UNL     1     -42.064 -50.538  11.918  1.00  0.00    -0.338 N 
HETATM    2  C   UNL     1     -43.061 -51.055  12.721  1.00  0.00     0.321 C 
HETATM    3  O   UNL     1     -43.471 -50.490  13.727  1.00  0.00    -0.247 OA
HETATM    4  N   UNL     1     -43.454 -52.306  12.291  1.00  0.00    -0.305 N 
HETATM    5  H   UNL     1     -42.142 -50.750  10.933  1.00  0.00     0.164 HD
HETATM    6  H   UNL     1     -42.699 -52.854  11.907  1.00  0.00     0.171 HD
ENDROOT
BRANCH   1   7
HETATM    7  C   UNL     1     -41.400 -49.295  12.295  1.00  0.00     0.089 C 
HETATM    8  C   UNL     1     -42.068 -48.032  11.702  1.00  0.00     0.004 C 
HETATM    9  C   UNL     1     -42.127 -48.032  10.170  1.00  0.00     0.012 C 
HETATM   10  C   UNL     1     -41.341 -46.781  12.228  1.00  0.00     0.006 C 
HETATM   11  C   UNL     1     -39.837 -46.814  11.965  1.00  0.00     0.001 C 
HETATM   12  C   UNL     1     -39.187 -48.098  12.473  1.00  0.00     0.002 C 
HETATM   13  C   UNL     1     -39.902 -49.355  11.975  1.00  0.00     0.026 C 
ENDBRANCH   1   7
BRANCH   4  14
HETATM   14  C   UNL     1     -44.446 -53.006  12.968  1.00  0.00     0.092 A 
HETATM   15  C   UNL     1     -45.862 -52.861  12.957  1.00  0.00     0.058 A 
HETATM   16  C   UNL     1     -46.724 -51.964  12.152  1.00  0.00     0.072 C 
HETATM   17  N   UNL     1     -46.443 -53.756  13.774  1.00  0.00    -0.263 N 
HETATM   18  O   UNL     1     -45.414 -54.481  14.335  1.00  0.00    -0.240 OA
ATOM     19  HN  UNL     1     -47.441 -53.875  13.944  1.00  0.00     0.194 HD
HETATM   20  C   UNL     1     -44.224 -54.041  13.846  1.00  0.00     0.101 A 
HETATM   21  C   UNL     1     -43.021 -54.679  14.413  1.00  0.00     0.081 C 
ENDBRANCH   4  14
TORSDOF 2
ENDMDL
MODEL 6
REMARK VINA RESULT:      -5.6      2.612      4.046
REMARK  2 active torsions:
REMARK  status: ('A' for Active; 'I' for Inactive)
REMARK    1  A    between atoms: C_7  and  N_8 
REMARK       I    between atoms: N_8  and  C_9 
REMARK       I    between atoms: C_9  and  N_11 
REMARK    2  A    between atoms: N_11  and  C_12 
ROOT
HETATM    1  N   UNL     1     -42.524 -50.510  12.095  1.00  0.00    -0.338 N 
HETATM    2  C   UNL     1     -42.148 -49.271  11.616  1.00  0.00     0.321 C 
HETATM    3  O   UNL     1     -40.981 -48.901  11.558  1.00  0.00    -0.247 OA
HETATM    4  N   UNL     1     -43.247 -48.498  11.304  1.00  0.00    -0.305 N 
HETATM    5  H   UNL     1     -43.342 -50.916  11.661  1.00  0.00     0.164 HD
HETATM    6  H   UNL     1     -44.032 -48.649  11.921  1.00  0.00     0.171 HD
ENDROOT
BRANCH   1   7
HETATM    7  C   UNL     1     -41.516 -51.419  12.629  1.00  0.00     0.089 C 
HETATM    8  C   UNL     1     -41.830 -52.912  12.372  1.00  0.00     0.004 C 
HETATM    9  C   UNL     1     -43.167 -53.367  12.968  1.00  0.00     0.012 C 
HETATM   10  C   UNL     1     -40.667 -53.772  12.900  1.00  0.00     0.006 C 
HETATM   11  C   UNL     1     -40.343 -53.495  14.367  1.00  0.00     0.001 C 
HETATM   12  C   UNL     1     -40.116 -52.011  14.641  1.00  0.00     0.002 C 
HETATM   13  C   UNL     1     -41.252 -51.136  14.112  1.00  0.00     0.026 C 
ENDBRANCH   1   7
BRANCH   4  14
HETATM   14  C   UNL     1     -43.087 -47.208  10.810  1.00  0.00     0.092 A 
HETATM   15  C   UNL     1     -42.799 -45.985  11.478  1.00  0.00     0.058 A 
HETATM   16  C   UNL     1     -42.498 -45.722  12.905  1.00  0.00     0.072 C 
HETATM   17  N   UNL     1     -42.736 -44.965  10.604  1.00  0.00    -0.263 N 
HETATM   18  O   UNL     1     -42.996 -45.510   9.366  1.00  0.00    -0.240 OA
ATOM     19  HN  UNL     1     -42.536 -43.988  10.815  1.00  0.00     0.194 HD
HETATM   20  C   UNL     1     -43.196 -46.849   9.487  1.00  0.00     0.101 A 
HETATM   21  C   UNL     1     -43.557 -47.560   8.247  1.00  0.00     0.081 C 
ENDBRANCH   4  14
TORSDOF 2
ENDMDL
MODEL 7
REMARK VINA RESULT:      -5.6      2.364      6.736
REMARK  2 active torsions:
REMARK  status: ('A' for Active; 'I' for Inactive)
REMARK    1  A    between atoms: C_7  and  N_8 
REMARK       I    between atoms: N_8  and  C_9 
REMARK       I    between atoms: C_9  and  N_11 
REMARK    2  A    between atoms: N_11  and  C_12 
ROOT
HETATM    1  N   UNL     1     -41.923 -49.727  11.423  1.00  0.00    -0.338 N 
HETATM    2  C   UNL     1     -42.253 -50.618  12.425  1.00  0.00     0.321 C 
HETATM    3  O   UNL     1     -42.431 -50.280  13.589  1.00  0.00    -0.247 OA
HETATM    4  N   UNL     1     -42.264 -51.916  11.959  1.00  0.00    -0.305 N 
HETATM    5  H   UNL     1     -42.283 -49.949  10.505  1.00  0.00     0.164 HD
HETATM    6  H   UNL     1     -41.565 -52.096  11.254  1.00  0.00     0.171 HD
ENDROOT
BRANCH   1   7
HETATM    7  C   UNL     1     -41.701 -48.322  11.744  1.00  0.00     0.089 C 
HETATM    8  C   UNL     1     -42.770 -47.375  11.149  1.00  0.00     0.004 C 
HETATM    9  C   UNL     1     -42.870 -47.447   9.621  1.00  0.00     0.012 C 
HETATM   10  C   UNL     1     -42.489 -45.936  11.617  1.00  0.00     0.006 C 
HETATM   11  C   UNL     1     -41.068 -45.475  11.297  1.00  0.00     0.001 C 
HETATM   12  C   UNL     1     -40.012 -46.450  11.809  1.00  0.00     0.002 C 
HETATM   13  C   UNL     1     -40.280 -47.890  11.368  1.00  0.00     0.026 C 
ENDBRANCH   1   7
BRANCH   4  14
HETATM   14  C   UNL     1     -42.567 -52.971  12.813  1.00  0.00     0.092 A 
HETATM   15  C   UNL     1     -41.720 -53.833  13.565  1.00  0.00     0.058 A 
HETATM   16  C   UNL     1     -40.248 -53.819  13.732  1.00  0.00     0.072 C 
HETATM   17  N   UNL     1     -42.442 -54.728  14.260  1.00  0.00    -0.263 N 
HETATM   18  O   UNL     1     -43.762 -54.468  13.957  1.00  0.00    -0.240 OA
ATOM     19  HN  UNL     1     -42.087 -55.452  14.884  1.00  0.00     0.194 HD
HETATM   20  C   UNL     1     -43.836 -53.414  13.103  1.00  0.00     0.101 A 
HETATM   21  C   UNL     1     -45.189 -53.063  12.631  1.00  0.00     0.081 C 
ENDBRANCH   4  14
TORSDOF 2
ENDMDL
MODEL 8
REMARK VINA RESULT:      -5.5      3.070      6.723
REMARK  2 active torsions:
REMARK  status: ('A' for Active; 'I' for Inactive)
REMARK    1  A    between atoms: C_7  and  N_8 
REMARK       I    between atoms: N_8  and  C_9 
REMARK       I    between atoms: C_9  and  N_11 
REMARK    2  A    between atoms: N_11  and  C_12 
ROOT
HETATM    1  N   UNL     1     -40.455 -47.803  10.961  1.00  0.00    -0.338 N 
HETATM    2  C   UNL     1     -40.365 -48.783  11.928  1.00  0.00     0.321 C 
HETATM    3  O   UNL     1     -40.529 -48.564  13.122  1.00  0.00    -0.247 OA
HETATM    4  N   UNL     1     -39.987 -49.993  11.384  1.00  0.00    -0.305 N 
HETATM    5  H   UNL     1     -40.810 -48.105  10.064  1.00  0.00     0.164 HD
HETATM    6  H   UNL     1     -39.342 -49.901  10.612  1.00  0.00     0.171 HD
ENDROOT
BRANCH   1   7
HETATM    7  C   UNL     1     -40.688 -46.416  11.352  1.00  0.00     0.089 C 
HETATM    8  C   UNL     1     -42.181 -46.013  11.343  1.00  0.00     0.004 C 
HETATM    9  C   UNL     1     -42.853 -46.184   9.976  1.00  0.00     0.012 C 
HETATM   10  C   UNL     1     -42.317 -44.565  11.848  1.00  0.00     0.006 C 
HETATM   11  C   UNL     1     -41.449 -43.580  11.068  1.00  0.00     0.001 C 
HETATM   12  C   UNL     1     -39.989 -44.019  11.002  1.00  0.00     0.002 C 
HETATM   13  C   UNL     1     -39.831 -45.459  10.516  1.00  0.00     0.026 C 
ENDBRANCH   1   7
BRANCH   4  14
HETATM   14  C   UNL     1     -39.831 -51.114  12.191  1.00  0.00     0.092 A 
HETATM   15  C   UNL     1     -40.757 -52.129  12.564  1.00  0.00     0.058 A 
HETATM   16  C   UNL     1     -42.159 -52.347  12.138  1.00  0.00     0.072 C 
HETATM   17  N   UNL     1     -40.178 -53.032  13.373  1.00  0.00    -0.263 N 
HETATM   18  O   UNL     1     -38.878 -52.608  13.546  1.00  0.00    -0.240 OA
ATOM     19  HN  UNL     1     -40.612 -53.862  13.776  1.00  0.00     0.194 HD
HETATM   20  C   UNL     1     -38.668 -51.470  12.833  1.00  0.00     0.101 A 
HETATM   21  C   UNL     1     -37.335 -50.857  12.979  1.00  0.00     0.081 C 
ENDBRANCH   4  14
TORSDOF 2
ENDMDL
MODEL 9
REMARK VINA RESULT:      -5.4      1.881      2.604
REMARK  2 active torsions:
REMARK  status: ('A' for Active; 'I' for Inactive)
REMARK    1  A    between atoms: C_7  and  N_8 
REMARK       I    between atoms: N_8  and  C_9 
REMARK       I    between atoms: C_9  and  N_11 
REMARK    2  A    between atoms: N_11  and  C_12 
ROOT
HETATM    1  N   UNL     1     -43.435 -51.305  14.073  1.00  0.00    -0.338 N 
HETATM    2  C   UNL     1     -42.435 -51.312  13.122  1.00  0.00     0.321 C 
HETATM    3  O   UNL     1     -42.437 -52.061  12.153  1.00  0.00    -0.247 OA
HETATM    4  N   UNL     1     -41.417 -50.443  13.456  1.00  0.00    -0.305 N 
HETATM    5  H   UNL     1     -43.632 -50.407  14.493  1.00  0.00     0.164 HD
HETATM    6  H   UNL     1     -41.249 -50.385  14.450  1.00  0.00     0.171 HD
ENDROOT
BRANCH   1   7
HETATM    7  C   UNL     1     -44.525 -52.270  13.987  1.00  0.00     0.089 C 
HETATM    8  C   UNL     1     -45.889 -51.705  14.449  1.00  0.00     0.004 C 
HETATM    9  C   UNL     1     -45.885 -51.201  15.897  1.00  0.00     0.012 C 
HETATM   10  C   UNL     1     -46.977 -52.774  14.239  1.00  0.00     0.006 C 
HETATM   11  C   UNL     1     -46.644 -54.101  14.917  1.00  0.00     0.001 C 
HETATM   12  C   UNL     1     -45.262 -54.620  14.529  1.00  0.00     0.002 C 
HETATM   13  C   UNL     1     -44.167 -53.570  14.716  1.00  0.00     0.026 C 
ENDBRANCH   1   7
BRANCH   4  14
HETATM   14  C   UNL     1     -40.307 -50.303  12.631  1.00  0.00     0.092 A 
HETATM   15  C   UNL     1     -40.130 -49.570  11.424  1.00  0.00     0.058 A 
HETATM   16  C   UNL     1     -41.058 -48.659  10.714  1.00  0.00     0.072 C 
HETATM   17  N   UNL     1     -38.881 -49.720  10.950  1.00  0.00    -0.263 N 
HETATM   18  O   UNL     1     -38.239 -50.561  11.833  1.00  0.00    -0.240 OA
ATOM     19  HN  UNL     1     -38.489 -49.297  10.109  1.00  0.00     0.194 HD
HETATM   20  C   UNL     1     -39.086 -50.900  12.841  1.00  0.00     0.101 A 
HETATM   21  C   UNL     1     -38.557 -51.858  13.830  1.00  0.00     0.081 C 
ENDBRANCH   4  14
TORSDOF 2
ENDMDL
