MODEL 1
REMARK VINA RESULT:      -6.8      0.000      0.000
REMARK  3 active torsions:
REMARK  status: ('A' for Active; 'I' for Inactive)
REMARK       I    between atoms: N_10  and  C_11 
REMARK       I    between atoms: C_11  and  N_13 
REMARK    1  A    between atoms: N_13  and  C_14 
REMARK    2  A    between atoms: C_14  and  C_15 
REMARK    3  A    between atoms: C_15  and  C_16 
ROOT
HETATM    1  C   UNL     1     -46.219 -52.268  12.135  1.00  0.00     0.309 C 
HETATM    2  N   UNL     1     -45.667 -52.387  13.487  1.00  0.00     0.084 N 
HETATM    3  C   UNL     1     -45.310 -51.089  14.061  1.00  0.00     0.274 C 
HETATM    4  C   UNL     1     -44.100 -50.436  13.393  1.00  0.00     0.056 C 
HETATM    5  C   UNL     1     -42.875 -51.362  13.367  1.00  0.00     0.096 C 
HETATM    6  C   UNL     1     -43.268 -52.766  12.840  1.00  0.00     0.037 C 
HETATM    7  C   UNL     1     -42.105 -53.754  13.022  1.00  0.00     0.010 C 
HETATM    8  C   UNL     1     -40.852 -53.232  12.330  1.00  0.00     0.020 C 
HETATM    9  C   UNL     1     -40.502 -51.832  12.834  1.00  0.00     0.128 C 
HETATM   10  N   UNL     1     -41.628 -50.897  12.678  1.00  0.00    -0.329 N 
HETATM   11  C   UNL     1     -41.419 -49.863  11.775  1.00  0.00     0.318 C 
HETATM   12  O   UNL     1     -40.381 -49.750  11.126  1.00  0.00    -0.247 OA
HETATM   13  N   UNL     1     -42.420 -48.942  11.650  1.00  0.00    -0.343 N 
HETATM   14  C   UNL     1     -44.524 -53.302  13.541  1.00  0.00     0.278 C 
HETATM   15  H   UNL     1     -42.777 -48.672  12.549  1.00  0.00     0.164 HD
ENDROOT
BRANCH  13  16
HETATM   16  C   UNL     1     -42.300 -47.810  10.737  1.00  0.00     0.129 C 
BRANCH  16  17
HETATM   17  C   UNL     1     -43.603 -47.039  10.503  1.00  0.00     0.060 C 
BRANCH  17  18
HETATM   18  C   UNL     1     -44.404 -47.643   9.381  1.00  0.00    -0.041 A 
HETATM   19  C   UNL     1     -45.749 -47.975   9.550  1.00  0.00     0.010 A 
HETATM   20  C   UNL     1     -46.453 -48.562   8.501  1.00  0.00     0.025 A 
HETATM   21  C   UNL     1     -45.791 -48.805   7.303  1.00  0.00     0.005 A 
HETATM   22  C   UNL     1     -46.495 -49.463   6.154  1.00  0.00     0.068 C 
HETATM   23  N   UNL     1     -44.486 -48.495   7.116  1.00  0.00    -0.369 N 
HETATM   24  C   UNL     1     -43.828 -47.921   8.149  1.00  0.00     0.095 A 
ATOM     25  HN  UNL     1     -44.017 -48.686   6.231  1.00  0.00     0.165 HD
ENDBRANCH  17  18
ENDBRANCH  16  17
ENDBRANCH  13  16
TORSDOF 3
ENDMDL
MODEL 2
REMARK VINA RESULT:      -6.5      3.991      6.457
REMARK  3 active torsions:
REMARK  status: ('A' for Active; 'I' for Inactive)
REMARK       I    between atoms: N_10  and  C_11 
REMARK       I    between atoms: C_11  and  N_13 
REMARK    1  A    between atoms: N_13  and  C_14 
REMARK    2  A    between atoms: C_14  and  C_15 
REMARK    3  A    between atoms: C_15  and  C_16 
ROOT
HETATM    1  C   UNL     1     -42.463 -51.048  12.769  1.00  0.00     0.309 C 
HETATM    2  N   UNL     1     -42.146 -52.320  12.117  1.00  0.00     0.084 N 
HETATM    3  C   UNL     1     -43.135 -53.359  12.407  1.00  0.00     0.274 C 
HETATM    4  C   UNL     1     -43.103 -53.848  13.856  1.00  0.00     0.056 C 
HETATM    5  C   UNL     1     -41.703 -54.310  14.287  1.00  0.00     0.096 C 
HETATM    6  C   UNL     1     -40.641 -53.249  13.903  1.00  0.00     0.037 C 
HETATM    7  C   UNL     1     -39.224 -53.801  14.127  1.00  0.00     0.010 C 
HETATM    8  C   UNL     1     -39.055 -54.258  15.571  1.00  0.00     0.020 C 
HETATM    9  C   UNL     1     -40.134 -55.275  15.943  1.00  0.00     0.128 C 
HETATM   10  N   UNL     1     -41.488 -54.748  15.703  1.00  0.00    -0.329 N 
HETATM   11  C   UNL     1     -42.261 -54.559  16.841  1.00  0.00     0.318 C 
HETATM   12  O   UNL     1     -41.838 -54.785  17.974  1.00  0.00    -0.247 OA
HETATM   13  N   UNL     1     -43.544 -54.129  16.651  1.00  0.00    -0.343 N 
HETATM   14  C   UNL     1     -40.798 -52.791  12.446  1.00  0.00     0.278 C 
HETATM   15  H   UNL     1     -43.985 -54.629  15.901  1.00  0.00     0.164 HD
ENDROOT
BRANCH  13  16
HETATM   16  C   UNL     1     -44.444 -53.908  17.778  1.00  0.00     0.129 C 
BRANCH  16  17
HETATM   17  C   UNL     1     -45.926 -53.824  17.402  1.00  0.00     0.060 C 
BRANCH  17  18
HETATM   18  C   UNL     1     -46.110 -53.237  16.028  1.00  0.00    -0.041 A 
HETATM   19  C   UNL     1     -45.940 -51.871  15.797  1.00  0.00     0.010 A 
HETATM   20  C   UNL     1     -46.150 -51.355  14.520  1.00  0.00     0.025 A 
HETATM   21  C   UNL     1     -46.527 -52.222  13.500  1.00  0.00     0.005 A 
HETATM   22  C   UNL     1     -46.796 -51.712  12.116  1.00  0.00     0.068 C 
HETATM   23  N   UNL     1     -46.702 -53.550  13.701  1.00  0.00    -0.369 N 
HETATM   24  C   UNL     1     -46.487 -54.025  14.949  1.00  0.00     0.095 A 
ATOM     25  HN  UNL     1     -46.985 -54.168  12.941  1.00  0.00     0.165 HD
ENDBRANCH  17  18
ENDBRANCH  16  17
ENDBRANCH  13  16
TORSDOF 3
ENDMDL
MODEL 3
REMARK VINA RESULT:      -6.4      3.229      6.061
REMARK  3 active torsions:
REMARK  status: ('A' for Active; 'I' for Inactive)
REMARK       I    between atoms: N_10  and  C_11 
REMARK       I    between atoms: C_11  and  N_13 
REMARK    1  A    between atoms: N_13  and  C_14 
REMARK    2  A    between atoms: C_14  and  C_15 
REMARK    3  A    between atoms: C_15  and  C_16 
ROOT
HETATM    1  C   UNL     1     -42.907 -47.350  14.538  1.00  0.00     0.309 C 
HETATM    2  N   UNL     1     -42.456 -46.906  13.217  1.00  0.00     0.084 N 
HETATM    3  C   UNL     1     -43.024 -47.709  12.133  1.00  0.00     0.274 C 
HETATM    4  C   UNL     1     -42.478 -49.136  12.077  1.00  0.00     0.056 C 
HETATM    5  C   UNL     1     -40.943 -49.173  12.020  1.00  0.00     0.096 C 
HETATM    6  C   UNL     1     -40.338 -48.256  13.112  1.00  0.00     0.037 C 
HETATM    7  C   UNL     1     -38.820 -48.115  12.916  1.00  0.00     0.010 C 
HETATM    8  C   UNL     1     -38.157 -49.487  12.914  1.00  0.00     0.020 C 
HETATM    9  C   UNL     1     -38.792 -50.390  11.857  1.00  0.00     0.128 C 
HETATM   10  N   UNL     1     -40.249 -50.501  12.037  1.00  0.00    -0.329 N 
HETATM   11  C   UNL     1     -40.709 -51.764  12.385  1.00  0.00     0.318 C 
HETATM   12  O   UNL     1     -39.955 -52.718  12.562  1.00  0.00    -0.247 OA
HETATM   13  N   UNL     1     -42.062 -51.917  12.500  1.00  0.00    -0.343 N 
HETATM   14  C   UNL     1     -40.995 -46.868  13.114  1.00  0.00     0.278 C 
HETATM   15  H   UNL     1     -42.543 -51.471  11.740  1.00  0.00     0.164 HD
ENDROOT
BRANCH  13  16
HETATM   16  C   UNL     1     -42.652 -53.205  12.852  1.00  0.00     0.129 C 
BRANCH  16  17
HETATM   17  C   UNL     1     -44.106 -53.383  12.404  1.00  0.00     0.060 C 
BRANCH  17  18
HETATM   18  C   UNL     1     -45.066 -52.851  13.435  1.00  0.00    -0.041 A 
HETATM   19  C   UNL     1     -45.935 -51.800  13.138  1.00  0.00     0.010 A 
HETATM   20  C   UNL     1     -46.788 -51.310  14.125  1.00  0.00     0.025 A 
HETATM   21  C   UNL     1     -46.750 -51.885  15.390  1.00  0.00     0.005 A 
HETATM   22  C   UNL     1     -47.626 -51.374  16.495  1.00  0.00     0.068 C 
HETATM   23  N   UNL     1     -45.914 -52.903  15.702  1.00  0.00    -0.369 N 
HETATM   24  C   UNL     1     -45.100 -53.363  14.725  1.00  0.00     0.095 A 
ATOM     25  HN  UNL     1     -45.898 -53.308  16.638  1.00  0.00     0.165 HD
ENDBRANCH  17  18
ENDBRANCH  16  17
ENDBRANCH  13  16
TORSDOF 3
ENDMDL
MODEL 4
REMARK VINA RESULT:      -6.3      4.635      6.957
REMARK  3 active torsions:
REMARK  status: ('A' for Active; 'I' for Inactive)
REMARK       I    between atoms: N_10  and  C_11 
REMARK       I    between atoms: C_11  and  N_13 
REMARK    1  A    between atoms: N_13  and  C_14 
REMARK    2  A    between atoms: C_14  and  C_15 
REMARK    3  A    between atoms: C_15  and  C_16 
ROOT
HETATM    1  C   UNL     1     -40.592 -50.688  13.634  1.00  0.00     0.309 C 
HETATM    2  N   UNL     1     -40.007 -51.939  13.147  1.00  0.00     0.084 N 
HETATM    3  C   UNL     1     -40.831 -52.581  12.123  1.00  0.00     0.274 C 
HETATM    4  C   UNL     1     -42.142 -53.155  12.662  1.00  0.00     0.056 C 
HETATM    5  C   UNL     1     -41.919 -54.111  13.843  1.00  0.00     0.096 C 
HETATM    6  C   UNL     1     -40.976 -53.468  14.891  1.00  0.00     0.037 C 
HETATM    7  C   UNL     1     -40.573 -54.499  15.957  1.00  0.00     0.010 C 
HETATM    8  C   UNL     1     -41.813 -55.091  16.617  1.00  0.00     0.020 C 
HETATM    9  C   UNL     1     -42.750 -55.686  15.566  1.00  0.00     0.128 C 
HETATM   10  N   UNL     1     -43.111 -54.700  14.535  1.00  0.00    -0.329 N 
HETATM   11  C   UNL     1     -44.451 -54.335  14.508  1.00  0.00     0.318 C 
HETATM   12  O   UNL     1     -45.274 -54.777  15.306  1.00  0.00    -0.247 OA
HETATM   13  N   UNL     1     -44.834 -53.467  13.524  1.00  0.00    -0.343 N 
HETATM   14  C   UNL     1     -39.719 -52.878  14.234  1.00  0.00     0.278 C 
HETATM   15  H   UNL     1     -44.433 -53.722  12.640  1.00  0.00     0.164 HD
ENDROOT
BRANCH  13  16
HETATM   16  C   UNL     1     -46.220 -53.026  13.400  1.00  0.00     0.129 C 
BRANCH  16  17
HETATM   17  C   UNL     1     -46.446 -51.543  13.710  1.00  0.00     0.060 C 
BRANCH  17  18
HETATM   18  C   UNL     1     -46.444 -51.287  15.194  1.00  0.00    -0.041 A 
HETATM   19  C   UNL     1     -47.583 -51.519  15.968  1.00  0.00     0.010 A 
HETATM   20  C   UNL     1     -47.557 -51.241  17.333  1.00  0.00     0.025 A 
HETATM   21  C   UNL     1     -46.389 -50.735  17.893  1.00  0.00     0.005 A 
HETATM   22  C   UNL     1     -46.321 -50.390  19.351  1.00  0.00     0.068 C 
HETATM   23  N   UNL     1     -45.275 -50.499  17.161  1.00  0.00    -0.369 N 
HETATM   24  C   UNL     1     -45.324 -50.782  15.840  1.00  0.00     0.095 A 
ATOM     25  HN  UNL     1     -44.429 -50.122  17.590  1.00  0.00     0.165 HD
ENDBRANCH  17  18
ENDBRANCH  16  17
ENDBRANCH  13  16
TORSDOF 3
ENDMDL
MODEL 5
REMARK VINA RESULT:      -6.2      2.514      4.773
REMARK  3 active torsions:
REMARK  status: ('A' for Active; 'I' for Inactive)
REMARK       I    between atoms: N_10  and  C_11 
REMARK       I    between atoms: C_11  and  N_13 
REMARK    1  A    between atoms: N_13  and  C_14 
REMARK    2  A    between atoms: C_14  and  C_15 
REMARK    3  A    between atoms: C_15  and  C_16 
ROOT
HETATM    1  C   UNL     1     -44.459 -49.289  17.389  1.00  0.00     0.309 C 
HETATM    2  N   UNL     1     -45.165 -50.546  17.646  1.00  0.00     0.084 N 
HETATM    3  C   UNL     1     -44.256 -51.688  17.743  1.00  0.00     0.274 C 
HETATM    4  C   UNL     1     -43.612 -52.074  16.410  1.00  0.00     0.056 C 
HETATM    5  C   UNL     1     -44.652 -52.313  15.306  1.00  0.00     0.096 C 
HETATM    6  C   UNL     1     -45.669 -51.145  15.257  1.00  0.00     0.037 C 
HETATM    7  C   UNL     1     -46.834 -51.484  14.314  1.00  0.00     0.010 C 
HETATM    8  C   UNL     1     -46.308 -51.820  12.923  1.00  0.00     0.020 C 
HETATM    9  C   UNL     1     -45.278 -52.947  12.995  1.00  0.00     0.128 C 
HETATM   10  N   UNL     1     -44.179 -52.625  13.919  1.00  0.00    -0.329 N 
HETATM   11  C   UNL     1     -42.933 -52.469  13.326  1.00  0.00     0.318 C 
HETATM   12  O   UNL     1     -42.760 -52.562  12.113  1.00  0.00    -0.247 OA
HETATM   13  N   UNL     1     -41.878 -52.230  14.161  1.00  0.00    -0.343 N 
HETATM   14  C   UNL     1     -46.211 -50.808  16.654  1.00  0.00     0.278 C 
HETATM   15  H   UNL     1     -41.908 -52.833  14.964  1.00  0.00     0.164 HD
ENDROOT
BRANCH  13  16
HETATM   16  C   UNL     1     -40.524 -52.061  13.644  1.00  0.00     0.129 C 
BRANCH  16  17
HETATM   17  C   UNL     1     -40.012 -50.617  13.662  1.00  0.00     0.060 C 
BRANCH  17  18
HETATM   18  C   UNL     1     -40.724 -49.770  12.641  1.00  0.00    -0.041 A 
HETATM   19  C   UNL     1     -41.727 -48.875  13.017  1.00  0.00     0.010 A 
HETATM   20  C   UNL     1     -42.389 -48.130  12.043  1.00  0.00     0.025 A 
HETATM   21  C   UNL     1     -42.029 -48.300  10.710  1.00  0.00     0.005 A 
HETATM   22  C   UNL     1     -42.732 -47.545   9.622  1.00  0.00     0.068 C 
HETATM   23  N   UNL     1     -41.062 -49.164  10.321  1.00  0.00    -0.369 N 
HETATM   24  C   UNL     1     -40.433 -49.871  11.287  1.00  0.00     0.095 A 
ATOM     25  HN  UNL     1     -40.817 -49.277   9.338  1.00  0.00     0.165 HD
ENDBRANCH  17  18
ENDBRANCH  16  17
ENDBRANCH  13  16
TORSDOF 3
ENDMDL
MODEL 6
REMARK VINA RESULT:      -6.1      4.119      6.625
REMARK  3 active torsions:
REMARK  status: ('A' for Active; 'I' for Inactive)
REMARK       I    between atoms: N_10  and  C_11 
REMARK       I    between atoms: C_11  and  N_13 
REMARK    1  A    between atoms: N_13  and  C_14 
REMARK    2  A    between atoms: C_14  and  C_15 
REMARK    3  A    between atoms: C_15  and  C_16 
ROOT
HETATM    1  C   UNL     1     -45.146 -51.286  18.144  1.00  0.00     0.309 C 
HETATM    2  N   UNL     1     -46.225 -52.206  17.779  1.00  0.00     0.084 N 
HETATM    3  C   UNL     1     -45.749 -53.575  17.575  1.00  0.00     0.274 C 
HETATM    4  C   UNL     1     -44.891 -53.744  16.321  1.00  0.00     0.056 C 
HETATM    5  C   UNL     1     -45.596 -53.232  15.056  1.00  0.00     0.096 C 
HETATM    6  C   UNL     1     -46.178 -51.816  15.296  1.00  0.00     0.037 C 
HETATM    7  C   UNL     1     -47.071 -51.394  14.119  1.00  0.00     0.010 C 
HETATM    8  C   UNL     1     -46.290 -51.459  12.811  1.00  0.00     0.020 C 
HETATM    9  C   UNL     1     -45.692 -52.851  12.610  1.00  0.00     0.128 C 
HETATM   10  N   UNL     1     -44.857 -53.258  13.752  1.00  0.00    -0.329 N 
HETATM   11  C   UNL     1     -43.504 -53.402  13.476  1.00  0.00     0.318 C 
HETATM   12  O   UNL     1     -43.027 -53.176  12.366  1.00  0.00    -0.247 OA
HETATM   13  N   UNL     1     -42.709 -53.837  14.499  1.00  0.00    -0.343 N 
HETATM   14  C   UNL     1     -46.975 -51.746  16.607  1.00  0.00     0.278 C 
HETATM   15  H   UNL     1     -43.138 -54.600  14.991  1.00  0.00     0.164 HD
ENDROOT
BRANCH  13  16
HETATM   16  C   UNL     1     -41.274 -54.031  14.314  1.00  0.00     0.129 C 
BRANCH  16  17
HETATM   17  C   UNL     1     -40.394 -53.025  15.062  1.00  0.00     0.060 C 
BRANCH  17  18
HETATM   18  C   UNL     1     -39.601 -52.174  14.106  1.00  0.00    -0.041 A 
HETATM   19  C   UNL     1     -38.392 -51.592  14.490  1.00  0.00     0.010 A 
HETATM   20  C   UNL     1     -37.699 -50.784  13.592  1.00  0.00     0.025 A 
HETATM   21  C   UNL     1     -38.234 -50.576  12.326  1.00  0.00     0.005 A 
HETATM   22  C   UNL     1     -37.544 -49.689  11.333  1.00  0.00     0.068 C 
HETATM   23  N   UNL     1     -39.407 -51.127  11.932  1.00  0.00    -0.369 N 
HETATM   24  C   UNL     1     -40.057 -51.911  12.821  1.00  0.00     0.095 A 
ATOM     25  HN  UNL     1     -39.786 -50.958  11.000  1.00  0.00     0.165 HD
ENDBRANCH  17  18
ENDBRANCH  16  17
ENDBRANCH  13  16
TORSDOF 3
ENDMDL
MODEL 7
REMARK VINA RESULT:      -6.1      3.741      6.621
REMARK  3 active torsions:
REMARK  status: ('A' for Active; 'I' for Inactive)
REMARK       I    between atoms: N_10  and  C_11 
REMARK       I    between atoms: C_11  and  N_13 
REMARK    1  A    between atoms: N_13  and  C_14 
REMARK    2  A    between atoms: C_14  and  C_15 
REMARK    3  A    between atoms: C_15  and  C_16 
ROOT
HETATM    1  C   UNL     1     -41.770 -48.645  15.204  1.00  0.00     0.309 C 
HETATM    2  N   UNL     1     -40.875 -48.728  14.047  1.00  0.00     0.084 N 
HETATM    3  C   UNL     1     -41.603 -48.781  12.779  1.00  0.00     0.274 C 
HETATM    4  C   UNL     1     -42.357 -50.093  12.560  1.00  0.00     0.056 C 
HETATM    5  C   UNL     1     -41.447 -51.322  12.703  1.00  0.00     0.096 C 
HETATM    6  C   UNL     1     -40.609 -51.227  14.004  1.00  0.00     0.037 C 
HETATM    7  C   UNL     1     -39.543 -52.333  14.039  1.00  0.00     0.010 C 
HETATM    8  C   UNL     1     -40.195 -53.703  13.897  1.00  0.00     0.020 C 
HETATM    9  C   UNL     1     -41.047 -53.766  12.630  1.00  0.00     0.128 C 
HETATM   10  N   UNL     1     -42.050 -52.689  12.592  1.00  0.00    -0.329 N 
HETATM   11  C   UNL     1     -43.372 -53.108  12.661  1.00  0.00     0.318 C 
HETATM   12  O   UNL     1     -43.687 -54.291  12.777  1.00  0.00    -0.247 OA
HETATM   13  N   UNL     1     -44.332 -52.140  12.567  1.00  0.00    -0.343 N 
HETATM   14  C   UNL     1     -39.941 -49.852  14.148  1.00  0.00     0.278 C 
HETATM   15  H   UNL     1     -44.118 -51.488  11.834  1.00  0.00     0.164 HD
ENDROOT
BRANCH  13  16
HETATM   16  C   UNL     1     -45.752 -52.472  12.619  1.00  0.00     0.129 C 
BRANCH  16  17
HETATM   17  C   UNL     1     -46.592 -51.543  13.500  1.00  0.00     0.060 C 
BRANCH  17  18
HETATM   18  C   UNL     1     -46.592 -52.000  14.934  1.00  0.00    -0.041 A 
HETATM   19  C   UNL     1     -47.128 -51.202  15.947  1.00  0.00     0.010 A 
HETATM   20  C   UNL     1     -47.083 -51.641  17.268  1.00  0.00     0.025 A 
HETATM   21  C   UNL     1     -46.499 -52.872  17.547  1.00  0.00     0.005 A 
HETATM   22  C   UNL     1     -46.397 -53.375  18.956  1.00  0.00     0.068 C 
HETATM   23  N   UNL     1     -45.969 -53.661  16.582  1.00  0.00    -0.369 N 
HETATM   24  C   UNL     1     -46.031 -53.214  15.308  1.00  0.00     0.095 A 
ATOM     25  HN  UNL     1     -45.540 -54.558  16.808  1.00  0.00     0.165 HD
ENDBRANCH  17  18
ENDBRANCH  16  17
ENDBRANCH  13  16
TORSDOF 3
ENDMDL
MODEL 8
REMARK VINA RESULT:      -6.1      2.674      3.677
REMARK  3 active torsions:
REMARK  status: ('A' for Active; 'I' for Inactive)
REMARK       I    between atoms: N_10  and  C_11 
REMARK       I    between atoms: C_11  and  N_13 
REMARK    1  A    between atoms: N_13  and  C_14 
REMARK    2  A    between atoms: C_14  and  C_15 
REMARK    3  A    between atoms: C_15  and  C_16 
ROOT
HETATM    1  C   UNL     1     -46.127 -52.470  12.484  1.00  0.00     0.309 C 
HETATM    2  N   UNL     1     -45.585 -52.494  13.845  1.00  0.00     0.084 N 
HETATM    3  C   UNL     1     -45.130 -51.177  14.290  1.00  0.00     0.274 C 
HETATM    4  C   UNL     1     -43.874 -50.686  13.569  1.00  0.00     0.056 C 
HETATM    5  C   UNL     1     -42.723 -51.700  13.645  1.00  0.00     0.096 C 
HETATM    6  C   UNL     1     -43.221 -53.115  13.257  1.00  0.00     0.037 C 
HETATM    7  C   UNL     1     -42.137 -54.166  13.545  1.00  0.00     0.010 C 
HETATM    8  C   UNL     1     -40.848 -53.812  12.813  1.00  0.00     0.020 C 
HETATM    9  C   UNL     1     -40.393 -52.399  13.178  1.00  0.00     0.128 C 
HETATM   10  N   UNL     1     -41.444 -51.402  12.922  1.00  0.00    -0.329 N 
HETATM   11  C   UNL     1     -41.158 -50.482  11.922  1.00  0.00     0.318 C 
HETATM   12  O   UNL     1     -40.115 -50.512  11.273  1.00  0.00    -0.247 OA
HETATM   13  N   UNL     1     -42.086 -49.504  11.699  1.00  0.00    -0.343 N 
HETATM   14  C   UNL     1     -44.515 -53.483  13.998  1.00  0.00     0.278 C 
HETATM   15  H   UNL     1     -42.422 -49.120  12.564  1.00  0.00     0.164 HD
ENDROOT
BRANCH  13  16
HETATM   16  C   UNL     1     -41.881 -48.481  10.679  1.00  0.00     0.129 C 
BRANCH  16  17
HETATM   17  C   UNL     1     -40.808 -47.444  11.024  1.00  0.00     0.060 C 
BRANCH  17  18
HETATM   18  C   UNL     1     -41.377 -46.051  11.037  1.00  0.00    -0.041 A 
HETATM   19  C   UNL     1     -40.612 -44.961  11.458  1.00  0.00     0.010 A 
HETATM   20  C   UNL     1     -41.179 -43.689  11.488  1.00  0.00     0.025 A 
HETATM   21  C   UNL     1     -42.504 -43.537  11.096  1.00  0.00     0.005 A 
HETATM   22  C   UNL     1     -43.170 -42.194  11.140  1.00  0.00     0.068 C 
HETATM   23  N   UNL     1     -43.267 -44.578  10.688  1.00  0.00    -0.369 N 
HETATM   24  C   UNL     1     -42.690 -45.801  10.663  1.00  0.00     0.095 A 
ATOM     25  HN  UNL     1     -44.239 -44.446  10.409  1.00  0.00     0.165 HD
ENDBRANCH  17  18
ENDBRANCH  16  17
ENDBRANCH  13  16
TORSDOF 3
ENDMDL
MODEL 9
REMARK VINA RESULT:      -6.0      3.652      5.956
REMARK  3 active torsions:
REMARK  status: ('A' for Active; 'I' for Inactive)
REMARK       I    between atoms: N_10  and  C_11 
REMARK       I    between atoms: C_11  and  N_13 
REMARK    1  A    between atoms: N_13  and  C_14 
REMARK    2  A    between atoms: C_14  and  C_15 
REMARK    3  A    between atoms: C_15  and  C_16 
ROOT
HETATM    1  C   UNL     1     -43.120 -48.715  15.444  1.00  0.00     0.309 C 
HETATM    2  N   UNL     1     -42.910 -48.024  14.170  1.00  0.00     0.084 N 
HETATM    3  C   UNL     1     -43.077 -48.911  13.018  1.00  0.00     0.274 C 
HETATM    4  C   UNL     1     -41.967 -49.953  12.880  1.00  0.00     0.056 C 
HETATM    5  C   UNL     1     -40.568 -49.318  12.865  1.00  0.00     0.096 C 
HETATM    6  C   UNL     1     -40.417 -48.313  14.034  1.00  0.00     0.037 C 
HETATM    7  C   UNL     1     -39.111 -47.515  13.893  1.00  0.00     0.010 C 
HETATM    8  C   UNL     1     -37.918 -48.461  13.816  1.00  0.00     0.020 C 
HETATM    9  C   UNL     1     -38.103 -49.469  12.682  1.00  0.00     0.128 C 
HETATM   10  N   UNL     1     -39.367 -50.212  12.811  1.00  0.00    -0.329 N 
HETATM   11  C   UNL     1     -39.233 -51.572  13.059  1.00  0.00     0.318 C 
HETATM   12  O   UNL     1     -38.139 -52.116  13.193  1.00  0.00    -0.247 OA
HETATM   13  N   UNL     1     -40.385 -52.303  13.124  1.00  0.00    -0.343 N 
HETATM   14  C   UNL     1     -41.610 -47.350  14.111  1.00  0.00     0.278 C 
HETATM   15  H   UNL     1     -41.014 -52.054  12.383  1.00  0.00     0.164 HD
ENDROOT
BRANCH  13  16
HETATM   16  C   UNL     1     -40.357 -53.742  13.370  1.00  0.00     0.129 C 
BRANCH  16  17
HETATM   17  C   UNL     1     -41.447 -54.246  14.321  1.00  0.00     0.060 C 
BRANCH  17  18
HETATM   18  C   UNL     1     -42.772 -53.591  14.033  1.00  0.00    -0.041 A 
HETATM   19  C   UNL     1     -43.437 -53.807  12.825  1.00  0.00     0.010 A 
HETATM   20  C   UNL     1     -44.646 -53.160  12.577  1.00  0.00     0.025 A 
HETATM   21  C   UNL     1     -45.161 -52.308  13.547  1.00  0.00     0.005 A 
HETATM   22  C   UNL     1     -46.442 -51.563  13.316  1.00  0.00     0.068 C 
HETATM   23  N   UNL     1     -44.532 -52.080  14.725  1.00  0.00    -0.369 N 
HETATM   24  C   UNL     1     -43.364 -52.725  14.942  1.00  0.00     0.095 A 
ATOM     25  HN  UNL     1     -44.925 -51.447  15.421  1.00  0.00     0.165 HD
ENDBRANCH  17  18
ENDBRANCH  16  17
ENDBRANCH  13  16
TORSDOF 3
ENDMDL
