MODEL 1
REMARK VINA RESULT:      -5.8      0.000      0.000
REMARK  4 active torsions:
REMARK  status: ('A' for Active; 'I' for Inactive)
REMARK    1  A    between atoms: O_2  and  C_3 
REMARK    2  A    between atoms: C_6  and  N_7 
REMARK       I    between atoms: N_7  and  C_8 
REMARK       I    between atoms: C_8  and  N_10 
REMARK    3  A    between atoms: N_10  and  C_11 
REMARK    4  A    between atoms: C_11  and  C_12 
ROOT
HETATM    1  N   UNL     1     -40.919 -49.217  10.417  1.00  0.00    -0.308 N 
HETATM    2  C   UNL     1     -41.942 -48.317  10.614  1.00  0.00     0.320 C 
HETATM    3  O   UNL     1     -42.477 -48.071  11.687  1.00  0.00    -0.247 OA
HETATM    4  N   UNL     1     -42.304 -47.658   9.465  1.00  0.00    -0.340 N 
HETATM    5  H   UNL     1     -40.397 -49.121   9.558  1.00  0.00     0.170 HD
HETATM    6  H   UNL     1     -42.059 -48.030   8.558  1.00  0.00     0.164 HD
ENDROOT
BRANCH   1   7
HETATM    7  C   UNL     1     -40.386 -50.067  11.418  1.00  0.00     0.051 A 
HETATM    8  C   UNL     1     -41.044 -51.206  11.884  1.00  0.00     0.035 A 
HETATM    9  C   UNL     1     -40.469 -51.988  12.881  1.00  0.00     0.058 A 
HETATM   10  C   UNL     1     -39.232 -51.618  13.376  1.00  0.00     0.141 A 
HETATM   11  N   UNL     1     -38.549 -50.533  12.950  1.00  0.00    -0.345 N 
HETATM   12  C   UNL     1     -39.142 -49.789  11.982  1.00  0.00     0.119 A 
ATOM     13  HN  UNL     1     -37.637 -50.287  13.334  1.00  0.00     0.167 HD
BRANCH  10  14
HETATM   14  O   UNL     1     -38.709 -52.439  14.355  1.00  0.00    -0.341 OA
HETATM   15  C   UNL     1     -39.140 -53.788  14.239  1.00  0.00     0.211 C 
ENDBRANCH  10  14
ENDBRANCH   1   7
BRANCH   4  16
HETATM   16  C   UNL     1     -43.343 -46.636   9.506  1.00  0.00     0.156 C 
BRANCH  16  17
HETATM   17  C   UNL     1     -44.593 -46.990   8.701  1.00  0.00     0.139 C 
HETATM   18  C   UNL     1     -45.833 -47.366   9.499  1.00  0.00     0.035 C 
HETATM   19  C   UNL     1     -46.522 -48.416   8.646  1.00  0.00     0.029 C 
HETATM   20  C   UNL     1     -45.621 -48.592   7.441  1.00  0.00     0.168 C 
HETATM   21  O   UNL     1     -44.334 -48.118   7.847  1.00  0.00    -0.384 OA
ENDBRANCH  16  17
ENDBRANCH   4  16
TORSDOF 4
ENDMDL
MODEL 2
REMARK VINA RESULT:      -5.7      1.646      2.302
REMARK  4 active torsions:
REMARK  status: ('A' for Active; 'I' for Inactive)
REMARK    1  A    between atoms: O_2  and  C_3 
REMARK    2  A    between atoms: C_6  and  N_7 
REMARK       I    between atoms: N_7  and  C_8 
REMARK       I    between atoms: C_8  and  N_10 
REMARK    3  A    between atoms: N_10  and  C_11 
REMARK    4  A    between atoms: C_11  and  C_12 
ROOT
HETATM    1  N   UNL     1     -40.548 -50.550  11.207  1.00  0.00    -0.308 N 
HETATM    2  C   UNL     1     -41.330 -49.429  11.368  1.00  0.00     0.320 C 
HETATM    3  O   UNL     1     -41.963 -49.141  12.375  1.00  0.00    -0.247 OA
HETATM    4  N   UNL     1     -41.313 -48.601  10.273  1.00  0.00    -0.340 N 
HETATM    5  H   UNL     1     -39.879 -50.525  10.451  1.00  0.00     0.170 HD
HETATM    6  H   UNL     1     -41.017 -48.947   9.371  1.00  0.00     0.164 HD
ENDROOT
BRANCH   1   7
HETATM    7  C   UNL     1     -40.426 -51.594  12.158  1.00  0.00     0.051 A 
HETATM    8  C   UNL     1     -39.464 -51.597  13.169  1.00  0.00     0.035 A 
HETATM    9  C   UNL     1     -39.392 -52.663  14.062  1.00  0.00     0.058 A 
HETATM   10  C   UNL     1     -40.302 -53.695  13.930  1.00  0.00     0.141 A 
HETATM   11  N   UNL     1     -41.259 -53.732  12.977  1.00  0.00    -0.345 N 
HETATM   12  C   UNL     1     -41.297 -52.680  12.119  1.00  0.00     0.119 A 
ATOM     13  HN  UNL     1     -41.918 -54.507  12.906  1.00  0.00     0.167 HD
BRANCH  10  14
HETATM   14  O   UNL     1     -40.187 -54.717  14.851  1.00  0.00    -0.341 OA
HETATM   15  C   UNL     1     -38.845 -54.960  15.247  1.00  0.00     0.211 C 
ENDBRANCH  10  14
ENDBRANCH   1   7
BRANCH   4  16
HETATM   16  C   UNL     1     -42.054 -47.346  10.294  1.00  0.00     0.156 C 
BRANCH  16  17
HETATM   17  C   UNL     1     -43.318 -47.357   9.436  1.00  0.00     0.139 C 
HETATM   18  C   UNL     1     -43.760 -46.021   8.858  1.00  0.00     0.035 C 
HETATM   19  C   UNL     1     -45.276 -46.096   8.857  1.00  0.00     0.029 C 
HETATM   20  C   UNL     1     -45.599 -47.448   9.459  1.00  0.00     0.168 C 
HETATM   21  O   UNL     1     -44.440 -47.827  10.206  1.00  0.00    -0.384 OA
ENDBRANCH  16  17
ENDBRANCH   4  16
TORSDOF 4
ENDMDL
MODEL 3
REMARK VINA RESULT:      -5.6      4.009      6.524
REMARK  4 active torsions:
REMARK  status: ('A' for Active; 'I' for Inactive)
REMARK    1  A    between atoms: O_2  and  C_3 
REMARK    2  A    between atoms: C_6  and  N_7 
REMARK       I    between atoms: N_7  and  C_8 
REMARK       I    between atoms: C_8  and  N_10 
REMARK    3  A    between atoms: N_10  and  C_11 
REMARK    4  A    between atoms: C_11  and  C_12 
ROOT
HETATM    1  N   UNL     1     -41.818 -52.422  11.752  1.00  0.00    -0.308 N 
HETATM    2  C   UNL     1     -41.417 -51.132  12.020  1.00  0.00     0.320 C 
HETATM    3  O   UNL     1     -41.744 -50.474  12.999  1.00  0.00    -0.247 OA
HETATM    4  N   UNL     1     -40.553 -50.633  11.078  1.00  0.00    -0.340 N 
HETATM    5  H   UNL     1     -41.269 -52.929  11.073  1.00  0.00     0.170 HD
HETATM    6  H   UNL     1     -40.488 -51.055  10.162  1.00  0.00     0.164 HD
ENDROOT
BRANCH   1   7
HETATM    7  C   UNL     1     -42.745 -53.158  12.531  1.00  0.00     0.051 A 
HETATM    8  C   UNL     1     -42.365 -54.020  13.560  1.00  0.00     0.035 A 
HETATM    9  C   UNL     1     -43.330 -54.724  14.276  1.00  0.00     0.058 A 
HETATM   10  C   UNL     1     -44.660 -54.530  13.953  1.00  0.00     0.141 A 
HETATM   11  N   UNL     1     -45.080 -53.698  12.975  1.00  0.00    -0.345 N 
HETATM   12  C   UNL     1     -44.112 -53.034  12.292  1.00  0.00     0.119 A 
ATOM     13  HN  UNL     1     -46.069 -53.576  12.760  1.00  0.00     0.167 HD
BRANCH  10  14
HETATM   14  O   UNL     1     -45.569 -55.247  14.705  1.00  0.00    -0.341 OA
HETATM   15  C   UNL     1     -46.773 -54.534  14.950  1.00  0.00     0.211 C 
ENDBRANCH  10  14
ENDBRANCH   1   7
BRANCH   4  16
HETATM   16  C   UNL     1     -39.996 -49.294  11.234  1.00  0.00     0.156 C 
BRANCH  16  17
HETATM   17  C   UNL     1     -38.676 -49.256  12.002  1.00  0.00     0.139 C 
HETATM   18  C   UNL     1     -37.889 -50.557  12.069  1.00  0.00     0.035 C 
HETATM   19  C   UNL     1     -37.234 -50.528  13.438  1.00  0.00     0.029 C 
HETATM   20  C   UNL     1     -37.710 -49.237  14.071  1.00  0.00     0.168 C 
HETATM   21  O   UNL     1     -38.907 -48.881  13.373  1.00  0.00    -0.384 OA
ENDBRANCH  16  17
ENDBRANCH   4  16
TORSDOF 4
ENDMDL
MODEL 4
REMARK VINA RESULT:      -5.5      2.855      7.248
REMARK  4 active torsions:
REMARK  status: ('A' for Active; 'I' for Inactive)
REMARK    1  A    between atoms: O_2  and  C_3 
REMARK    2  A    between atoms: C_6  and  N_7 
REMARK       I    between atoms: N_7  and  C_8 
REMARK       I    between atoms: C_8  and  N_10 
REMARK    3  A    between atoms: N_10  and  C_11 
REMARK    4  A    between atoms: C_11  and  C_12 
ROOT
HETATM    1  N   UNL     1     -40.818 -50.011  10.903  1.00  0.00    -0.308 N 
HETATM    2  C   UNL     1     -41.523 -50.778  11.804  1.00  0.00     0.320 C 
HETATM    3  O   UNL     1     -42.355 -50.359  12.598  1.00  0.00    -0.247 OA
HETATM    4  N   UNL     1     -41.234 -52.117  11.709  1.00  0.00    -0.340 N 
HETATM    5  H   UNL     1     -40.381 -50.506  10.140  1.00  0.00     0.170 HD
HETATM    6  H   UNL     1     -40.387 -52.430  11.257  1.00  0.00     0.164 HD
ENDROOT
BRANCH   1   7
HETATM    7  C   UNL     1     -40.885 -48.598  10.819  1.00  0.00     0.051 A 
HETATM    8  C   UNL     1     -39.975 -47.751  11.452  1.00  0.00     0.035 A 
HETATM    9  C   UNL     1     -40.109 -46.370  11.338  1.00  0.00     0.058 A 
HETATM   10  C   UNL     1     -41.146 -45.870  10.572  1.00  0.00     0.141 A 
HETATM   11  N   UNL     1     -42.044 -46.648   9.929  1.00  0.00    -0.345 N 
HETATM   12  C   UNL     1     -41.889 -47.990  10.068  1.00  0.00     0.119 A 
ATOM     13  HN  UNL     1     -42.798 -46.249   9.370  1.00  0.00     0.167 HD
BRANCH  10  14
HETATM   14  O   UNL     1     -41.219 -44.494  10.488  1.00  0.00    -0.341 OA
HETATM   15  C   UNL     1     -40.214 -43.836  11.246  1.00  0.00     0.211 C 
ENDBRANCH  10  14
ENDBRANCH   1   7
BRANCH   4  16
HETATM   16  C   UNL     1     -41.927 -53.076  12.562  1.00  0.00     0.156 C 
BRANCH  16  17
HETATM   17  C   UNL     1     -41.001 -54.081  13.245  1.00  0.00     0.139 C 
HETATM   18  C   UNL     1     -41.343 -54.456  14.680  1.00  0.00     0.035 C 
HETATM   19  C   UNL     1     -39.994 -54.672  15.341  1.00  0.00     0.029 C 
HETATM   20  C   UNL     1     -38.977 -54.379  14.258  1.00  0.00     0.168 C 
HETATM   21  O   UNL     1     -39.658 -53.568  13.296  1.00  0.00    -0.384 OA
ENDBRANCH  16  17
ENDBRANCH   4  16
TORSDOF 4
ENDMDL
MODEL 5
REMARK VINA RESULT:      -5.5      3.734      6.291
REMARK  4 active torsions:
REMARK  status: ('A' for Active; 'I' for Inactive)
REMARK    1  A    between atoms: O_2  and  C_3 
REMARK    2  A    between atoms: C_6  and  N_7 
REMARK       I    between atoms: N_7  and  C_8 
REMARK       I    between atoms: C_8  and  N_10 
REMARK    3  A    between atoms: N_10  and  C_11 
REMARK    4  A    between atoms: C_11  and  C_12 
ROOT
HETATM    1  N   UNL     1     -41.819 -49.555  11.199  1.00  0.00    -0.308 N 
HETATM    2  C   UNL     1     -42.268 -50.021  12.415  1.00  0.00     0.320 C 
HETATM    3  O   UNL     1     -42.454 -49.339  13.413  1.00  0.00    -0.247 OA
HETATM    4  N   UNL     1     -42.537 -51.367  12.407  1.00  0.00    -0.340 N 
HETATM    5  H   UNL     1     -41.971 -50.160  10.404  1.00  0.00     0.170 HD
HETATM    6  H   UNL     1     -42.149 -51.966  11.692  1.00  0.00     0.164 HD
ENDROOT
BRANCH   1   7
HETATM    7  C   UNL     1     -41.419 -48.221  10.942  1.00  0.00     0.051 A 
HETATM    8  C   UNL     1     -40.264 -47.652  11.480  1.00  0.00     0.035 A 
HETATM    9  C   UNL     1     -39.939 -46.328  11.198  1.00  0.00     0.058 A 
HETATM   10  C   UNL     1     -40.774 -45.609  10.362  1.00  0.00     0.141 A 
HETATM   11  N   UNL     1     -41.895 -46.118   9.806  1.00  0.00    -0.345 N 
HETATM   12  C   UNL     1     -42.187 -47.409  10.109  1.00  0.00     0.119 A 
ATOM     13  HN  UNL     1     -42.491 -45.562   9.193  1.00  0.00     0.167 HD
BRANCH  10  14
HETATM   14  O   UNL     1     -40.393 -44.307  10.111  1.00  0.00    -0.341 OA
HETATM   15  C   UNL     1     -40.393 -43.492  11.275  1.00  0.00     0.211 C 
ENDBRANCH  10  14
ENDBRANCH   1   7
BRANCH   4  16
HETATM   16  C   UNL     1     -43.064 -52.014  13.602  1.00  0.00     0.156 C 
BRANCH  16  17
HETATM   17  C   UNL     1     -44.547 -52.371  13.513  1.00  0.00     0.139 C 
HETATM   18  C   UNL     1     -45.523 -51.207  13.413  1.00  0.00     0.035 C 
HETATM   19  C   UNL     1     -46.748 -51.680  14.174  1.00  0.00     0.029 C 
HETATM   20  C   UNL     1     -46.384 -53.060  14.680  1.00  0.00     0.168 C 
HETATM   21  O   UNL     1     -44.955 -53.109  14.679  1.00  0.00    -0.384 OA
ENDBRANCH  16  17
ENDBRANCH   4  16
TORSDOF 4
ENDMDL
MODEL 6
REMARK VINA RESULT:      -5.5      2.219      7.392
REMARK  4 active torsions:
REMARK  status: ('A' for Active; 'I' for Inactive)
REMARK    1  A    between atoms: O_2  and  C_3 
REMARK    2  A    between atoms: C_6  and  N_7 
REMARK       I    between atoms: N_7  and  C_8 
REMARK       I    between atoms: C_8  and  N_10 
REMARK    3  A    between atoms: N_10  and  C_11 
REMARK    4  A    between atoms: C_11  and  C_12 
ROOT
HETATM    1  N   UNL     1     -41.397 -48.940  10.273  1.00  0.00    -0.308 N 
HETATM    2  C   UNL     1     -41.424 -49.699  11.422  1.00  0.00     0.320 C 
HETATM    3  O   UNL     1     -42.009 -49.404  12.456  1.00  0.00    -0.247 OA
HETATM    4  N   UNL     1     -40.743 -50.884  11.298  1.00  0.00    -0.340 N 
HETATM    5  H   UNL     1     -41.118 -49.417   9.428  1.00  0.00     0.170 HD
HETATM    6  H   UNL     1     -40.060 -51.011  10.564  1.00  0.00     0.164 HD
ENDROOT
BRANCH   1   7
HETATM    7  C   UNL     1     -41.974 -47.652  10.142  1.00  0.00     0.051 A 
HETATM    8  C   UNL     1     -43.169 -47.416   9.463  1.00  0.00     0.035 A 
HETATM    9  C   UNL     1     -43.672 -46.121   9.360  1.00  0.00     0.058 A 
HETATM   10  C   UNL     1     -42.970 -45.093   9.961  1.00  0.00     0.141 A 
HETATM   11  N   UNL     1     -41.815 -45.272  10.640  1.00  0.00    -0.345 N 
HETATM   12  C   UNL     1     -41.350 -46.545  10.714  1.00  0.00     0.119 A 
ATOM     13  HN  UNL     1     -41.320 -44.493  11.073  1.00  0.00     0.167 HD
BRANCH  10  14
HETATM   14  O   UNL     1     -43.524 -43.835   9.834  1.00  0.00    -0.341 OA
HETATM   15  C   UNL     1     -43.135 -42.949  10.873  1.00  0.00     0.211 C 
ENDBRANCH  10  14
ENDBRANCH   1   7
BRANCH   4  16
HETATM   16  C   UNL     1     -40.710 -51.828  12.408  1.00  0.00     0.156 C 
BRANCH  16  17
HETATM   17  C   UNL     1     -39.416 -51.786  13.220  1.00  0.00     0.139 C 
HETATM   18  C   UNL     1     -39.408 -50.883  14.444  1.00  0.00     0.035 C 
HETATM   19  C   UNL     1     -37.986 -50.358  14.513  1.00  0.00     0.029 C 
HETATM   20  C   UNL     1     -37.287 -50.966  13.314  1.00  0.00     0.168 C 
HETATM   21  O   UNL     1     -38.327 -51.324  12.400  1.00  0.00    -0.384 OA
ENDBRANCH  16  17
ENDBRANCH   4  16
TORSDOF 4
ENDMDL
MODEL 7
REMARK VINA RESULT:      -5.4      2.934      6.619
REMARK  4 active torsions:
REMARK  status: ('A' for Active; 'I' for Inactive)
REMARK    1  A    between atoms: O_2  and  C_3 
REMARK    2  A    between atoms: C_6  and  N_7 
REMARK       I    between atoms: N_7  and  C_8 
REMARK       I    between atoms: C_8  and  N_10 
REMARK    3  A    between atoms: N_10  and  C_11 
REMARK    4  A    between atoms: C_11  and  C_12 
ROOT
HETATM    1  N   UNL     1     -41.130 -49.287  10.626  1.00  0.00    -0.308 N 
HETATM    2  C   UNL     1     -41.036 -50.094  11.738  1.00  0.00     0.320 C 
HETATM    3  O   UNL     1     -41.084 -49.712  12.900  1.00  0.00    -0.247 OA
HETATM    4  N   UNL     1     -40.916 -51.425  11.425  1.00  0.00    -0.340 N 
HETATM    5  H   UNL     1     -41.348 -49.749   9.755  1.00  0.00     0.170 HD
HETATM    6  H   UNL     1     -40.619 -51.713  10.503  1.00  0.00     0.164 HD
ENDROOT
BRANCH   1   7
HETATM    7  C   UNL     1     -41.209 -47.872  10.658  1.00  0.00     0.051 A 
HETATM    8  C   UNL     1     -40.173 -47.059  11.117  1.00  0.00     0.035 A 
HETATM    9  C   UNL     1     -40.324 -45.675  11.134  1.00  0.00     0.058 A 
HETATM   10  C   UNL     1     -41.510 -45.137  10.670  1.00  0.00     0.141 A 
HETATM   11  N   UNL     1     -42.538 -45.880  10.204  1.00  0.00    -0.345 N 
HETATM   12  C   UNL     1     -42.359 -47.226  10.208  1.00  0.00     0.119 A 
ATOM     13  HN  UNL     1     -43.401 -45.454   9.868  1.00  0.00     0.167 HD
BRANCH  10  14
HETATM   14  O   UNL     1     -41.596 -43.760  10.702  1.00  0.00    -0.341 OA
HETATM   15  C   UNL     1     -40.498 -43.149  11.365  1.00  0.00     0.211 C 
ENDBRANCH  10  14
ENDBRANCH   1   7
BRANCH   4  16
HETATM   16  C   UNL     1     -40.850 -52.422  12.487  1.00  0.00     0.156 C 
BRANCH  16  17
HETATM   17  C   UNL     1     -42.202 -52.736  13.128  1.00  0.00     0.139 C 
HETATM   18  C   UNL     1     -42.292 -54.027  13.928  1.00  0.00     0.035 C 
HETATM   19  C   UNL     1     -43.710 -54.514  13.693  1.00  0.00     0.029 C 
HETATM   20  C   UNL     1     -44.323 -53.493  12.757  1.00  0.00     0.168 C 
HETATM   21  O   UNL     1     -43.221 -52.843  12.119  1.00  0.00    -0.384 OA
ENDBRANCH  16  17
ENDBRANCH   4  16
TORSDOF 4
ENDMDL
MODEL 8
REMARK VINA RESULT:      -5.3      3.067      7.088
REMARK  4 active torsions:
REMARK  status: ('A' for Active; 'I' for Inactive)
REMARK    1  A    between atoms: O_2  and  C_3 
REMARK    2  A    between atoms: C_6  and  N_7 
REMARK       I    between atoms: N_7  and  C_8 
REMARK       I    between atoms: C_8  and  N_10 
REMARK    3  A    between atoms: N_10  and  C_11 
REMARK    4  A    between atoms: C_11  and  C_12 
ROOT
HETATM    1  N   UNL     1     -40.909 -47.782  10.458  1.00  0.00    -0.308 N 
HETATM    2  C   UNL     1     -40.519 -48.689  11.418  1.00  0.00     0.320 C 
HETATM    3  O   UNL     1     -40.413 -48.456  12.615  1.00  0.00    -0.247 OA
HETATM    4  N   UNL     1     -40.285 -49.941  10.908  1.00  0.00    -0.340 N 
HETATM    5  H   UNL     1     -41.214 -48.167   9.576  1.00  0.00     0.170 HD
HETATM    6  H   UNL     1     -40.118 -50.073   9.920  1.00  0.00     0.164 HD
ENDROOT
BRANCH   1   7
HETATM    7  C   UNL     1     -41.164 -46.409  10.700  1.00  0.00     0.051 A 
HETATM    8  C   UNL     1     -40.183 -45.421  10.608  1.00  0.00     0.035 A 
HETATM    9  C   UNL     1     -40.500 -44.092  10.873  1.00  0.00     0.058 A 
HETATM   10  C   UNL     1     -41.806 -43.781  11.206  1.00  0.00     0.141 A 
HETATM   11  N   UNL     1     -42.794 -44.698  11.294  1.00  0.00    -0.345 N 
HETATM   12  C   UNL     1     -42.448 -45.985  11.037  1.00  0.00     0.119 A 
ATOM     13  HN  UNL     1     -43.749 -44.437  11.542  1.00  0.00     0.167 HD
BRANCH  10  14
HETATM   14  O   UNL     1     -42.061 -42.446  11.445  1.00  0.00    -0.341 OA
HETATM   15  C   UNL     1     -43.430 -42.104  11.285  1.00  0.00     0.211 C 
ENDBRANCH  10  14
ENDBRANCH   1   7
BRANCH   4  16
HETATM   16  C   UNL     1     -39.907 -51.033  11.798  1.00  0.00     0.156 C 
BRANCH  16  17
HETATM   17  C   UNL     1     -40.951 -52.144  11.895  1.00  0.00     0.139 C 
HETATM   18  C   UNL     1     -42.247 -51.799  12.616  1.00  0.00     0.035 C 
HETATM   19  C   UNL     1     -42.645 -53.090  13.307  1.00  0.00     0.029 C 
HETATM   20  C   UNL     1     -41.544 -54.072  12.965  1.00  0.00     0.168 C 
HETATM   21  O   UNL     1     -40.413 -53.275  12.603  1.00  0.00    -0.384 OA
ENDBRANCH  16  17
ENDBRANCH   4  16
TORSDOF 4
ENDMDL
MODEL 9
REMARK VINA RESULT:      -5.3      4.751      7.694
REMARK  4 active torsions:
REMARK  status: ('A' for Active; 'I' for Inactive)
REMARK    1  A    between atoms: O_2  and  C_3 
REMARK    2  A    between atoms: C_6  and  N_7 
REMARK       I    between atoms: N_7  and  C_8 
REMARK       I    between atoms: C_8  and  N_10 
REMARK    3  A    between atoms: N_10  and  C_11 
REMARK    4  A    between atoms: C_11  and  C_12 
ROOT
HETATM    1  N   UNL     1     -39.920 -52.267  13.244  1.00  0.00    -0.308 N 
HETATM    2  C   UNL     1     -39.658 -50.949  13.544  1.00  0.00     0.320 C 
HETATM    3  O   UNL     1     -40.495 -50.106  13.841  1.00  0.00    -0.247 OA
HETATM    4  N   UNL     1     -38.318 -50.650  13.522  1.00  0.00    -0.340 N 
HETATM    5  H   UNL     1     -39.135 -52.901  13.289  1.00  0.00     0.170 HD
HETATM    6  H   UNL     1     -37.665 -51.250  13.037  1.00  0.00     0.164 HD
ENDROOT
BRANCH   1   7
HETATM    7  C   UNL     1     -41.216 -52.831  13.146  1.00  0.00     0.051 A 
HETATM    8  C   UNL     1     -41.731 -53.730  14.081  1.00  0.00     0.035 A 
HETATM    9  C   UNL     1     -43.009 -54.257  13.915  1.00  0.00     0.058 A 
HETATM   10  C   UNL     1     -43.751 -53.852  12.821  1.00  0.00     0.141 A 
HETATM   11  N   UNL     1     -43.303 -52.974  11.896  1.00  0.00    -0.345 N 
HETATM   12  C   UNL     1     -42.050 -52.486  12.085  1.00  0.00     0.119 A 
ATOM     13  HN  UNL     1     -43.875 -52.694  11.100  1.00  0.00     0.167 HD
BRANCH  10  14
HETATM   14  O   UNL     1     -45.013 -54.400  12.717  1.00  0.00    -0.341 OA
HETATM   15  C   UNL     1     -45.434 -55.057  13.905  1.00  0.00     0.211 C 
ENDBRANCH  10  14
ENDBRANCH   1   7
BRANCH   4  16
HETATM   16  C   UNL     1     -37.863 -49.307  13.860  1.00  0.00     0.156 C 
BRANCH  16  17
HETATM   17  C   UNL     1     -37.304 -49.180  15.276  1.00  0.00     0.139 C 
HETATM   18  C   UNL     1     -36.650 -47.853  15.634  1.00  0.00     0.035 C 
HETATM   19  C   UNL     1     -35.524 -48.233  16.577  1.00  0.00     0.029 C 
HETATM   20  C   UNL     1     -35.588 -49.743  16.673  1.00  0.00     0.168 C 
HETATM   21  O   UNL     1     -36.291 -50.176  15.505  1.00  0.00    -0.384 OA
ENDBRANCH  16  17
ENDBRANCH   4  16
TORSDOF 4
ENDMDL
