MODEL 1
REMARK VINA RESULT:      -5.1      0.000      0.000
REMARK  4 active torsions:
REMARK  status: ('A' for Active; 'I' for Inactive)
REMARK    1  A    between atoms: C_2  and  C_3 
REMARK    2  A    between atoms: C_3  and  N_4 
REMARK       I    between atoms: N_4  and  C_5 
REMARK    3  A    between atoms: C_5  and  C_7 
REMARK    4  A    between atoms: C_7  and  N_8 
ROOT
HETATM    1  N   UNL     1     -44.288 -54.285  13.551  1.00  0.00    -0.301 N 
HETATM    2  C   UNL     1     -43.059 -54.616  14.082  1.00  0.00     0.102 A 
HETATM    3  C   UNL     1     -41.929 -54.063  13.635  1.00  0.00     0.092 A 
HETATM    4  C   UNL     1     -42.004 -53.076  12.545  1.00  0.00     0.250 A 
HETATM    5  O   UNL     1     -40.995 -52.530  12.114  1.00  0.00    -0.268 OA
HETATM    6  N   UNL     1     -43.253 -52.821  12.058  1.00  0.00    -0.275 N 
HETATM    7  C   UNL     1     -44.418 -53.394  12.495  1.00  0.00     0.329 A 
HETATM    8  O   UNL     1     -45.495 -53.125  11.963  1.00  0.00    -0.246 OA
HETATM    9  H   UNL     1     -43.322 -52.161  11.299  1.00  0.00     0.173 HD
ENDROOT
BRANCH   1  10
HETATM   10  C   UNL     1     -45.495 -54.921  14.071  1.00  0.00     0.235 C 
BRANCH  10  11
HETATM   11  C   UNL     1     -46.047 -54.132  15.257  1.00  0.00     0.235 C 
HETATM   12  N   UNL     1     -46.673 -52.954  14.916  1.00  0.00    -0.360 N 
HETATM   13  H   UNL     1     -46.800 -52.734  13.930  1.00  0.00     0.162 HD
HETATM   14  O   UNL     1     -45.976 -54.556  16.409  1.00  0.00    -0.272 OA
BRANCH  12  15
HETATM   15  C   UNL     1     -47.227 -52.055  15.909  1.00  0.00     0.122 C 
BRANCH  15  16
HETATM   16  C   UNL     1     -46.226 -50.988  16.347  1.00  0.00     0.015 C 
HETATM   17  C   UNL     1     -45.083 -50.815  15.356  1.00  0.00     0.006 C 
ENDBRANCH  15  16
ENDBRANCH  12  15
ENDBRANCH  10  11
ENDBRANCH   1  10
TORSDOF 4
ENDMDL
MODEL 2
REMARK VINA RESULT:      -5.0      7.545      9.066
REMARK  4 active torsions:
REMARK  status: ('A' for Active; 'I' for Inactive)
REMARK    1  A    between atoms: C_2  and  C_3 
REMARK    2  A    between atoms: C_3  and  N_4 
REMARK       I    between atoms: N_4  and  C_5 
REMARK    3  A    between atoms: C_5  and  C_7 
REMARK    4  A    between atoms: C_7  and  N_8 
ROOT
HETATM    1  N   UNL     1     -43.112 -46.160   9.615  1.00  0.00    -0.301 N 
HETATM    2  C   UNL     1     -43.525 -47.474   9.544  1.00  0.00     0.102 A 
HETATM    3  C   UNL     1     -44.786 -47.799   9.253  1.00  0.00     0.092 A 
HETATM    4  C   UNL     1     -45.759 -46.722   9.006  1.00  0.00     0.250 A 
HETATM    5  O   UNL     1     -46.923 -46.974   8.721  1.00  0.00    -0.268 OA
HETATM    6  N   UNL     1     -45.278 -45.450   9.119  1.00  0.00    -0.275 N 
HETATM    7  C   UNL     1     -43.991 -45.101   9.435  1.00  0.00     0.329 A 
HETATM    8  O   UNL     1     -43.665 -43.920   9.550  1.00  0.00    -0.246 OA
HETATM    9  H   UNL     1     -45.934 -44.698   8.972  1.00  0.00     0.173 HD
ENDROOT
BRANCH   1  10
HETATM   10  C   UNL     1     -41.721 -45.855   9.941  1.00  0.00     0.235 C 
BRANCH  10  11
HETATM   11  C   UNL     1     -41.283 -46.619  11.187  1.00  0.00     0.235 C 
HETATM   12  N   UNL     1     -40.209 -47.460  10.993  1.00  0.00    -0.360 N 
HETATM   13  H   UNL     1     -39.741 -47.455  10.090  1.00  0.00     0.162 HD
HETATM   14  O   UNL     1     -41.822 -46.446  12.279  1.00  0.00    -0.272 OA
BRANCH  12  15
HETATM   15  C   UNL     1     -39.675 -48.294  12.052  1.00  0.00     0.122 C 
BRANCH  15  16
HETATM   16  C   UNL     1     -39.178 -49.641  11.532  1.00  0.00     0.015 C 
HETATM   17  C   UNL     1     -37.662 -49.767  11.585  1.00  0.00     0.006 C 
ENDBRANCH  15  16
ENDBRANCH  12  15
ENDBRANCH  10  11
ENDBRANCH   1  10
TORSDOF 4
ENDMDL
MODEL 3
REMARK VINA RESULT:      -4.8      2.088      5.212
REMARK  4 active torsions:
REMARK  status: ('A' for Active; 'I' for Inactive)
REMARK    1  A    between atoms: C_2  and  C_3 
REMARK    2  A    between atoms: C_3  and  N_4 
REMARK       I    between atoms: N_4  and  C_5 
REMARK    3  A    between atoms: C_5  and  C_7 
REMARK    4  A    between atoms: C_7  and  N_8 
ROOT
HETATM    1  N   UNL     1     -45.286 -53.146  13.435  1.00  0.00    -0.301 N 
HETATM    2  C   UNL     1     -45.651 -51.817  13.483  1.00  0.00     0.102 A 
HETATM    3  C   UNL     1     -46.514 -51.358  14.391  1.00  0.00     0.092 A 
HETATM    4  C   UNL     1     -47.093 -52.301  15.362  1.00  0.00     0.250 A 
HETATM    5  O   UNL     1     -47.877 -51.921  16.223  1.00  0.00    -0.268 OA
HETATM    6  N   UNL     1     -46.701 -53.602  15.234  1.00  0.00    -0.275 N 
HETATM    7  C   UNL     1     -45.829 -54.090  14.296  1.00  0.00     0.329 A 
HETATM    8  O   UNL     1     -45.568 -55.291  14.239  1.00  0.00    -0.246 OA
HETATM    9  H   UNL     1     -47.100 -54.266  15.879  1.00  0.00     0.173 HD
ENDROOT
BRANCH   1  10
HETATM   10  C   UNL     1     -44.340 -53.601  12.420  1.00  0.00     0.235 C 
BRANCH  10  11
HETATM   11  C   UNL     1     -42.928 -53.127  12.754  1.00  0.00     0.235 C 
HETATM   12  N   UNL     1     -42.312 -52.415  11.749  1.00  0.00    -0.360 N 
HETATM   13  H   UNL     1     -42.846 -52.185  10.914  1.00  0.00     0.162 HD
HETATM   14  O   UNL     1     -42.419 -53.327  13.856  1.00  0.00    -0.272 OA
BRANCH  12  15
HETATM   15  C   UNL     1     -40.957 -51.914  11.870  1.00  0.00     0.122 C 
BRANCH  15  16
HETATM   16  C   UNL     1     -40.892 -50.391  11.779  1.00  0.00     0.015 C 
HETATM   17  C   UNL     1     -39.465 -49.870  11.682  1.00  0.00     0.006 C 
ENDBRANCH  15  16
ENDBRANCH  12  15
ENDBRANCH  10  11
ENDBRANCH   1  10
TORSDOF 4
ENDMDL
MODEL 4
REMARK VINA RESULT:      -4.7      3.063      5.773
REMARK  4 active torsions:
REMARK  status: ('A' for Active; 'I' for Inactive)
REMARK    1  A    between atoms: C_2  and  C_3 
REMARK    2  A    between atoms: C_3  and  N_4 
REMARK       I    between atoms: N_4  and  C_5 
REMARK    3  A    between atoms: C_5  and  C_7 
REMARK    4  A    between atoms: C_7  and  N_8 
ROOT
HETATM    1  N   UNL     1     -41.462 -53.641  13.317  1.00  0.00    -0.301 N 
HETATM    2  C   UNL     1     -42.384 -54.343  14.066  1.00  0.00     0.102 A 
HETATM    3  C   UNL     1     -43.688 -54.312  13.784  1.00  0.00     0.092 A 
HETATM    4  C   UNL     1     -44.150 -53.502  12.644  1.00  0.00     0.250 A 
HETATM    5  O   UNL     1     -45.336 -53.457  12.340  1.00  0.00    -0.268 OA
HETATM    6  N   UNL     1     -43.181 -52.819  11.969  1.00  0.00    -0.275 N 
HETATM    7  C   UNL     1     -41.841 -52.828  12.257  1.00  0.00     0.329 A 
HETATM    8  O   UNL     1     -41.049 -52.145  11.609  1.00  0.00    -0.246 OA
HETATM    9  H   UNL     1     -43.480 -52.245  11.196  1.00  0.00     0.173 HD
ENDROOT
BRANCH   1  10
HETATM   10  C   UNL     1     -40.046 -53.704  13.666  1.00  0.00     0.235 C 
BRANCH  10  11
HETATM   11  C   UNL     1     -39.585 -52.380  14.271  1.00  0.00     0.235 C 
HETATM   12  N   UNL     1     -38.614 -51.729  13.544  1.00  0.00    -0.360 N 
HETATM   13  H   UNL     1     -38.337 -52.112  12.642  1.00  0.00     0.162 HD
HETATM   14  O   UNL     1     -40.089 -51.923  15.296  1.00  0.00    -0.272 OA
BRANCH  12  15
HETATM   15  C   UNL     1     -38.028 -50.476  13.979  1.00  0.00     0.122 C 
BRANCH  15  16
HETATM   16  C   UNL     1     -37.923 -49.460  12.844  1.00  0.00     0.015 C 
HETATM   17  C   UNL     1     -37.504 -50.096  11.526  1.00  0.00     0.006 C 
ENDBRANCH  15  16
ENDBRANCH  12  15
ENDBRANCH  10  11
ENDBRANCH   1  10
TORSDOF 4
ENDMDL
MODEL 5
REMARK VINA RESULT:      -4.6      2.116      2.684
REMARK  4 active torsions:
REMARK  status: ('A' for Active; 'I' for Inactive)
REMARK    1  A    between atoms: C_2  and  C_3 
REMARK    2  A    between atoms: C_3  and  N_4 
REMARK       I    between atoms: N_4  and  C_5 
REMARK    3  A    between atoms: C_5  and  C_7 
REMARK    4  A    between atoms: C_7  and  N_8 
ROOT
HETATM    1  N   UNL     1     -42.399 -54.079  14.325  1.00  0.00    -0.301 N 
HETATM    2  C   UNL     1     -41.850 -54.341  13.087  1.00  0.00     0.102 A 
HETATM    3  C   UNL     1     -40.851 -53.607  12.592  1.00  0.00     0.092 A 
HETATM    4  C   UNL     1     -40.327 -52.488  13.393  1.00  0.00     0.250 A 
HETATM    5  O   UNL     1     -39.400 -51.798  12.986  1.00  0.00    -0.268 OA
HETATM    6  N   UNL     1     -40.938 -52.280  14.595  1.00  0.00    -0.275 N 
HETATM    7  C   UNL     1     -41.976 -53.013  15.107  1.00  0.00     0.329 A 
HETATM    8  O   UNL     1     -42.486 -52.721  16.188  1.00  0.00    -0.246 OA
HETATM    9  H   UNL     1     -40.605 -51.507  15.150  1.00  0.00     0.173 HD
ENDROOT
BRANCH   1  10
HETATM   10  C   UNL     1     -43.494 -54.909  14.821  1.00  0.00     0.235 C 
BRANCH  10  11
HETATM   11  C   UNL     1     -44.828 -54.426  14.257  1.00  0.00     0.235 C 
HETATM   12  N   UNL     1     -45.450 -53.459  15.015  1.00  0.00    -0.360 N 
HETATM   13  H   UNL     1     -44.962 -53.080  15.823  1.00  0.00     0.162 HD
HETATM   14  O   UNL     1     -45.269 -54.840  13.186  1.00  0.00    -0.272 OA
BRANCH  12  15
HETATM   15  C   UNL     1     -46.742 -52.905  14.657  1.00  0.00     0.122 C 
BRANCH  15  16
HETATM   16  C   UNL     1     -46.624 -51.518  14.030  1.00  0.00     0.015 C 
HETATM   17  C   UNL     1     -46.566 -51.565  12.509  1.00  0.00     0.006 C 
ENDBRANCH  15  16
ENDBRANCH  12  15
ENDBRANCH  10  11
ENDBRANCH   1  10
TORSDOF 4
ENDMDL
MODEL 6
REMARK VINA RESULT:      -4.5      1.886      5.277
REMARK  4 active torsions:
REMARK  status: ('A' for Active; 'I' for Inactive)
REMARK    1  A    between atoms: C_2  and  C_3 
REMARK    2  A    between atoms: C_3  and  N_4 
REMARK       I    between atoms: N_4  and  C_5 
REMARK    3  A    between atoms: C_5  and  C_7 
REMARK    4  A    between atoms: C_7  and  N_8 
ROOT
HETATM    1  N   UNL     1     -45.262 -53.156  13.523  1.00  0.00    -0.301 N 
HETATM    2  C   UNL     1     -45.864 -51.924  13.372  1.00  0.00     0.102 A 
HETATM    3  C   UNL     1     -46.712 -51.440  14.281  1.00  0.00     0.092 A 
HETATM    4  C   UNL     1     -47.013 -52.249  15.474  1.00  0.00     0.250 A 
HETATM    5  O   UNL     1     -47.773 -51.838  16.342  1.00  0.00    -0.268 OA
HETATM    6  N   UNL     1     -46.397 -53.465  15.539  1.00  0.00    -0.275 N 
HETATM    7  C   UNL     1     -45.538 -53.982  14.604  1.00  0.00     0.329 A 
HETATM    8  O   UNL     1     -45.063 -55.110  14.737  1.00  0.00    -0.246 OA
HETATM    9  H   UNL     1     -46.605 -54.041  16.340  1.00  0.00     0.173 HD
ENDROOT
BRANCH   1  10
HETATM   10  C   UNL     1     -44.343 -53.644  12.499  1.00  0.00     0.235 C 
BRANCH  10  11
HETATM   11  C   UNL     1     -42.917 -53.193  12.801  1.00  0.00     0.235 C 
HETATM   12  N   UNL     1     -42.180 -54.091  13.541  1.00  0.00    -0.360 N 
HETATM   13  H   UNL     1     -42.587 -54.998  13.759  1.00  0.00     0.162 HD
HETATM   14  O   UNL     1     -42.463 -52.136  12.366  1.00  0.00    -0.272 OA
BRANCH  12  15
HETATM   15  C   UNL     1     -40.817 -53.821  13.956  1.00  0.00     0.122 C 
BRANCH  15  16
HETATM   16  C   UNL     1     -40.429 -54.598  15.212  1.00  0.00     0.015 C 
HETATM   17  C   UNL     1     -38.950 -54.955  15.247  1.00  0.00     0.006 C 
ENDBRANCH  15  16
ENDBRANCH  12  15
ENDBRANCH  10  11
ENDBRANCH   1  10
TORSDOF 4
ENDMDL
MODEL 7
REMARK VINA RESULT:      -4.5      2.829      5.811
REMARK  4 active torsions:
REMARK  status: ('A' for Active; 'I' for Inactive)
REMARK    1  A    between atoms: C_2  and  C_3 
REMARK    2  A    between atoms: C_3  and  N_4 
REMARK       I    between atoms: N_4  and  C_5 
REMARK    3  A    between atoms: C_5  and  C_7 
REMARK    4  A    between atoms: C_7  and  N_8 
ROOT
HETATM    1  N   UNL     1     -42.125 -53.791  13.250  1.00  0.00    -0.301 N 
HETATM    2  C   UNL     1     -43.265 -53.567  12.507  1.00  0.00     0.102 A 
HETATM    3  C   UNL     1     -44.466 -53.973  12.924  1.00  0.00     0.092 A 
HETATM    4  C   UNL     1     -44.570 -54.679  14.211  1.00  0.00     0.250 A 
HETATM    5  O   UNL     1     -45.654 -55.056  14.641  1.00  0.00    -0.268 OA
HETATM    6  N   UNL     1     -43.395 -54.883  14.874  1.00  0.00    -0.275 N 
HETATM    7  C   UNL     1     -42.154 -54.488  14.450  1.00  0.00     0.329 A 
HETATM    8  O   UNL     1     -41.146 -54.754  15.105  1.00  0.00    -0.246 OA
HETATM    9  H   UNL     1     -43.444 -55.381  15.750  1.00  0.00     0.173 HD
ENDROOT
BRANCH   1  10
HETATM   10  C   UNL     1     -40.833 -53.331  12.749  1.00  0.00     0.235 C 
BRANCH  10  11
HETATM   11  C   UNL     1     -40.771 -51.805  12.749  1.00  0.00     0.235 C 
HETATM   12  N   UNL     1     -40.247 -51.256  11.599  1.00  0.00    -0.360 N 
HETATM   13  H   UNL     1     -40.022 -51.872  10.821  1.00  0.00     0.162 HD
HETATM   14  O   UNL     1     -41.208 -51.137  13.684  1.00  0.00    -0.272 OA
BRANCH  12  15
HETATM   15  C   UNL     1     -40.076 -49.827  11.430  1.00  0.00     0.122 C 
BRANCH  15  16
HETATM   16  C   UNL     1     -38.737 -49.335  11.975  1.00  0.00     0.015 C 
HETATM   17  C   UNL     1     -37.548 -49.977  11.274  1.00  0.00     0.006 C 
ENDBRANCH  15  16
ENDBRANCH  12  15
ENDBRANCH  10  11
ENDBRANCH   1  10
TORSDOF 4
ENDMDL
MODEL 8
REMARK VINA RESULT:      -4.5      4.752      6.391
REMARK  4 active torsions:
REMARK  status: ('A' for Active; 'I' for Inactive)
REMARK    1  A    between atoms: C_2  and  C_3 
REMARK    2  A    between atoms: C_3  and  N_4 
REMARK       I    between atoms: N_4  and  C_5 
REMARK    3  A    between atoms: C_5  and  C_7 
REMARK    4  A    between atoms: C_7  and  N_8 
ROOT
HETATM    1  N   UNL     1     -42.284 -49.284  12.264  1.00  0.00    -0.301 N 
HETATM    2  C   UNL     1     -41.030 -49.395  11.701  1.00  0.00     0.102 A 
HETATM    3  C   UNL     1     -40.409 -50.572  11.597  1.00  0.00     0.092 A 
HETATM    4  C   UNL     1     -41.084 -51.779  12.101  1.00  0.00     0.250 A 
HETATM    5  O   UNL     1     -40.559 -52.882  12.012  1.00  0.00    -0.268 OA
HETATM    6  N   UNL     1     -42.311 -51.582  12.665  1.00  0.00    -0.275 N 
HETATM    7  C   UNL     1     -42.952 -50.379  12.795  1.00  0.00     0.329 A 
HETATM    8  O   UNL     1     -44.045 -50.300  13.356  1.00  0.00    -0.246 OA
HETATM    9  H   UNL     1     -42.781 -52.395  13.033  1.00  0.00     0.173 HD
ENDROOT
BRANCH   1  10
HETATM   10  C   UNL     1     -42.921 -47.973  12.359  1.00  0.00     0.235 C 
BRANCH  10  11
HETATM   11  C   UNL     1     -43.144 -47.385  10.968  1.00  0.00     0.235 C 
HETATM   12  N   UNL     1     -44.179 -47.960  10.264  1.00  0.00    -0.360 N 
HETATM   13  H   UNL     1     -44.761 -48.654  10.728  1.00  0.00     0.162 HD
HETATM   14  O   UNL     1     -42.479 -46.439  10.548  1.00  0.00    -0.272 OA
BRANCH  12  15
HETATM   15  C   UNL     1     -44.516 -47.557   8.913  1.00  0.00     0.122 C 
BRANCH  15  16
HETATM   16  C   UNL     1     -45.883 -48.081   8.478  1.00  0.00     0.015 C 
HETATM   17  C   UNL     1     -47.034 -47.327   9.129  1.00  0.00     0.006 C 
ENDBRANCH  15  16
ENDBRANCH  12  15
ENDBRANCH  10  11
ENDBRANCH   1  10
TORSDOF 4
ENDMDL
MODEL 9
REMARK VINA RESULT:      -4.5      3.889      5.530
REMARK  4 active torsions:
REMARK  status: ('A' for Active; 'I' for Inactive)
REMARK    1  A    between atoms: C_2  and  C_3 
REMARK    2  A    between atoms: C_3  and  N_4 
REMARK       I    between atoms: N_4  and  C_5 
REMARK    3  A    between atoms: C_5  and  C_7 
REMARK    4  A    between atoms: C_7  and  N_8 
ROOT
HETATM    1  N   UNL     1     -42.170 -49.367  12.051  1.00  0.00    -0.301 N 
HETATM    2  C   UNL     1     -43.287 -48.557  12.082  1.00  0.00     0.102 A 
HETATM    3  C   UNL     1     -43.539 -47.672  11.116  1.00  0.00     0.092 A 
HETATM    4  C   UNL     1     -42.595 -47.559   9.991  1.00  0.00     0.250 A 
HETATM    5  O   UNL     1     -42.795 -46.771   9.074  1.00  0.00    -0.268 OA
HETATM    6  N   UNL     1     -41.504 -48.377  10.046  1.00  0.00    -0.275 N 
HETATM    7  C   UNL     1     -41.224 -49.277  11.040  1.00  0.00     0.329 A 
HETATM    8  O   UNL     1     -40.190 -49.944  11.017  1.00  0.00    -0.246 OA
HETATM    9  H   UNL     1     -40.837 -48.301   9.294  1.00  0.00     0.173 HD
ENDROOT
BRANCH   1  10
HETATM   10  C   UNL     1     -41.936 -50.318  13.134  1.00  0.00     0.235 C 
BRANCH  10  11
HETATM   11  C   UNL     1     -43.182 -51.164  13.382  1.00  0.00     0.235 C 
HETATM   12  N   UNL     1     -43.420 -52.124  12.424  1.00  0.00    -0.360 N 
HETATM   13  H   UNL     1     -42.732 -52.261  11.686  1.00  0.00     0.162 HD
HETATM   14  O   UNL     1     -43.875 -51.021  14.388  1.00  0.00    -0.272 OA
BRANCH  12  15
HETATM   15  C   UNL     1     -44.575 -52.999  12.471  1.00  0.00     0.122 C 
BRANCH  15  16
HETATM   16  C   UNL     1     -44.244 -54.363  13.072  1.00  0.00     0.015 C 
HETATM   17  C   UNL     1     -45.408 -54.957  13.854  1.00  0.00     0.006 C 
ENDBRANCH  15  16
ENDBRANCH  12  15
ENDBRANCH  10  11
ENDBRANCH   1  10
TORSDOF 4
ENDMDL
