MODEL 1
REMARK VINA RESULT:      -5.8      0.000      0.000
REMARK  5 active torsions:
REMARK  status: ('A' for Active; 'I' for Inactive)
REMARK    1  A    between atoms: N_5  and  C_6 
REMARK    2  A    between atoms: C_6  and  C_7 
REMARK    3  A    between atoms: C_7  and  N_8 
REMARK       I    between atoms: N_8  and  C_9 
REMARK    4  A    between atoms: C_9  and  C_11 
REMARK    5  A    between atoms: C_11  and  C_12 
ROOT
HETATM    1  N   UNL     1     -41.609 -53.137  14.137  1.00  0.00    -0.359 N 
HETATM    2  C   UNL     1     -40.687 -52.739  13.193  1.00  0.00     0.222 C 
HETATM    3  O   UNL     1     -40.526 -53.317  12.120  1.00  0.00    -0.273 OA
HETATM    4  H   UNL     1     -41.865 -52.457  14.844  1.00  0.00     0.162 HD
ENDROOT
BRANCH   2   5
HETATM    5  C   UNL     1     -39.866 -51.523  13.576  1.00  0.00     0.145 C 
BRANCH   5   6
HETATM    6  C   UNL     1     -40.063 -50.407  12.608  1.00  0.00    -0.002 A 
HETATM    7  C   UNL     1     -39.084 -49.780  11.784  1.00  0.00     0.030 A 
HETATM    8  C   UNL     1     -37.626 -50.051  11.675  1.00  0.00     0.070 C 
HETATM    9  N   UNL     1     -39.626 -48.829  11.017  1.00  0.00    -0.303 N 
HETATM   10  N   UNL     1     -40.925 -48.831  11.342  1.00  0.00    -0.300 N 
ATOM     11  HN  UNL     1     -39.154 -48.234  10.336  1.00  0.00     0.186 HD
HETATM   12  C   UNL     1     -41.816 -47.937  10.639  1.00  0.00     0.177 C 
HETATM   13  C   UNL     1     -41.244 -49.735  12.321  1.00  0.00     0.033 A 
HETATM   14  C   UNL     1     -42.603 -49.891  12.899  1.00  0.00     0.070 C 
ENDBRANCH   5   6
ENDBRANCH   2   5
BRANCH   1  15
HETATM   15  C   UNL     1     -42.568 -54.195  13.853  1.00  0.00     0.152 C 
BRANCH  15  16
HETATM   16  C   UNL     1     -43.881 -53.679  13.225  1.00  0.00     0.292 C 
BRANCH  16  17
HETATM   17  N   UNL     1     -45.088 -53.903  14.044  1.00  0.00     0.090 N 
HETATM   18  C   UNL     1     -46.304 -53.279  13.510  1.00  0.00     0.273 C 
HETATM   19  C   UNL     1     -46.289 -51.750  13.588  1.00  0.00     0.034 C 
HETATM   20  C   UNL     1     -46.029 -51.247  15.015  1.00  0.00    -0.015 C 
HETATM   21  C   UNL     1     -47.267 -51.422  15.900  1.00  0.00     0.010 C 
HETATM   22  C   UNL     1     -44.807 -51.956  15.618  1.00  0.00     0.034 C 
HETATM   23  C   UNL     1     -44.860 -53.478  15.436  1.00  0.00     0.273 C 
ENDBRANCH  16  17
ENDBRANCH  15  16
ENDBRANCH   1  15
TORSDOF 5
ENDMDL
MODEL 2
REMARK VINA RESULT:      -5.7      2.002      2.527
REMARK  5 active torsions:
REMARK  status: ('A' for Active; 'I' for Inactive)
REMARK    1  A    between atoms: N_5  and  C_6 
REMARK    2  A    between atoms: C_6  and  C_7 
REMARK    3  A    between atoms: C_7  and  N_8 
REMARK       I    between atoms: N_8  and  C_9 
REMARK    4  A    between atoms: C_9  and  C_11 
REMARK    5  A    between atoms: C_11  and  C_12 
ROOT
HETATM    1  N   UNL     1     -40.986 -51.652  11.617  1.00  0.00    -0.359 N 
HETATM    2  C   UNL     1     -40.665 -50.469  12.247  1.00  0.00     0.222 C 
HETATM    3  O   UNL     1     -40.958 -50.225  13.415  1.00  0.00    -0.273 OA
HETATM    4  H   UNL     1     -40.472 -51.876  10.772  1.00  0.00     0.162 HD
ENDROOT
BRANCH   2   5
HETATM    5  C   UNL     1     -39.921 -49.468  11.385  1.00  0.00     0.145 C 
BRANCH   5   6
HETATM    6  C   UNL     1     -40.400 -48.077  11.630  1.00  0.00    -0.002 A 
HETATM    7  C   UNL     1     -39.915 -47.143  12.590  1.00  0.00     0.030 A 
HETATM    8  C   UNL     1     -38.832 -47.297  13.597  1.00  0.00     0.070 C 
HETATM    9  N   UNL     1     -40.565 -45.977  12.509  1.00  0.00    -0.303 N 
HETATM   10  N   UNL     1     -41.458 -46.154  11.527  1.00  0.00    -0.300 N 
ATOM     11  HN  UNL     1     -40.414 -45.139  13.071  1.00  0.00     0.186 HD
HETATM   12  C   UNL     1     -42.299 -45.043  11.146  1.00  0.00     0.177 C 
HETATM   13  C   UNL     1     -41.431 -47.412  10.982  1.00  0.00     0.033 A 
HETATM   14  C   UNL     1     -42.360 -47.878   9.921  1.00  0.00     0.070 C 
ENDBRANCH   5   6
ENDBRANCH   2   5
BRANCH   1  15
HETATM   15  C   UNL     1     -41.568 -52.763  12.355  1.00  0.00     0.152 C 
BRANCH  15  16
HETATM   16  C   UNL     1     -43.104 -52.853  12.219  1.00  0.00     0.292 C 
BRANCH  16  17
HETATM   17  N   UNL     1     -43.817 -53.192  13.466  1.00  0.00     0.090 N 
HETATM   18  C   UNL     1     -45.197 -53.650  13.265  1.00  0.00     0.273 C 
HETATM   19  C   UNL     1     -46.142 -52.545  12.786  1.00  0.00     0.034 C 
HETATM   20  C   UNL     1     -46.128 -51.328  13.721  1.00  0.00    -0.015 C 
HETATM   21  C   UNL     1     -46.891 -51.614  15.018  1.00  0.00     0.010 C 
HETATM   22  C   UNL     1     -44.684 -50.889  14.007  1.00  0.00     0.034 C 
HETATM   23  C   UNL     1     -43.782 -52.063  14.410  1.00  0.00     0.273 C 
ENDBRANCH  16  17
ENDBRANCH  15  16
ENDBRANCH   1  15
TORSDOF 5
ENDMDL
MODEL 3
REMARK VINA RESULT:      -5.6      1.829      2.379
REMARK  5 active torsions:
REMARK  status: ('A' for Active; 'I' for Inactive)
REMARK    1  A    between atoms: N_5  and  C_6 
REMARK    2  A    between atoms: C_6  and  C_7 
REMARK    3  A    between atoms: C_7  and  N_8 
REMARK       I    between atoms: N_8  and  C_9 
REMARK    4  A    between atoms: C_9  and  C_11 
REMARK    5  A    between atoms: C_11  and  C_12 
ROOT
HETATM    1  N   UNL     1     -42.366 -51.749  12.041  1.00  0.00    -0.359 N 
HETATM    2  C   UNL     1     -41.008 -51.528  11.956  1.00  0.00     0.222 C 
HETATM    3  O   UNL     1     -40.167 -52.370  12.261  1.00  0.00    -0.273 OA
HETATM    4  H   UNL     1     -42.967 -51.123  11.515  1.00  0.00     0.162 HD
ENDROOT
BRANCH   2   5
HETATM    5  C   UNL     1     -40.616 -50.150  11.462  1.00  0.00     0.145 C 
BRANCH   5   6
HETATM    6  C   UNL     1     -39.660 -49.489  12.396  1.00  0.00    -0.002 A 
HETATM    7  C   UNL     1     -38.243 -49.402  12.280  1.00  0.00     0.030 A 
HETATM    8  C   UNL     1     -37.345 -49.945  11.226  1.00  0.00     0.070 C 
HETATM    9  N   UNL     1     -37.710 -48.710  13.292  1.00  0.00    -0.303 N 
HETATM   10  N   UNL     1     -38.756 -48.363  14.052  1.00  0.00    -0.300 N 
ATOM     11  HN  UNL     1     -36.726 -48.493  13.449  1.00  0.00     0.186 HD
HETATM   12  C   UNL     1     -38.523 -47.544  15.220  1.00  0.00     0.177 C 
HETATM   13  C   UNL     1     -39.955 -48.834  13.584  1.00  0.00     0.033 A 
HETATM   14  C   UNL     1     -41.254 -48.639  14.277  1.00  0.00     0.070 C 
ENDBRANCH   5   6
ENDBRANCH   2   5
BRANCH   1  15
HETATM   15  C   UNL     1     -42.895 -53.068  12.358  1.00  0.00     0.152 C 
BRANCH  15  16
HETATM   16  C   UNL     1     -44.287 -53.027  13.025  1.00  0.00     0.292 C 
BRANCH  16  17
HETATM   17  N   UNL     1     -44.334 -52.318  14.318  1.00  0.00     0.090 N 
HETATM   18  C   UNL     1     -44.780 -53.147  15.444  1.00  0.00     0.273 C 
HETATM   19  C   UNL     1     -46.261 -53.529  15.371  1.00  0.00     0.034 C 
HETATM   20  C   UNL     1     -47.169 -52.298  15.238  1.00  0.00    -0.015 C 
HETATM   21  C   UNL     1     -47.283 -51.546  16.566  1.00  0.00     0.010 C 
HETATM   22  C   UNL     1     -46.663 -51.379  14.116  1.00  0.00     0.034 C 
HETATM   23  C   UNL     1     -45.158 -51.102  14.216  1.00  0.00     0.273 C 
ENDBRANCH  16  17
ENDBRANCH  15  16
ENDBRANCH   1  15
TORSDOF 5
ENDMDL
MODEL 4
REMARK VINA RESULT:      -5.6      1.988      6.097
REMARK  5 active torsions:
REMARK  status: ('A' for Active; 'I' for Inactive)
REMARK    1  A    between atoms: N_5  and  C_6 
REMARK    2  A    between atoms: C_6  and  C_7 
REMARK    3  A    between atoms: C_7  and  N_8 
REMARK       I    between atoms: N_8  and  C_9 
REMARK    4  A    between atoms: C_9  and  C_11 
REMARK    5  A    between atoms: C_11  and  C_12 
ROOT
HETATM    1  N   UNL     1     -43.212 -53.840  12.689  1.00  0.00    -0.359 N 
HETATM    2  C   UNL     1     -43.786 -54.437  13.791  1.00  0.00     0.222 C 
HETATM    3  O   UNL     1     -43.139 -54.845  14.753  1.00  0.00    -0.273 OA
HETATM    4  H   UNL     1     -43.823 -53.294  12.092  1.00  0.00     0.162 HD
ENDROOT
BRANCH   2   5
HETATM    5  C   UNL     1     -45.296 -54.567  13.732  1.00  0.00     0.145 C 
BRANCH   5   6
HETATM    6  C   UNL     1     -45.967 -53.372  14.318  1.00  0.00    -0.002 A 
HETATM    7  C   UNL     1     -46.502 -52.244  13.630  1.00  0.00     0.030 A 
HETATM    8  C   UNL     1     -46.526 -51.949  12.173  1.00  0.00     0.070 C 
HETATM    9  N   UNL     1     -47.057 -51.372  14.478  1.00  0.00    -0.303 N 
HETATM   10  N   UNL     1     -46.878 -51.915  15.689  1.00  0.00    -0.300 N 
ATOM     11  HN  UNL     1     -47.515 -50.489  14.253  1.00  0.00     0.186 HD
HETATM   12  C   UNL     1     -47.421 -51.234  16.842  1.00  0.00     0.177 C 
HETATM   13  C   UNL     1     -46.195 -53.104  15.661  1.00  0.00     0.033 A 
HETATM   14  C   UNL     1     -45.817 -53.875  16.873  1.00  0.00     0.070 C 
ENDBRANCH   5   6
ENDBRANCH   2   5
BRANCH   1  15
HETATM   15  C   UNL     1     -41.793 -53.515  12.665  1.00  0.00     0.152 C 
BRANCH  15  16
HETATM   16  C   UNL     1     -41.491 -52.133  12.045  1.00  0.00     0.292 C 
BRANCH  16  17
HETATM   17  N   UNL     1     -41.199 -51.066  13.022  1.00  0.00     0.090 N 
HETATM   18  C   UNL     1     -42.323 -50.734  13.904  1.00  0.00     0.273 C 
HETATM   19  C   UNL     1     -43.478 -50.035  13.183  1.00  0.00     0.034 C 
HETATM   20  C   UNL     1     -43.015 -48.778  12.433  1.00  0.00    -0.015 C 
HETATM   21  C   UNL     1     -42.735 -47.625  13.400  1.00  0.00     0.010 C 
HETATM   22  C   UNL     1     -41.786 -49.094  11.568  1.00  0.00     0.034 C 
HETATM   23  C   UNL     1     -40.703 -49.858  12.342  1.00  0.00     0.273 C 
ENDBRANCH  16  17
ENDBRANCH  15  16
ENDBRANCH   1  15
TORSDOF 5
ENDMDL
MODEL 5
REMARK VINA RESULT:      -5.5      2.217      2.932
REMARK  5 active torsions:
REMARK  status: ('A' for Active; 'I' for Inactive)
REMARK    1  A    between atoms: N_5  and  C_6 
REMARK    2  A    between atoms: C_6  and  C_7 
REMARK    3  A    between atoms: C_7  and  N_8 
REMARK       I    between atoms: N_8  and  C_9 
REMARK    4  A    between atoms: C_9  and  C_11 
REMARK    5  A    between atoms: C_11  and  C_12 
ROOT
HETATM    1  N   UNL     1     -40.514 -51.612  11.807  1.00  0.00    -0.359 N 
HETATM    2  C   UNL     1     -39.592 -50.950  12.589  1.00  0.00     0.222 C 
HETATM    3  O   UNL     1     -39.389 -51.222  13.770  1.00  0.00    -0.273 OA
HETATM    4  H   UNL     1     -40.416 -51.518  10.802  1.00  0.00     0.162 HD
ENDROOT
BRANCH   2   5
HETATM    5  C   UNL     1     -38.839 -49.838  11.885  1.00  0.00     0.145 C 
BRANCH   5   6
HETATM    6  C   UNL     1     -39.253 -48.497  12.389  1.00  0.00    -0.002 A 
HETATM    7  C   UNL     1     -40.318 -47.677  11.919  1.00  0.00     0.030 A 
HETATM    8  C   UNL     1     -41.281 -47.920  10.812  1.00  0.00     0.070 C 
HETATM    9  N   UNL     1     -40.416 -46.548  12.627  1.00  0.00    -0.303 N 
HETATM   10  N   UNL     1     -39.430 -46.628  13.530  1.00  0.00    -0.300 N 
ATOM     11  HN  UNL     1     -41.091 -45.793  12.506  1.00  0.00     0.186 HD
HETATM   12  C   UNL     1     -39.293 -45.568  14.502  1.00  0.00     0.177 C 
HETATM   13  C   UNL     1     -38.672 -47.764  13.414  1.00  0.00     0.033 A 
HETATM   14  C   UNL     1     -37.484 -48.061  14.255  1.00  0.00     0.070 C 
ENDBRANCH   5   6
ENDBRANCH   2   5
BRANCH   1  15
HETATM   15  C   UNL     1     -41.206 -52.794  12.299  1.00  0.00     0.152 C 
BRANCH  15  16
HETATM   16  C   UNL     1     -42.743 -52.700  12.179  1.00  0.00     0.292 C 
BRANCH  16  17
HETATM   17  N   UNL     1     -43.482 -53.020  13.415  1.00  0.00     0.090 N 
HETATM   18  C   UNL     1     -44.807 -53.608  13.190  1.00  0.00     0.273 C 
HETATM   19  C   UNL     1     -45.820 -52.623  12.601  1.00  0.00     0.034 C 
HETATM   20  C   UNL     1     -45.952 -51.352  13.451  1.00  0.00    -0.015 C 
HETATM   21  C   UNL     1     -46.746 -51.620  14.732  1.00  0.00     0.010 C 
HETATM   22  C   UNL     1     -44.565 -50.771  13.765  1.00  0.00     0.034 C 
HETATM   23  C   UNL     1     -43.586 -51.834  14.282  1.00  0.00     0.273 C 
ENDBRANCH  16  17
ENDBRANCH  15  16
ENDBRANCH   1  15
TORSDOF 5
ENDMDL
MODEL 6
REMARK VINA RESULT:      -5.5      2.658      4.059
REMARK  5 active torsions:
REMARK  status: ('A' for Active; 'I' for Inactive)
REMARK    1  A    between atoms: N_5  and  C_6 
REMARK    2  A    between atoms: C_6  and  C_7 
REMARK    3  A    between atoms: C_7  and  N_8 
REMARK       I    between atoms: N_8  and  C_9 
REMARK    4  A    between atoms: C_9  and  C_11 
REMARK    5  A    between atoms: C_11  and  C_12 
ROOT
HETATM    1  N   UNL     1     -39.468 -49.750  13.368  1.00  0.00    -0.359 N 
HETATM    2  C   UNL     1     -39.265 -48.734  12.459  1.00  0.00     0.222 C 
HETATM    3  O   UNL     1     -38.538 -48.843  11.475  1.00  0.00    -0.273 OA
HETATM    4  H   UNL     1     -40.280 -49.671  13.971  1.00  0.00     0.162 HD
ENDROOT
BRANCH   2   5
HETATM    5  C   UNL     1     -40.007 -47.447  12.765  1.00  0.00     0.145 C 
BRANCH   5   6
HETATM    6  C   UNL     1     -40.950 -47.090  11.667  1.00  0.00    -0.002 A 
HETATM    7  C   UNL     1     -40.759 -46.137  10.625  1.00  0.00     0.030 A 
HETATM    8  C   UNL     1     -39.598 -45.247  10.360  1.00  0.00     0.070 C 
HETATM    9  N   UNL     1     -41.808 -46.098   9.798  1.00  0.00    -0.303 N 
HETATM   10  N   UNL     1     -42.666 -46.998  10.297  1.00  0.00    -0.300 N 
ATOM     11  HN  UNL     1     -41.929 -45.513   8.971  1.00  0.00     0.186 HD
HETATM   12  C   UNL     1     -43.902 -47.242   9.590  1.00  0.00     0.177 C 
HETATM   13  C   UNL     1     -42.220 -47.603  11.443  1.00  0.00     0.033 A 
HETATM   14  C   UNL     1     -43.008 -48.592  12.222  1.00  0.00     0.070 C 
ENDBRANCH   5   6
ENDBRANCH   2   5
BRANCH   1  15
HETATM   15  C   UNL     1     -38.942 -51.086  13.131  1.00  0.00     0.152 C 
BRANCH  15  16
HETATM   16  C   UNL     1     -39.870 -52.211  13.641  1.00  0.00     0.292 C 
BRANCH  16  17
HETATM   17  N   UNL     1     -40.695 -52.853  12.600  1.00  0.00     0.090 N 
HETATM   18  C   UNL     1     -41.901 -52.100  12.238  1.00  0.00     0.273 C 
HETATM   19  C   UNL     1     -42.959 -52.076  13.344  1.00  0.00     0.034 C 
HETATM   20  C   UNL     1     -43.345 -53.488  13.806  1.00  0.00    -0.015 C 
HETATM   21  C   UNL     1     -44.236 -54.186  12.776  1.00  0.00     0.010 C 
HETATM   22  C   UNL     1     -42.086 -54.314  14.109  1.00  0.00     0.034 C 
HETATM   23  C   UNL     1     -41.043 -54.230  12.986  1.00  0.00     0.273 C 
ENDBRANCH  16  17
ENDBRANCH  15  16
ENDBRANCH   1  15
TORSDOF 5
ENDMDL
MODEL 7
REMARK VINA RESULT:      -5.5      2.428      3.713
REMARK  5 active torsions:
REMARK  status: ('A' for Active; 'I' for Inactive)
REMARK    1  A    between atoms: N_5  and  C_6 
REMARK    2  A    between atoms: C_6  and  C_7 
REMARK    3  A    between atoms: C_7  and  N_8 
REMARK       I    between atoms: N_8  and  C_9 
REMARK    4  A    between atoms: C_9  and  C_11 
REMARK    5  A    between atoms: C_11  and  C_12 
ROOT
HETATM    1  N   UNL     1     -40.866 -50.692  11.360  1.00  0.00    -0.359 N 
HETATM    2  C   UNL     1     -40.871 -49.437  11.930  1.00  0.00     0.222 C 
HETATM    3  O   UNL     1     -41.145 -49.232  13.110  1.00  0.00    -0.273 OA
HETATM    4  H   UNL     1     -40.366 -50.797  10.484  1.00  0.00     0.162 HD
ENDROOT
BRANCH   2   5
HETATM    5  C   UNL     1     -40.517 -48.306  10.984  1.00  0.00     0.145 C 
BRANCH   5   6
HETATM    6  C   UNL     1     -41.326 -47.087  11.269  1.00  0.00    -0.002 A 
HETATM    7  C   UNL     1     -42.653 -46.797  10.836  1.00  0.00     0.030 A 
HETATM    8  C   UNL     1     -43.569 -47.606   9.990  1.00  0.00     0.070 C 
HETATM    9  N   UNL     1     -43.074 -45.618  11.305  1.00  0.00    -0.303 N 
HETATM   10  N   UNL     1     -42.042 -45.149  12.017  1.00  0.00    -0.300 N 
ATOM     11  HN  UNL     1     -43.980 -45.176  11.153  1.00  0.00     0.186 HD
HETATM   12  C   UNL     1     -42.196 -43.892  12.713  1.00  0.00     0.177 C 
HETATM   13  C   UNL     1     -40.946 -45.972  12.004  1.00  0.00     0.033 A 
HETATM   14  C   UNL     1     -39.656 -45.651  12.666  1.00  0.00     0.070 C 
ENDBRANCH   5   6
ENDBRANCH   2   5
BRANCH   1  15
HETATM   15  C   UNL     1     -41.041 -51.887  12.172  1.00  0.00     0.152 C 
BRANCH  15  16
HETATM   16  C   UNL     1     -42.444 -52.520  12.039  1.00  0.00     0.292 C 
BRANCH  16  17
HETATM   17  N   UNL     1     -43.111 -52.822  13.320  1.00  0.00     0.090 N 
HETATM   18  C   UNL     1     -44.364 -53.573  13.184  1.00  0.00     0.273 C 
HETATM   19  C   UNL     1     -45.498 -52.759  12.554  1.00  0.00     0.034 C 
HETATM   20  C   UNL     1     -45.756 -51.448  13.309  1.00  0.00    -0.015 C 
HETATM   21  C   UNL     1     -46.483 -51.701  14.631  1.00  0.00     0.010 C 
HETATM   22  C   UNL     1     -44.438 -50.691  13.531  1.00  0.00     0.034 C 
HETATM   23  C   UNL     1     -43.331 -51.590  14.096  1.00  0.00     0.273 C 
ENDBRANCH  16  17
ENDBRANCH  15  16
ENDBRANCH   1  15
TORSDOF 5
ENDMDL
MODEL 8
REMARK VINA RESULT:      -5.3      1.842      7.146
REMARK  5 active torsions:
REMARK  status: ('A' for Active; 'I' for Inactive)
REMARK    1  A    between atoms: N_5  and  C_6 
REMARK    2  A    between atoms: C_6  and  C_7 
REMARK    3  A    between atoms: C_7  and  N_8 
REMARK       I    between atoms: N_8  and  C_9 
REMARK    4  A    between atoms: C_9  and  C_11 
REMARK    5  A    between atoms: C_11  and  C_12 
ROOT
HETATM    1  N   UNL     1     -42.739 -51.439  12.121  1.00  0.00    -0.359 N 
HETATM    2  C   UNL     1     -42.607 -52.768  12.463  1.00  0.00     0.222 C 
HETATM    3  O   UNL     1     -41.536 -53.281  12.778  1.00  0.00    -0.273 OA
HETATM    4  H   UNL     1     -43.673 -51.048  12.153  1.00  0.00     0.162 HD
ENDROOT
BRANCH   2   5
HETATM    5  C   UNL     1     -43.893 -53.570  12.416  1.00  0.00     0.145 C 
BRANCH   5   6
HETATM    6  C   UNL     1     -44.681 -53.407  13.671  1.00  0.00    -0.002 A 
HETATM    7  C   UNL     1     -45.812 -52.568  13.891  1.00  0.00     0.030 A 
HETATM    8  C   UNL     1     -46.495 -51.637  12.954  1.00  0.00     0.070 C 
HETATM    9  N   UNL     1     -46.283 -52.697  15.135  1.00  0.00    -0.303 N 
HETATM   10  N   UNL     1     -45.471 -53.591  15.713  1.00  0.00    -0.300 N 
ATOM     11  HN  UNL     1     -47.083 -52.221  15.551  1.00  0.00     0.186 HD
HETATM   12  C   UNL     1     -45.746 -54.000  17.072  1.00  0.00     0.177 C 
HETATM   13  C   UNL     1     -44.464 -54.029  14.893  1.00  0.00     0.033 A 
HETATM   14  C   UNL     1     -43.399 -54.974  15.314  1.00  0.00     0.070 C 
ENDBRANCH   5   6
ENDBRANCH   2   5
BRANCH   1  15
HETATM   15  C   UNL     1     -41.624 -50.513  12.261  1.00  0.00     0.152 C 
BRANCH  15  16
HETATM   16  C   UNL     1     -42.010 -49.043  11.988  1.00  0.00     0.292 C 
BRANCH  16  17
HETATM   17  N   UNL     1     -41.166 -48.356  10.992  1.00  0.00     0.090 N 
HETATM   18  C   UNL     1     -39.915 -47.812  11.534  1.00  0.00     0.273 C 
HETATM   19  C   UNL     1     -40.125 -46.623  12.474  1.00  0.00     0.034 C 
HETATM   20  C   UNL     1     -40.938 -45.500  11.814  1.00  0.00    -0.015 C 
HETATM   21  C   UNL     1     -40.094 -44.728  10.796  1.00  0.00     0.010 C 
HETATM   22  C   UNL     1     -42.210 -46.070  11.169  1.00  0.00     0.034 C 
HETATM   23  C   UNL     1     -41.928 -47.303  10.300  1.00  0.00     0.273 C 
ENDBRANCH  16  17
ENDBRANCH  15  16
ENDBRANCH   1  15
TORSDOF 5
ENDMDL
MODEL 9
REMARK VINA RESULT:      -5.2      2.540      3.237
REMARK  5 active torsions:
REMARK  status: ('A' for Active; 'I' for Inactive)
REMARK    1  A    between atoms: N_5  and  C_6 
REMARK    2  A    between atoms: C_6  and  C_7 
REMARK    3  A    between atoms: C_7  and  N_8 
REMARK       I    between atoms: N_8  and  C_9 
REMARK    4  A    between atoms: C_9  and  C_11 
REMARK    5  A    between atoms: C_11  and  C_12 
ROOT
HETATM    1  N   UNL     1     -40.137 -51.626  12.048  1.00  0.00    -0.359 N 
HETATM    2  C   UNL     1     -39.088 -51.576  12.941  1.00  0.00     0.222 C 
HETATM    3  O   UNL     1     -39.013 -52.295  13.935  1.00  0.00    -0.273 OA
HETATM    4  H   UNL     1     -39.982 -51.214  11.135  1.00  0.00     0.162 HD
ENDROOT
BRANCH   2   5
HETATM    5  C   UNL     1     -38.019 -50.552  12.614  1.00  0.00     0.145 C 
BRANCH   5   6
HETATM    6  C   UNL     1     -38.179 -49.318  13.435  1.00  0.00    -0.002 A 
HETATM    7  C   UNL     1     -38.900 -48.135  13.103  1.00  0.00     0.030 A 
HETATM    8  C   UNL     1     -39.663 -47.807  11.870  1.00  0.00     0.070 C 
HETATM    9  N   UNL     1     -38.851 -47.238  14.093  1.00  0.00    -0.303 N 
HETATM   10  N   UNL     1     -38.107 -47.821  15.042  1.00  0.00    -0.300 N 
ATOM     11  HN  UNL     1     -39.284 -46.315  14.120  1.00  0.00     0.186 HD
HETATM   12  C   UNL     1     -37.904 -47.122  16.290  1.00  0.00     0.177 C 
HETATM   13  C   UNL     1     -37.643 -49.062  14.689  1.00  0.00     0.033 A 
HETATM   14  C   UNL     1     -36.749 -49.888  15.540  1.00  0.00     0.070 C 
ENDBRANCH   5   6
ENDBRANCH   2   5
BRANCH   1  15
HETATM   15  C   UNL     1     -41.161 -52.655  12.149  1.00  0.00     0.152 C 
BRANCH  15  16
HETATM   16  C   UNL     1     -42.571 -52.092  12.431  1.00  0.00     0.292 C 
BRANCH  16  17
HETATM   17  N   UNL     1     -43.348 -52.843  13.436  1.00  0.00     0.090 N 
HETATM   18  C   UNL     1     -44.578 -53.451  12.916  1.00  0.00     0.273 C 
HETATM   19  C   UNL     1     -45.657 -52.428  12.551  1.00  0.00     0.034 C 
HETATM   20  C   UNL     1     -45.992 -51.498  13.726  1.00  0.00    -0.015 C 
HETATM   21  C   UNL     1     -46.833 -52.219  14.783  1.00  0.00     0.010 C 
HETATM   22  C   UNL     1     -44.706 -50.919  14.333  1.00  0.00     0.034 C 
HETATM   23  C   UNL     1     -43.646 -51.996  14.603  1.00  0.00     0.273 C 
ENDBRANCH  16  17
ENDBRANCH  15  16
ENDBRANCH   1  15
TORSDOF 5
ENDMDL
