MODEL 1
REMARK VINA RESULT:      -6.1      0.000      0.000
REMARK  4 active torsions:
REMARK  status: ('A' for Active; 'I' for Inactive)
REMARK    1  A    between atoms: C_2  and  N_3 
REMARK    2  A    between atoms: C_2  and  C_14 
REMARK       I    between atoms: N_3  and  C_4 
REMARK       I    between atoms: C_4  and  N_6 
REMARK    3  A    between atoms: N_6  and  C_7 
REMARK    4  A    between atoms: C_14  and  N_19 
ROOT
HETATM    1  C   UNL     1     -41.571 -48.545  10.683  1.00  0.00     0.035 C 
HETATM    2  C   UNL     1     -41.305 -49.348  11.971  1.00  0.00     0.120 C 
ENDROOT
BRANCH   2   3
HETATM    3  N   UNL     1     -41.892 -50.712  11.783  1.00  0.00    -0.336 N 
HETATM    4  C   UNL     1     -42.693 -51.317  12.724  1.00  0.00     0.321 C 
HETATM    5  O   UNL     1     -42.850 -50.877  13.857  1.00  0.00    -0.247 OA
HETATM    6  N   UNL     1     -43.360 -52.427  12.239  1.00  0.00    -0.309 N 
HETATM    7  H   UNL     1     -42.993 -52.866  11.409  1.00  0.00     0.170 HD
HETATM    8  H   UNL     1     -41.413 -51.317  11.134  1.00  0.00     0.164 HD
BRANCH   6   9
HETATM    9  C   UNL     1     -44.439 -53.057  12.910  1.00  0.00     0.038 A 
HETATM   10  C   UNL     1     -44.392 -54.378  13.361  1.00  0.00     0.046 A 
HETATM   11  C   UNL     1     -45.502 -54.920  13.995  1.00  0.00     0.090 A 
HETATM   12  N   UNL     1     -46.638 -54.231  14.219  1.00  0.00    -0.375 N 
HETATM   13  C   UNL     1     -46.655 -52.950  13.794  1.00  0.00     0.090 A 
ATOM     14  HN  UNL     1     -47.441 -54.653  14.686  1.00  0.00     0.164 HD
HETATM   15  C   UNL     1     -45.595 -52.327  13.150  1.00  0.00     0.046 A 
ENDBRANCH   6   9
ENDBRANCH   2   3
BRANCH   2  16
HETATM   16  C   UNL     1     -39.797 -49.363  12.630  1.00  0.00     0.179 C 
HETATM   17  C   UNL     1     -38.714 -48.889  11.624  1.00  0.00     0.044 C 
HETATM   18  C   UNL     1     -37.466 -49.761  11.756  1.00  0.00     0.003 C 
HETATM   19  C   UNL     1     -37.869 -50.993  12.539  1.00  0.00     0.003 C 
HETATM   20  C   UNL     1     -39.378 -50.883  12.753  1.00  0.00     0.044 C 
BRANCH  16  21
HETATM   21  N   UNL     1     -39.760 -48.774  14.027  1.00  0.00     0.104 N 
HETATM   22  C   UNL     1     -40.921 -48.030  14.550  1.00  0.00     0.299 C 
HETATM   23  C   UNL     1     -41.038 -46.598  14.026  1.00  0.00     0.198 C 
HETATM   24  O   UNL     1     -39.900 -45.836  14.450  1.00  0.00    -0.388 OA
HETATM   25  C   UNL     1     -38.666 -46.466  14.077  1.00  0.00     0.198 C 
HETATM   26  C   UNL     1     -38.600 -47.961  14.458  1.00  0.00     0.299 C 
ENDBRANCH  16  21
ENDBRANCH   2  16
TORSDOF 4
ENDMDL
MODEL 2
REMARK VINA RESULT:      -6.1      2.549      7.869
REMARK  4 active torsions:
REMARK  status: ('A' for Active; 'I' for Inactive)
REMARK    1  A    between atoms: C_2  and  N_3 
REMARK    2  A    between atoms: C_2  and  C_14 
REMARK       I    between atoms: N_3  and  C_4 
REMARK       I    between atoms: C_4  and  N_6 
REMARK    3  A    between atoms: N_6  and  C_7 
REMARK    4  A    between atoms: C_14  and  N_19 
ROOT
HETATM    1  C   UNL     1     -46.369 -51.555  12.948  1.00  0.00     0.035 C 
HETATM    2  C   UNL     1     -45.500 -51.705  14.212  1.00  0.00     0.120 C 
ENDROOT
BRANCH   2   3
HETATM    3  N   UNL     1     -44.613 -50.503  14.297  1.00  0.00    -0.336 N 
HETATM    4  C   UNL     1     -43.527 -50.317  13.473  1.00  0.00     0.321 C 
HETATM    5  O   UNL     1     -43.090 -51.187  12.729  1.00  0.00    -0.247 OA
HETATM    6  N   UNL     1     -43.027 -49.028  13.515  1.00  0.00    -0.309 N 
HETATM    7  H   UNL     1     -43.261 -48.462  14.315  1.00  0.00     0.170 HD
HETATM    8  H   UNL     1     -44.604 -50.017  15.181  1.00  0.00     0.164 HD
BRANCH   6   9
HETATM    9  C   UNL     1     -42.101 -48.508  12.574  1.00  0.00     0.038 A 
HETATM   10  C   UNL     1     -40.718 -48.526  12.771  1.00  0.00     0.046 A 
HETATM   11  C   UNL     1     -39.887 -47.979  11.802  1.00  0.00     0.090 A 
HETATM   12  N   UNL     1     -40.341 -47.437  10.656  1.00  0.00    -0.375 N 
HETATM   13  C   UNL     1     -41.678 -47.449  10.476  1.00  0.00     0.090 A 
ATOM     14  HN  UNL     1     -39.708 -47.040   9.961  1.00  0.00     0.164 HD
HETATM   15  C   UNL     1     -42.584 -47.970  11.389  1.00  0.00     0.046 A 
ENDBRANCH   6   9
ENDBRANCH   2   3
BRANCH   2  16
HETATM   16  C   UNL     1     -46.202 -52.110  15.645  1.00  0.00     0.179 C 
HETATM   17  C   UNL     1     -47.604 -51.465  15.812  1.00  0.00     0.044 C 
HETATM   18  C   UNL     1     -47.782 -50.973  17.248  1.00  0.00     0.003 C 
HETATM   19  C   UNL     1     -46.405 -50.947  17.879  1.00  0.00     0.003 C 
HETATM   20  C   UNL     1     -45.423 -51.311  16.766  1.00  0.00     0.044 C 
BRANCH  16  21
HETATM   21  N   UNL     1     -46.067 -53.584  15.970  1.00  0.00     0.104 N 
HETATM   22  C   UNL     1     -44.815 -54.105  16.551  1.00  0.00     0.299 C 
HETATM   23  C   UNL     1     -43.686 -54.299  15.537  1.00  0.00     0.198 C 
HETATM   24  O   UNL     1     -44.072 -55.281  14.568  1.00  0.00    -0.388 OA
HETATM   25  C   UNL     1     -45.325 -54.960  13.949  1.00  0.00     0.198 C 
HETATM   26  C   UNL     1     -46.436 -54.603  14.961  1.00  0.00     0.299 C 
ENDBRANCH  16  21
ENDBRANCH   2  16
TORSDOF 4
ENDMDL
MODEL 3
REMARK VINA RESULT:      -6.1      2.615      7.624
REMARK  4 active torsions:
REMARK  status: ('A' for Active; 'I' for Inactive)
REMARK    1  A    between atoms: C_2  and  N_3 
REMARK    2  A    between atoms: C_2  and  C_14 
REMARK       I    between atoms: N_3  and  C_4 
REMARK       I    between atoms: C_4  and  N_6 
REMARK    3  A    between atoms: N_6  and  C_7 
REMARK    4  A    between atoms: C_14  and  N_19 
ROOT
HETATM    1  C   UNL     1     -41.437 -52.852  13.114  1.00  0.00     0.035 C 
HETATM    2  C   UNL     1     -42.587 -51.849  13.332  1.00  0.00     0.120 C 
ENDROOT
BRANCH   2   3
HETATM    3  N   UNL     1     -42.613 -50.928  12.152  1.00  0.00    -0.336 N 
HETATM    4  C   UNL     1     -42.501 -49.561  12.269  1.00  0.00     0.321 C 
HETATM    5  O   UNL     1     -42.548 -48.972  13.342  1.00  0.00    -0.247 OA
HETATM    6  N   UNL     1     -42.254 -48.931  11.063  1.00  0.00    -0.309 N 
HETATM    7  H   UNL     1     -42.482 -49.432  10.219  1.00  0.00     0.170 HD
HETATM    8  H   UNL     1     -43.065 -51.280  11.322  1.00  0.00     0.164 HD
BRANCH   6   9
HETATM    9  C   UNL     1     -41.830 -47.582  10.948  1.00  0.00     0.038 A 
HETATM   10  C   UNL     1     -42.714 -46.516  10.765  1.00  0.00     0.046 A 
HETATM   11  C   UNL     1     -42.209 -45.227  10.646  1.00  0.00     0.090 A 
HETATM   12  N   UNL     1     -40.896 -44.937  10.714  1.00  0.00    -0.375 N 
HETATM   13  C   UNL     1     -40.061 -45.978  10.912  1.00  0.00     0.090 A 
ATOM     14  HN  UNL     1     -40.550 -43.981  10.622  1.00  0.00     0.164 HD
HETATM   15  C   UNL     1     -40.475 -47.297  11.040  1.00  0.00     0.046 A 
ENDBRANCH   6   9
ENDBRANCH   2   3
BRANCH   2  16
HETATM   16  C   UNL     1     -44.075 -52.393  13.777  1.00  0.00     0.179 C 
HETATM   17  C   UNL     1     -45.134 -52.177  12.663  1.00  0.00     0.044 C 
HETATM   18  C   UNL     1     -46.452 -51.712  13.283  1.00  0.00     0.003 C 
HETATM   19  C   UNL     1     -46.142 -51.268  14.697  1.00  0.00     0.003 C 
HETATM   20  C   UNL     1     -44.625 -51.367  14.848  1.00  0.00     0.044 C 
BRANCH  16  21
HETATM   21  N   UNL     1     -44.028 -53.754  14.443  1.00  0.00     0.104 N 
HETATM   22  C   UNL     1     -45.020 -54.788  14.093  1.00  0.00     0.299 C 
HETATM   23  C   UNL     1     -46.389 -54.593  14.749  1.00  0.00     0.198 C 
HETATM   24  O   UNL     1     -46.257 -54.687  16.173  1.00  0.00    -0.388 OA
HETATM   25  C   UNL     1     -45.264 -53.784  16.679  1.00  0.00     0.198 C 
HETATM   26  C   UNL     1     -43.923 -53.856  15.917  1.00  0.00     0.299 C 
ENDBRANCH  16  21
ENDBRANCH   2  16
TORSDOF 4
ENDMDL
MODEL 4
REMARK VINA RESULT:      -6.1      2.944      5.943
REMARK  4 active torsions:
REMARK  status: ('A' for Active; 'I' for Inactive)
REMARK    1  A    between atoms: C_2  and  N_3 
REMARK    2  A    between atoms: C_2  and  C_14 
REMARK       I    between atoms: N_3  and  C_4 
REMARK       I    between atoms: C_4  and  N_6 
REMARK    3  A    between atoms: N_6  and  C_7 
REMARK    4  A    between atoms: C_14  and  N_19 
ROOT
HETATM    1  C   UNL     1     -38.398 -49.242  11.719  1.00  0.00     0.035 C 
HETATM    2  C   UNL     1     -39.864 -49.452  12.143  1.00  0.00     0.120 C 
ENDROOT
BRANCH   2   3
HETATM    3  N   UNL     1     -40.716 -49.291  10.923  1.00  0.00    -0.336 N 
HETATM    4  C   UNL     1     -41.902 -48.594  10.926  1.00  0.00     0.321 C 
HETATM    5  O   UNL     1     -42.449 -48.202  11.951  1.00  0.00    -0.247 OA
HETATM    6  N   UNL     1     -42.375 -48.317   9.656  1.00  0.00    -0.309 N 
HETATM    7  H   UNL     1     -42.024 -48.878   8.896  1.00  0.00     0.170 HD
HETATM    8  H   UNL     1     -40.596 -49.985  10.201  1.00  0.00     0.164 HD
BRANCH   6   9
HETATM    9  C   UNL     1     -43.414 -47.391   9.384  1.00  0.00     0.038 A 
HETATM   10  C   UNL     1     -43.186 -46.033   9.149  1.00  0.00     0.046 A 
HETATM   11  C   UNL     1     -44.267 -45.195   8.905  1.00  0.00     0.090 A 
HETATM   12  N   UNL     1     -45.543 -45.624   8.866  1.00  0.00    -0.375 N 
HETATM   13  C   UNL     1     -45.739 -46.942   9.075  1.00  0.00     0.090 A 
ATOM     14  HN  UNL     1     -46.319 -44.987   8.687  1.00  0.00     0.164 HD
HETATM   15  C   UNL     1     -44.722 -47.852   9.328  1.00  0.00     0.046 A 
ENDBRANCH   6   9
ENDBRANCH   2   3
BRANCH   2  16
HETATM   16  C   UNL     1     -40.272 -50.752  13.066  1.00  0.00     0.179 C 
HETATM   17  C   UNL     1     -40.590 -50.353  14.531  1.00  0.00     0.044 C 
HETATM   18  C   UNL     1     -39.996 -51.384  15.491  1.00  0.00     0.003 C 
HETATM   19  C   UNL     1     -39.001 -52.203  14.697  1.00  0.00     0.003 C 
HETATM   20  C   UNL     1     -38.937 -51.564  13.311  1.00  0.00     0.044 C 
BRANCH  16  21
HETATM   21  N   UNL     1     -41.242 -51.686  12.369  1.00  0.00     0.104 N 
HETATM   22  C   UNL     1     -42.664 -51.707  12.761  1.00  0.00     0.299 C 
HETATM   23  C   UNL     1     -42.949 -52.487  14.047  1.00  0.00     0.198 C 
HETATM   24  O   UNL     1     -42.605 -53.865  13.861  1.00  0.00    -0.388 OA
HETATM   25  C   UNL     1     -41.254 -54.022  13.403  1.00  0.00     0.198 C 
HETATM   26  C   UNL     1     -40.904 -53.117  12.202  1.00  0.00     0.299 C 
ENDBRANCH  16  21
ENDBRANCH   2  16
TORSDOF 4
ENDMDL
MODEL 5
REMARK VINA RESULT:      -5.9      2.589      7.118
REMARK  4 active torsions:
REMARK  status: ('A' for Active; 'I' for Inactive)
REMARK    1  A    between atoms: C_2  and  N_3 
REMARK    2  A    between atoms: C_2  and  C_14 
REMARK       I    between atoms: N_3  and  C_4 
REMARK       I    between atoms: C_4  and  N_6 
REMARK    3  A    between atoms: N_6  and  C_7 
REMARK    4  A    between atoms: C_14  and  N_19 
ROOT
HETATM    1  C   UNL     1     -41.040 -53.011  12.585  1.00  0.00     0.035 C 
HETATM    2  C   UNL     1     -42.119 -52.007  13.036  1.00  0.00     0.120 C 
ENDROOT
BRANCH   2   3
HETATM    3  N   UNL     1     -42.289 -51.002  11.940  1.00  0.00    -0.336 N 
HETATM    4  C   UNL     1     -42.169 -49.647  12.144  1.00  0.00     0.321 C 
HETATM    5  O   UNL     1     -42.092 -49.139  13.257  1.00  0.00    -0.247 OA
HETATM    6  N   UNL     1     -42.069 -48.926  10.969  1.00  0.00    -0.309 N 
HETATM    7  H   UNL     1     -42.393 -49.366  10.122  1.00  0.00     0.170 HD
HETATM    8  H   UNL     1     -42.834 -51.298  11.145  1.00  0.00     0.164 HD
BRANCH   6   9
HETATM    9  C   UNL     1     -41.668 -47.567  10.906  1.00  0.00     0.038 A 
HETATM   10  C   UNL     1     -40.340 -47.154  11.042  1.00  0.00     0.046 A 
HETATM   11  C   UNL     1     -40.040 -45.799  10.983  1.00  0.00     0.090 A 
HETATM   12  N   UNL     1     -40.967 -44.843  10.783  1.00  0.00    -0.375 N 
HETATM   13  C   UNL     1     -42.240 -45.265  10.633  1.00  0.00     0.090 A 
ATOM     14  HN  UNL     1     -40.721 -43.854  10.745  1.00  0.00     0.164 HD
HETATM   15  C   UNL     1     -42.632 -46.595  10.680  1.00  0.00     0.046 A 
ENDBRANCH   6   9
ENDBRANCH   2   3
BRANCH   2  16
HETATM   16  C   UNL     1     -43.543 -52.557  13.653  1.00  0.00     0.179 C 
HETATM   17  C   UNL     1     -43.327 -53.617  14.766  1.00  0.00     0.044 C 
HETATM   18  C   UNL     1     -44.350 -54.742  14.617  1.00  0.00     0.003 C 
HETATM   19  C   UNL     1     -44.949 -54.614  13.232  1.00  0.00     0.003 C 
HETATM   20  C   UNL     1     -44.182 -53.485  12.544  1.00  0.00     0.044 C 
BRANCH  16  21
HETATM   21  N   UNL     1     -44.533 -51.443  13.930  1.00  0.00     0.104 N 
HETATM   22  C   UNL     1     -44.540 -50.765  15.241  1.00  0.00     0.299 C 
HETATM   23  C   UNL     1     -45.229 -51.557  16.354  1.00  0.00     0.198 C 
HETATM   24  O   UNL     1     -46.614 -51.736  16.031  1.00  0.00    -0.388 OA
HETATM   25  C   UNL     1     -46.790 -52.328  14.736  1.00  0.00     0.198 C 
HETATM   26  C   UNL     1     -45.969 -51.634  13.627  1.00  0.00     0.299 C 
ENDBRANCH  16  21
ENDBRANCH   2  16
TORSDOF 4
ENDMDL
MODEL 6
REMARK VINA RESULT:      -5.9      1.737      3.165
REMARK  4 active torsions:
REMARK  status: ('A' for Active; 'I' for Inactive)
REMARK    1  A    between atoms: C_2  and  N_3 
REMARK    2  A    between atoms: C_2  and  C_14 
REMARK       I    between atoms: N_3  and  C_4 
REMARK       I    between atoms: C_4  and  N_6 
REMARK    3  A    between atoms: N_6  and  C_7 
REMARK    4  A    between atoms: C_14  and  N_19 
ROOT
HETATM    1  C   UNL     1     -42.999 -47.952  14.483  1.00  0.00     0.035 C 
HETATM    2  C   UNL     1     -42.381 -48.603  13.231  1.00  0.00     0.120 C 
ENDROOT
BRANCH   2   3
HETATM    3  N   UNL     1     -43.389 -49.560  12.674  1.00  0.00    -0.336 N 
HETATM    4  C   UNL     1     -43.600 -50.813  13.202  1.00  0.00     0.321 C 
HETATM    5  O   UNL     1     -42.872 -51.317  14.049  1.00  0.00    -0.247 OA
HETATM    6  N   UNL     1     -44.757 -51.410  12.738  1.00  0.00    -0.309 N 
HETATM    7  H   UNL     1     -45.151 -51.060  11.879  1.00  0.00     0.170 HD
HETATM    8  H   UNL     1     -43.650 -49.420  11.711  1.00  0.00     0.164 HD
BRANCH   6   9
HETATM    9  C   UNL     1     -45.340 -52.564  13.321  1.00  0.00     0.038 A 
HETATM   10  C   UNL     1     -44.854 -53.857  13.111  1.00  0.00     0.046 A 
HETATM   11  C   UNL     1     -45.498 -54.931  13.710  1.00  0.00     0.090 A 
HETATM   12  N   UNL     1     -46.574 -54.799  14.510  1.00  0.00    -0.375 N 
HETATM   13  C   UNL     1     -47.015 -53.540  14.716  1.00  0.00     0.090 A 
ATOM     14  HN  UNL     1     -47.031 -55.605  14.936  1.00  0.00     0.164 HD
HETATM   15  C   UNL     1     -46.437 -52.409  14.158  1.00  0.00     0.046 A 
ENDBRANCH   6   9
ENDBRANCH   2   3
BRANCH   2  16
HETATM   16  C   UNL     1     -41.663 -47.661  12.088  1.00  0.00     0.179 C 
HETATM   17  C   UNL     1     -42.091 -46.173  12.203  1.00  0.00     0.044 C 
HETATM   18  C   UNL     1     -42.315 -45.588  10.809  1.00  0.00     0.003 C 
HETATM   19  C   UNL     1     -42.411 -46.756   9.851  1.00  0.00     0.003 C 
HETATM   20  C   UNL     1     -42.360 -48.017  10.713  1.00  0.00     0.044 C 
BRANCH  16  21
HETATM   21  N   UNL     1     -40.184 -47.954  11.929  1.00  0.00     0.104 N 
HETATM   22  C   UNL     1     -39.733 -49.297  11.517  1.00  0.00     0.299 C 
HETATM   23  C   UNL     1     -39.745 -50.335  12.641  1.00  0.00     0.198 C 
HETATM   24  O   UNL     1     -38.825 -49.944  13.668  1.00  0.00    -0.388 OA
HETATM   25  C   UNL     1     -39.083 -48.613  14.138  1.00  0.00     0.198 C 
HETATM   26  C   UNL     1     -39.235 -47.579  13.001  1.00  0.00     0.299 C 
ENDBRANCH  16  21
ENDBRANCH   2  16
TORSDOF 4
ENDMDL
MODEL 7
REMARK VINA RESULT:      -5.7      1.703      3.196
REMARK  4 active torsions:
REMARK  status: ('A' for Active; 'I' for Inactive)
REMARK    1  A    between atoms: C_2  and  N_3 
REMARK    2  A    between atoms: C_2  and  C_14 
REMARK       I    between atoms: N_3  and  C_4 
REMARK       I    between atoms: C_4  and  N_6 
REMARK    3  A    between atoms: N_6  and  C_7 
REMARK    4  A    between atoms: C_14  and  N_19 
ROOT
HETATM    1  C   UNL     1     -42.145 -47.473  14.906  1.00  0.00     0.035 C 
HETATM    2  C   UNL     1     -41.390 -48.272  13.826  1.00  0.00     0.120 C 
ENDROOT
BRANCH   2   3
HETATM    3  N   UNL     1     -42.404 -49.054  13.050  1.00  0.00    -0.336 N 
HETATM    4  C   UNL     1     -42.862 -50.288  13.451  1.00  0.00     0.321 C 
HETATM    5  O   UNL     1     -42.358 -50.926  14.369  1.00  0.00    -0.247 OA
HETATM    6  N   UNL     1     -43.991 -50.699  12.767  1.00  0.00    -0.309 N 
HETATM    7  H   UNL     1     -44.185 -50.260  11.881  1.00  0.00     0.170 HD
HETATM    8  H   UNL     1     -42.478 -48.837  12.068  1.00  0.00     0.164 HD
BRANCH   6   9
HETATM    9  C   UNL     1     -44.808 -51.786  13.169  1.00  0.00     0.038 A 
HETATM   10  C   UNL     1     -45.979 -51.628  13.914  1.00  0.00     0.046 A 
HETATM   11  C   UNL     1     -46.710 -52.752  14.278  1.00  0.00     0.090 A 
HETATM   12  N   UNL     1     -46.359 -54.006  13.937  1.00  0.00    -0.375 N 
HETATM   13  C   UNL     1     -45.236 -54.135  13.200  1.00  0.00     0.090 A 
ATOM     14  HN  UNL     1     -46.913 -54.816  14.219  1.00  0.00     0.164 HD
HETATM   15  C   UNL     1     -44.443 -53.071  12.793  1.00  0.00     0.046 A 
ENDBRANCH   6   9
ENDBRANCH   2   3
BRANCH   2  16
HETATM   16  C   UNL     1     -40.274 -47.518  12.880  1.00  0.00     0.179 C 
HETATM   17  C   UNL     1     -40.229 -45.987  13.135  1.00  0.00     0.044 C 
HETATM   18  C   UNL     1     -40.079 -45.244  11.808  1.00  0.00     0.003 C 
HETATM   19  C   UNL     1     -40.408 -46.232  10.709  1.00  0.00     0.003 C 
HETATM   20  C   UNL     1     -40.863 -47.510  11.412  1.00  0.00     0.044 C 
BRANCH  16  21
HETATM   21  N   UNL     1     -38.952 -48.257  12.828  1.00  0.00     0.104 N 
HETATM   22  C   UNL     1     -38.740 -49.332  11.840  1.00  0.00     0.299 C 
HETATM   23  C   UNL     1     -39.389 -50.666  12.214  1.00  0.00     0.198 C 
HETATM   24  O   UNL     1     -38.803 -51.165  13.423  1.00  0.00    -0.388 OA
HETATM   25  C   UNL     1     -38.861 -50.201  14.484  1.00  0.00     0.198 C 
HETATM   26  C   UNL     1     -38.357 -48.801  14.070  1.00  0.00     0.299 C 
ENDBRANCH  16  21
ENDBRANCH   2  16
TORSDOF 4
ENDMDL
MODEL 8
REMARK VINA RESULT:      -5.7      2.816      6.788
REMARK  4 active torsions:
REMARK  status: ('A' for Active; 'I' for Inactive)
REMARK    1  A    between atoms: C_2  and  N_3 
REMARK    2  A    between atoms: C_2  and  C_14 
REMARK       I    between atoms: N_3  and  C_4 
REMARK       I    between atoms: C_4  and  N_6 
REMARK    3  A    between atoms: N_6  and  C_7 
REMARK    4  A    between atoms: C_14  and  N_19 
ROOT
HETATM    1  C   UNL     1     -41.842 -50.771  15.129  1.00  0.00     0.035 C 
HETATM    2  C   UNL     1     -42.216 -51.770  14.017  1.00  0.00     0.120 C 
ENDROOT
BRANCH   2   3
HETATM    3  N   UNL     1     -41.796 -51.172  12.711  1.00  0.00    -0.336 N 
HETATM    4  C   UNL     1     -42.336 -50.009  12.213  1.00  0.00     0.321 C 
HETATM    5  O   UNL     1     -43.321 -49.463  12.699  1.00  0.00    -0.247 OA
HETATM    6  N   UNL     1     -41.614 -49.479  11.160  1.00  0.00    -0.309 N 
HETATM    7  H   UNL     1     -40.991 -50.097  10.664  1.00  0.00     0.170 HD
HETATM    8  H   UNL     1     -41.381 -51.805  12.044  1.00  0.00     0.164 HD
BRANCH   6   9
HETATM    9  C   UNL     1     -41.797 -48.166  10.656  1.00  0.00     0.038 A 
HETATM   10  C   UNL     1     -42.845 -47.813   9.803  1.00  0.00     0.046 A 
HETATM   11  C   UNL     1     -42.937 -46.506   9.344  1.00  0.00     0.090 A 
HETATM   12  N   UNL     1     -42.071 -45.535   9.692  1.00  0.00    -0.375 N 
HETATM   13  C   UNL     1     -41.078 -45.892  10.533  1.00  0.00     0.090 A 
ATOM     14  HN  UNL     1     -42.160 -44.582   9.340  1.00  0.00     0.164 HD
HETATM   15  C   UNL     1     -40.906 -47.173  11.039  1.00  0.00     0.046 A 
ENDBRANCH   6   9
ENDBRANCH   2   3
BRANCH   2  16
HETATM   16  C   UNL     1     -41.816 -53.359  14.174  1.00  0.00     0.179 C 
HETATM   17  C   UNL     1     -41.123 -53.656  15.531  1.00  0.00     0.044 C 
HETATM   18  C   UNL     1     -39.967 -54.634  15.320  1.00  0.00     0.003 C 
HETATM   19  C   UNL     1     -39.680 -54.663  13.833  1.00  0.00     0.003 C 
HETATM   20  C   UNL     1     -40.592 -53.610  13.206  1.00  0.00     0.044 C 
BRANCH  16  21
HETATM   21  N   UNL     1     -42.930 -54.291  13.740  1.00  0.00     0.104 N 
HETATM   22  C   UNL     1     -43.888 -53.870  12.700  1.00  0.00     0.299 C 
HETATM   23  C   UNL     1     -44.977 -52.917  13.198  1.00  0.00     0.198 C 
HETATM   24  O   UNL     1     -45.780 -53.578  14.184  1.00  0.00    -0.388 OA
HETATM   25  C   UNL     1     -44.985 -54.118  15.248  1.00  0.00     0.198 C 
HETATM   26  C   UNL     1     -43.783 -54.952  14.754  1.00  0.00     0.299 C 
ENDBRANCH  16  21
ENDBRANCH   2  16
TORSDOF 4
ENDMDL
MODEL 9
REMARK VINA RESULT:      -5.3      2.659      6.904
REMARK  4 active torsions:
REMARK  status: ('A' for Active; 'I' for Inactive)
REMARK    1  A    between atoms: C_2  and  N_3 
REMARK    2  A    between atoms: C_2  and  C_14 
REMARK       I    between atoms: N_3  and  C_4 
REMARK       I    between atoms: C_4  and  N_6 
REMARK    3  A    between atoms: N_6  and  C_7 
REMARK    4  A    between atoms: C_14  and  N_19 
ROOT
HETATM    1  C   UNL     1     -44.346 -50.622  14.871  1.00  0.00     0.035 C 
HETATM    2  C   UNL     1     -43.890 -51.261  13.544  1.00  0.00     0.120 C 
ENDROOT
BRANCH   2   3
HETATM    3  N   UNL     1     -43.902 -50.190  12.498  1.00  0.00    -0.336 N 
HETATM    4  C   UNL     1     -43.214 -49.006  12.634  1.00  0.00     0.321 C 
HETATM    5  O   UNL     1     -42.685 -48.652  13.681  1.00  0.00    -0.247 OA
HETATM    6  N   UNL     1     -43.117 -48.295  11.452  1.00  0.00    -0.309 N 
HETATM    7  H   UNL     1     -43.776 -48.511  10.722  1.00  0.00     0.170 HD
HETATM    8  H   UNL     1     -44.689 -50.191  11.868  1.00  0.00     0.164 HD
BRANCH   6   9
HETATM    9  C   UNL     1     -42.240 -47.196  11.260  1.00  0.00     0.038 A 
HETATM   10  C   UNL     1     -42.663 -45.866  11.287  1.00  0.00     0.046 A 
HETATM   11  C   UNL     1     -41.737 -44.853  11.073  1.00  0.00     0.090 A 
HETATM   12  N   UNL     1     -40.428 -45.081  10.852  1.00  0.00    -0.375 N 
HETATM   13  C   UNL     1     -40.037 -46.372  10.850  1.00  0.00     0.090 A 
ATOM     14  HN  UNL     1     -39.768 -44.319  10.695  1.00  0.00     0.164 HD
HETATM   15  C   UNL     1     -40.891 -47.447  11.052  1.00  0.00     0.046 A 
ENDBRANCH   6   9
ENDBRANCH   2   3
BRANCH   2  16
HETATM   16  C   UNL     1     -42.540 -52.202  13.509  1.00  0.00     0.179 C 
HETATM   17  C   UNL     1     -41.517 -51.798  14.605  1.00  0.00     0.044 C 
HETATM   18  C   UNL     1     -40.100 -51.851  14.036  1.00  0.00     0.003 C 
HETATM   19  C   UNL     1     -40.231 -51.906  12.528  1.00  0.00     0.003 C 
HETATM   20  C   UNL     1     -41.723 -51.764  12.228  1.00  0.00     0.044 C 
BRANCH  16  21
HETATM   21  N   UNL     1     -42.856 -53.677  13.358  1.00  0.00     0.104 N 
HETATM   22  C   UNL     1     -44.156 -54.105  12.807  1.00  0.00     0.299 C 
HETATM   23  C   UNL     1     -45.315 -54.033  13.803  1.00  0.00     0.198 C 
HETATM   24  O   UNL     1     -45.069 -54.932  14.893  1.00  0.00    -0.388 OA
HETATM   25  C   UNL     1     -43.794 -54.695  15.505  1.00  0.00     0.198 C 
HETATM   26  C   UNL     1     -42.633 -54.604  14.490  1.00  0.00     0.299 C 
ENDBRANCH  16  21
ENDBRANCH   2  16
TORSDOF 4
ENDMDL
