MODEL 1
REMARK VINA RESULT:      -5.7      0.000      0.000
REMARK  5 active torsions:
REMARK  status: ('A' for Active; 'I' for Inactive)
REMARK    1  A    between atoms: C_2  and  C_3 
REMARK    2  A    between atoms: C_2  and  C_15 
REMARK       I    between atoms: C_3  and  N_5 
REMARK    3  A    between atoms: N_5  and  C_6 
REMARK    4  A    between atoms: C_6  and  C_11 
REMARK    5  A    between atoms: C_11  and  N_12 
ROOT
HETATM    1  C   UNL     1     -43.446 -51.435  14.074  1.00  0.00     0.227 C 
HETATM    2  O   UNL     1     -43.685 -51.734  15.242  1.00  0.00    -0.273 OA
HETATM    3  N   UNL     1     -44.384 -51.618  13.075  1.00  0.00    -0.340 N 
HETATM    4  H   UNL     1     -44.131 -51.393  12.120  1.00  0.00     0.164 HD
ENDROOT
BRANCH   1   5
HETATM    5  C   UNL     1     -42.095 -50.823  13.673  1.00  0.00     0.111 C 
HETATM    6  C   UNL     1     -42.175 -50.284  12.247  1.00  0.00     0.025 C 
BRANCH   5   7
HETATM    7  C   UNL     1     -40.941 -51.750  13.981  1.00  0.00     0.002 A 
HETATM    8  C   UNL     1     -39.673 -51.334  14.505  1.00  0.00     0.031 A 
HETATM    9  C   UNL     1     -39.191 -49.969  14.842  1.00  0.00     0.070 C 
HETATM   10  N   UNL     1     -38.847 -52.366  14.688  1.00  0.00    -0.303 N 
HETATM   11  N   UNL     1     -39.524 -53.425  14.235  1.00  0.00    -0.300 N 
ATOM     12  HN  UNL     1     -37.908 -52.349  15.084  1.00  0.00     0.186 HD
HETATM   13  C   UNL     1     -38.886 -54.722  14.280  1.00  0.00     0.177 C 
HETATM   14  C   UNL     1     -40.777 -53.118  13.761  1.00  0.00     0.033 A 
HETATM   15  C   UNL     1     -41.653 -54.138  13.123  1.00  0.00     0.070 C 
ENDBRANCH   5   7
ENDBRANCH   1   5
BRANCH   3  16
HETATM   16  C   UNL     1     -45.758 -52.071  13.380  1.00  0.00     0.104 C 
HETATM   17  C   UNL     1     -46.403 -51.235  14.503  1.00  0.00     0.045 C 
HETATM   18  C   UNL     1     -47.179 -52.209  15.393  1.00  0.00     0.004 C 
HETATM   19  C   UNL     1     -47.049 -53.577  14.743  1.00  0.00     0.004 C 
HETATM   20  C   UNL     1     -45.752 -53.495  13.950  1.00  0.00     0.045 C 
BRANCH  16  21
HETATM   21  C   UNL     1     -46.578 -52.011  12.102  1.00  0.00    -0.046 C 
BRANCH  21  22
HETATM   22  N   UNL     1     -47.258 -51.963  11.042  1.00  0.00    -0.367 N 
ATOM     23  HN2 UNL     1     -46.732 -52.029  11.913  1.00  0.00     0.165 HD
ATOM     24  HN1 UNL     1     -47.809 -51.923  10.184  1.00  0.00     0.165 HD
ENDBRANCH  21  22
ENDBRANCH  16  21
ENDBRANCH   3  16
TORSDOF 5
ENDMDL
MODEL 2
REMARK VINA RESULT:      -5.7      2.923      4.848
REMARK  5 active torsions:
REMARK  status: ('A' for Active; 'I' for Inactive)
REMARK    1  A    between atoms: C_2  and  C_3 
REMARK    2  A    between atoms: C_2  and  C_15 
REMARK       I    between atoms: C_3  and  N_5 
REMARK    3  A    between atoms: N_5  and  C_6 
REMARK    4  A    between atoms: C_6  and  C_11 
REMARK    5  A    between atoms: C_11  and  N_12 
ROOT
HETATM    1  C   UNL     1     -42.407 -50.751  12.539  1.00  0.00     0.227 C 
HETATM    2  O   UNL     1     -41.822 -51.713  13.035  1.00  0.00    -0.273 OA
HETATM    3  N   UNL     1     -43.786 -50.649  12.571  1.00  0.00    -0.340 N 
HETATM    4  H   UNL     1     -44.228 -49.859  12.117  1.00  0.00     0.164 HD
ENDROOT
BRANCH   1   5
HETATM    5  C   UNL     1     -41.628 -49.606  11.875  1.00  0.00     0.111 C 
HETATM    6  C   UNL     1     -40.130 -49.804  12.096  1.00  0.00     0.025 C 
BRANCH   5   7
HETATM    7  C   UNL     1     -42.192 -48.252  12.241  1.00  0.00     0.002 A 
HETATM    8  C   UNL     1     -42.756 -47.320  11.310  1.00  0.00     0.031 A 
HETATM    9  C   UNL     1     -42.905 -47.431   9.835  1.00  0.00     0.070 C 
HETATM   10  N   UNL     1     -43.183 -46.209  11.913  1.00  0.00    -0.303 N 
HETATM   11  N   UNL     1     -42.851 -46.373  13.197  1.00  0.00    -0.300 N 
ATOM     12  HN  UNL     1     -43.658 -45.412  11.489  1.00  0.00     0.186 HD
HETATM   13  C   UNL     1     -43.170 -45.317  14.132  1.00  0.00     0.177 C 
HETATM   14  C   UNL     1     -42.217 -47.565  13.455  1.00  0.00     0.033 A 
HETATM   15  C   UNL     1     -41.679 -47.898  14.802  1.00  0.00     0.070 C 
ENDBRANCH   5   7
ENDBRANCH   1   5
BRANCH   3  16
HETATM   16  C   UNL     1     -44.615 -51.629  13.305  1.00  0.00     0.104 C 
HETATM   17  C   UNL     1     -46.122 -51.363  13.119  1.00  0.00     0.045 C 
HETATM   18  C   UNL     1     -46.786 -51.598  14.477  1.00  0.00     0.004 C 
HETATM   19  C   UNL     1     -45.686 -52.075  15.414  1.00  0.00     0.004 C 
HETATM   20  C   UNL     1     -44.410 -51.497  14.819  1.00  0.00     0.045 C 
BRANCH  16  21
HETATM   21  C   UNL     1     -44.235 -53.025  12.836  1.00  0.00    -0.046 C 
BRANCH  21  22
HETATM   22  N   UNL     1     -43.921 -54.181  12.446  1.00  0.00    -0.367 N 
ATOM     23  HN2 UNL     1     -44.156 -53.252  12.795  1.00  0.00     0.165 HD
ATOM     24  HN1 UNL     1     -43.666 -55.118  12.130  1.00  0.00     0.165 HD
ENDBRANCH  21  22
ENDBRANCH  16  21
ENDBRANCH   3  16
TORSDOF 5
ENDMDL
MODEL 3
REMARK VINA RESULT:      -5.7      2.973      4.520
REMARK  5 active torsions:
REMARK  status: ('A' for Active; 'I' for Inactive)
REMARK    1  A    between atoms: C_2  and  C_3 
REMARK    2  A    between atoms: C_2  and  C_15 
REMARK       I    between atoms: C_3  and  N_5 
REMARK    3  A    between atoms: N_5  and  C_6 
REMARK    4  A    between atoms: C_6  and  C_11 
REMARK    5  A    between atoms: C_11  and  N_12 
ROOT
HETATM    1  C   UNL     1     -40.256 -52.220  13.386  1.00  0.00     0.227 C 
HETATM    2  O   UNL     1     -40.320 -52.988  12.428  1.00  0.00    -0.273 OA
HETATM    3  N   UNL     1     -41.224 -52.214  14.373  1.00  0.00    -0.340 N 
HETATM    4  H   UNL     1     -41.152 -51.538  15.124  1.00  0.00     0.164 HD
ENDROOT
BRANCH   1   5
HETATM    5  C   UNL     1     -39.081 -51.242  13.541  1.00  0.00     0.111 C 
HETATM    6  C   UNL     1     -38.702 -51.120  15.015  1.00  0.00     0.025 C 
BRANCH   5   7
HETATM    7  C   UNL     1     -39.320 -49.949  12.796  1.00  0.00     0.002 A 
HETATM    8  C   UNL     1     -38.506 -49.460  11.722  1.00  0.00     0.031 A 
HETATM    9  C   UNL     1     -37.284 -50.052  11.116  1.00  0.00     0.070 C 
HETATM   10  N   UNL     1     -38.955 -48.298  11.246  1.00  0.00    -0.303 N 
HETATM   11  N   UNL     1     -39.998 -47.993  12.025  1.00  0.00    -0.300 N 
ATOM     12  HN  UNL     1     -38.586 -47.761  10.461  1.00  0.00     0.186 HD
HETATM   13  C   UNL     1     -40.710 -46.761  11.773  1.00  0.00     0.177 C 
HETATM   14  C   UNL     1     -40.247 -48.928  13.002  1.00  0.00     0.033 A 
HETATM   15  C   UNL     1     -41.301 -48.729  14.033  1.00  0.00     0.070 C 
ENDBRANCH   5   7
ENDBRANCH   1   5
BRANCH   3  16
HETATM   16  C   UNL     1     -42.319 -53.208  14.385  1.00  0.00     0.104 C 
HETATM   17  C   UNL     1     -43.329 -52.938  15.518  1.00  0.00     0.045 C 
HETATM   18  C   UNL     1     -43.713 -54.297  16.105  1.00  0.00     0.004 C 
HETATM   19  C   UNL     1     -42.995 -55.343  15.266  1.00  0.00     0.004 C 
HETATM   20  C   UNL     1     -41.785 -54.609  14.706  1.00  0.00     0.045 C 
BRANCH  16  21
HETATM   21  C   UNL     1     -42.995 -53.194  13.023  1.00  0.00    -0.046 C 
BRANCH  21  22
HETATM   22  N   UNL     1     -43.554 -53.182  11.894  1.00  0.00    -0.367 N 
ATOM     23  HN2 UNL     1     -43.103 -53.153  12.808  1.00  0.00     0.165 HD
ATOM     24  HN1 UNL     1     -44.007 -53.174  10.979  1.00  0.00     0.165 HD
ENDBRANCH  21  22
ENDBRANCH  16  21
ENDBRANCH   3  16
TORSDOF 5
ENDMDL
MODEL 4
REMARK VINA RESULT:      -5.6      1.341      2.304
REMARK  5 active torsions:
REMARK  status: ('A' for Active; 'I' for Inactive)
REMARK    1  A    between atoms: C_2  and  C_3 
REMARK    2  A    between atoms: C_2  and  C_15 
REMARK       I    between atoms: C_3  and  N_5 
REMARK    3  A    between atoms: N_5  and  C_6 
REMARK    4  A    between atoms: C_6  and  C_11 
REMARK    5  A    between atoms: C_11  and  N_12 
ROOT
HETATM    1  C   UNL     1     -43.039 -52.707  13.455  1.00  0.00     0.227 C 
HETATM    2  O   UNL     1     -43.180 -52.838  14.670  1.00  0.00    -0.273 OA
HETATM    3  N   UNL     1     -44.122 -52.506  12.620  1.00  0.00    -0.340 N 
HETATM    4  H   UNL     1     -43.964 -52.441  11.622  1.00  0.00     0.164 HD
ENDROOT
BRANCH   1   5
HETATM    5  C   UNL     1     -41.645 -52.740  12.811  1.00  0.00     0.111 C 
HETATM    6  C   UNL     1     -41.113 -54.172  12.804  1.00  0.00     0.025 C 
BRANCH   5   7
HETATM    7  C   UNL     1     -40.731 -51.683  13.386  1.00  0.00     0.002 A 
HETATM    8  C   UNL     1     -40.397 -50.448  12.740  1.00  0.00     0.031 A 
HETATM    9  C   UNL     1     -40.824 -49.930  11.413  1.00  0.00     0.070 C 
HETATM   10  N   UNL     1     -39.577 -49.703  13.482  1.00  0.00    -0.303 N 
HETATM   11  N   UNL     1     -39.321 -50.451  14.559  1.00  0.00    -0.300 N 
ATOM     12  HN  UNL     1     -39.223 -48.769  13.274  1.00  0.00     0.186 HD
HETATM   13  C   UNL     1     -38.433 -49.924  15.570  1.00  0.00     0.177 C 
HETATM   14  C   UNL     1     -39.955 -51.671  14.545  1.00  0.00     0.033 A 
HETATM   15  C   UNL     1     -39.725 -52.692  15.603  1.00  0.00     0.070 C 
ENDBRANCH   5   7
ENDBRANCH   1   5
BRANCH   3  16
HETATM   16  C   UNL     1     -45.487 -52.323  13.159  1.00  0.00     0.104 C 
HETATM   17  C   UNL     1     -45.563 -51.139  14.144  1.00  0.00     0.045 C 
HETATM   18  C   UNL     1     -46.471 -51.577  15.295  1.00  0.00     0.004 C 
HETATM   19  C   UNL     1     -46.978 -52.965  14.936  1.00  0.00     0.004 C 
HETATM   20  C   UNL     1     -45.908 -53.527  14.010  1.00  0.00     0.045 C 
BRANCH  16  21
HETATM   21  C   UNL     1     -46.442 -52.135  11.990  1.00  0.00    -0.046 C 
BRANCH  21  22
HETATM   22  N   UNL     1     -47.233 -51.979  11.021  1.00  0.00    -0.367 N 
ATOM     23  HN2 UNL     1     -46.571 -52.077  11.791  1.00  0.00     0.165 HD
ATOM     24  HN1 UNL     1     -47.873 -51.853  10.237  1.00  0.00     0.165 HD
ENDBRANCH  21  22
ENDBRANCH  16  21
ENDBRANCH   3  16
TORSDOF 5
ENDMDL
MODEL 5
REMARK VINA RESULT:      -5.6      3.003      5.547
REMARK  5 active torsions:
REMARK  status: ('A' for Active; 'I' for Inactive)
REMARK    1  A    between atoms: C_2  and  C_3 
REMARK    2  A    between atoms: C_2  and  C_15 
REMARK       I    between atoms: C_3  and  N_5 
REMARK    3  A    between atoms: N_5  and  C_6 
REMARK    4  A    between atoms: C_6  and  C_11 
REMARK    5  A    between atoms: C_11  and  N_12 
ROOT
HETATM    1  C   UNL     1     -42.983 -49.040  13.094  1.00  0.00     0.227 C 
HETATM    2  O   UNL     1     -42.258 -48.321  13.780  1.00  0.00    -0.273 OA
HETATM    3  N   UNL     1     -43.123 -48.836  11.734  1.00  0.00    -0.340 N 
HETATM    4  H   UNL     1     -43.760 -49.427  11.214  1.00  0.00     0.164 HD
ENDROOT
BRANCH   1   5
HETATM    5  C   UNL     1     -43.753 -50.213  13.717  1.00  0.00     0.111 C 
HETATM    6  C   UNL     1     -43.964 -49.960  15.208  1.00  0.00     0.025 C 
BRANCH   5   7
HETATM    7  C   UNL     1     -43.154 -51.548  13.337  1.00  0.00     0.002 A 
HETATM    8  C   UNL     1     -43.891 -52.656  12.805  1.00  0.00     0.031 A 
HETATM    9  C   UNL     1     -45.347 -52.776  12.525  1.00  0.00     0.070 C 
HETATM   10  N   UNL     1     -43.105 -53.704  12.553  1.00  0.00    -0.303 N 
HETATM   11  N   UNL     1     -41.892 -53.323  12.968  1.00  0.00    -0.300 N 
ATOM     12  HN  UNL     1     -43.369 -54.596  12.136  1.00  0.00     0.186 HD
HETATM   13  C   UNL     1     -40.796 -54.258  12.845  1.00  0.00     0.177 C 
HETATM   14  C   UNL     1     -41.861 -52.050  13.486  1.00  0.00     0.033 A 
HETATM   15  C   UNL     1     -40.630 -51.474  14.092  1.00  0.00     0.070 C 
ENDBRANCH   5   7
ENDBRANCH   1   5
BRANCH   3  16
HETATM   16  C   UNL     1     -42.319 -47.820  11.019  1.00  0.00     0.104 C 
HETATM   17  C   UNL     1     -40.807 -48.033  11.226  1.00  0.00     0.045 C 
HETATM   18  C   UNL     1     -40.183 -46.648  11.407  1.00  0.00     0.004 C 
HETATM   19  C   UNL     1     -41.311 -45.644  11.223  1.00  0.00     0.004 C 
HETATM   20  C   UNL     1     -42.567 -46.420  11.593  1.00  0.00     0.045 C 
BRANCH  16  21
HETATM   21  C   UNL     1     -42.690 -47.866   9.545  1.00  0.00    -0.046 C 
BRANCH  21  22
HETATM   22  N   UNL     1     -42.997 -47.905   8.324  1.00  0.00    -0.367 N 
ATOM     23  HN2 UNL     1     -42.743 -47.835   9.309  1.00  0.00     0.165 HD
ATOM     24  HN1 UNL     1     -43.246 -47.937   7.334  1.00  0.00     0.165 HD
ENDBRANCH  21  22
ENDBRANCH  16  21
ENDBRANCH   3  16
TORSDOF 5
ENDMDL
MODEL 6
REMARK VINA RESULT:      -5.6      4.631      7.576
REMARK  5 active torsions:
REMARK  status: ('A' for Active; 'I' for Inactive)
REMARK    1  A    between atoms: C_2  and  C_3 
REMARK    2  A    between atoms: C_2  and  C_15 
REMARK       I    between atoms: C_3  and  N_5 
REMARK    3  A    between atoms: N_5  and  C_6 
REMARK    4  A    between atoms: C_6  and  C_11 
REMARK    5  A    between atoms: C_11  and  N_12 
ROOT
HETATM    1  C   UNL     1     -40.011 -47.789  13.356  1.00  0.00     0.227 C 
HETATM    2  O   UNL     1     -40.067 -48.321  14.463  1.00  0.00    -0.273 OA
HETATM    3  N   UNL     1     -39.231 -48.312  12.341  1.00  0.00    -0.340 N 
HETATM    4  H   UNL     1     -39.185 -47.819  11.457  1.00  0.00     0.164 HD
ENDROOT
BRANCH   1   5
HETATM    5  C   UNL     1     -40.825 -46.524  13.043  1.00  0.00     0.111 C 
HETATM    6  C   UNL     1     -41.779 -46.225  14.197  1.00  0.00     0.025 C 
BRANCH   5   7
HETATM    7  C   UNL     1     -41.432 -46.571  11.659  1.00  0.00     0.002 A 
HETATM    8  C   UNL     1     -41.104 -45.675  10.590  1.00  0.00     0.031 A 
HETATM    9  C   UNL     1     -40.155 -44.530  10.573  1.00  0.00     0.070 C 
HETATM   10  N   UNL     1     -41.786 -45.954   9.478  1.00  0.00    -0.303 N 
HETATM   11  N   UNL     1     -42.592 -46.963   9.821  1.00  0.00    -0.300 N 
ATOM     12  HN  UNL     1     -41.710 -45.498   8.569  1.00  0.00     0.186 HD
HETATM   13  C   UNL     1     -43.490 -47.499   8.823  1.00  0.00     0.177 C 
HETATM   14  C   UNL     1     -42.456 -47.357  11.131  1.00  0.00     0.033 A 
HETATM   15  C   UNL     1     -43.329 -48.398  11.738  1.00  0.00     0.070 C 
ENDBRANCH   5   7
ENDBRANCH   1   5
BRANCH   3  16
HETATM   16  C   UNL     1     -38.520 -49.598  12.500  1.00  0.00     0.104 C 
HETATM   17  C   UNL     1     -39.487 -50.754  12.824  1.00  0.00     0.045 C 
HETATM   18  C   UNL     1     -38.800 -51.627  13.877  1.00  0.00     0.004 C 
HETATM   19  C   UNL     1     -37.420 -51.026  14.096  1.00  0.00     0.004 C 
HETATM   20  C   UNL     1     -37.584 -49.562  13.715  1.00  0.00     0.045 C 
BRANCH  16  21
HETATM   21  C   UNL     1     -37.733 -49.872  11.228  1.00  0.00    -0.046 C 
BRANCH  21  22
HETATM   22  N   UNL     1     -37.081 -50.099  10.174  1.00  0.00    -0.367 N 
ATOM     23  HN2 UNL     1     -37.581 -49.891  11.039  1.00  0.00     0.165 HD
ATOM     24  HN1 UNL     1     -36.554 -50.284   9.320  1.00  0.00     0.165 HD
ENDBRANCH  21  22
ENDBRANCH  16  21
ENDBRANCH   3  16
TORSDOF 5
ENDMDL
MODEL 7
REMARK VINA RESULT:      -5.6      3.450      5.758
REMARK  5 active torsions:
REMARK  status: ('A' for Active; 'I' for Inactive)
REMARK    1  A    between atoms: C_2  and  C_3 
REMARK    2  A    between atoms: C_2  and  C_15 
REMARK       I    between atoms: C_3  and  N_5 
REMARK    3  A    between atoms: N_5  and  C_6 
REMARK    4  A    between atoms: C_6  and  C_11 
REMARK    5  A    between atoms: C_11  and  N_12 
ROOT
HETATM    1  C   UNL     1     -39.151 -51.378  12.707  1.00  0.00     0.227 C 
HETATM    2  O   UNL     1     -38.312 -51.776  13.513  1.00  0.00    -0.273 OA
HETATM    3  N   UNL     1     -40.396 -51.973  12.608  1.00  0.00    -0.340 N 
HETATM    4  H   UNL     1     -41.042 -51.638  11.904  1.00  0.00     0.164 HD
ENDROOT
BRANCH   1   5
HETATM    5  C   UNL     1     -38.861 -50.186  11.783  1.00  0.00     0.111 C 
HETATM    6  C   UNL     1     -37.409 -50.238  11.313  1.00  0.00     0.025 C 
BRANCH   5   7
HETATM    7  C   UNL     1     -39.331 -48.879  12.382  1.00  0.00     0.002 A 
HETATM    8  C   UNL     1     -40.453 -48.120  11.915  1.00  0.00     0.031 A 
HETATM    9  C   UNL     1     -41.374 -48.395  10.782  1.00  0.00     0.070 C 
HETATM   10  N   UNL     1     -40.641 -47.014  12.637  1.00  0.00    -0.303 N 
HETATM   11  N   UNL     1     -39.633 -47.007  13.514  1.00  0.00    -0.300 N 
ATOM     12  HN  UNL     1     -41.388 -46.326  12.541  1.00  0.00     0.186 HD
HETATM   13  C   UNL     1     -39.540 -45.909  14.450  1.00  0.00     0.177 C 
HETATM   14  C   UNL     1     -38.786 -48.083  13.390  1.00  0.00     0.033 A 
HETATM   15  C   UNL     1     -37.548 -48.212  14.205  1.00  0.00     0.070 C 
ENDBRANCH   5   7
ENDBRANCH   1   5
BRANCH   3  16
HETATM   16  C   UNL     1     -40.819 -53.036  13.544  1.00  0.00     0.104 C 
HETATM   17  C   UNL     1     -42.150 -53.685  13.114  1.00  0.00     0.045 C 
HETATM   18  C   UNL     1     -42.967 -53.910  14.388  1.00  0.00     0.004 C 
HETATM   19  C   UNL     1     -42.083 -53.472  15.546  1.00  0.00     0.004 C 
HETATM   20  C   UNL     1     -41.133 -52.455  14.928  1.00  0.00     0.045 C 
BRANCH  16  21
HETATM   21  C   UNL     1     -39.704 -54.065  13.637  1.00  0.00    -0.046 C 
BRANCH  21  22
HETATM   22  N   UNL     1     -38.779 -54.918  13.715  1.00  0.00    -0.367 N 
ATOM     23  HN2 UNL     1     -39.554 -54.257  13.649  1.00  0.00     0.165 HD
ATOM     24  HN1 UNL     1     -38.031 -55.608  13.778  1.00  0.00     0.165 HD
ENDBRANCH  21  22
ENDBRANCH  16  21
ENDBRANCH   3  16
TORSDOF 5
ENDMDL
MODEL 8
REMARK VINA RESULT:      -5.6      2.234      6.380
REMARK  5 active torsions:
REMARK  status: ('A' for Active; 'I' for Inactive)
REMARK    1  A    between atoms: C_2  and  C_3 
REMARK    2  A    between atoms: C_2  and  C_15 
REMARK       I    between atoms: C_3  and  N_5 
REMARK    3  A    between atoms: N_5  and  C_6 
REMARK    4  A    between atoms: C_6  and  C_11 
REMARK    5  A    between atoms: C_11  and  N_12 
ROOT
HETATM    1  C   UNL     1     -43.517 -53.769  15.087  1.00  0.00     0.227 C 
HETATM    2  O   UNL     1     -42.863 -53.608  16.115  1.00  0.00    -0.273 OA
HETATM    3  N   UNL     1     -42.968 -53.541  13.838  1.00  0.00    -0.340 N 
HETATM    4  H   UNL     1     -43.554 -53.649  13.019  1.00  0.00     0.164 HD
ENDROOT
BRANCH   1   5
HETATM    5  C   UNL     1     -44.974 -54.251  15.141  1.00  0.00     0.111 C 
HETATM    6  C   UNL     1     -45.311 -55.024  13.868  1.00  0.00     0.025 C 
BRANCH   5   7
HETATM    7  C   UNL     1     -45.924 -53.140  15.528  1.00  0.00     0.002 A 
HETATM    8  C   UNL     1     -46.413 -52.132  14.635  1.00  0.00     0.031 A 
HETATM    9  C   UNL     1     -46.117 -51.922  13.193  1.00  0.00     0.070 C 
HETATM   10  N   UNL     1     -47.242 -51.284  15.246  1.00  0.00    -0.303 N 
HETATM   11  N   UNL     1     -47.250 -51.680  16.522  1.00  0.00    -0.300 N 
ATOM     12  HN  UNL     1     -47.757 -50.507  14.831  1.00  0.00     0.186 HD
HETATM   13  C   UNL     1     -48.057 -50.942  17.468  1.00  0.00     0.177 C 
HETATM   14  C   UNL     1     -46.447 -52.768  16.766  1.00  0.00     0.033 A 
HETATM   15  C   UNL     1     -46.239 -53.304  18.139  1.00  0.00     0.070 C 
ENDBRANCH   5   7
ENDBRANCH   1   5
BRANCH   3  16
HETATM   16  C   UNL     1     -41.537 -53.207  13.675  1.00  0.00     0.104 C 
HETATM   17  C   UNL     1     -40.623 -54.392  14.047  1.00  0.00     0.045 C 
HETATM   18  C   UNL     1     -39.429 -53.811  14.807  1.00  0.00     0.004 C 
HETATM   19  C   UNL     1     -39.612 -52.301  14.800  1.00  0.00     0.004 C 
HETATM   20  C   UNL     1     -41.114 -52.105  14.654  1.00  0.00     0.045 C 
BRANCH  16  21
HETATM   21  C   UNL     1     -41.310 -52.760  12.239  1.00  0.00    -0.046 C 
BRANCH  21  22
HETATM   22  N   UNL     1     -41.121 -52.391  11.049  1.00  0.00    -0.367 N 
ATOM     23  HN2 UNL     1     -41.297 -52.659  12.018  1.00  0.00     0.165 HD
ATOM     24  HN1 UNL     1     -40.968 -52.092  10.085  1.00  0.00     0.165 HD
ENDBRANCH  21  22
ENDBRANCH  16  21
ENDBRANCH   3  16
TORSDOF 5
ENDMDL
MODEL 9
REMARK VINA RESULT:      -5.6      3.309      5.451
REMARK  5 active torsions:
REMARK  status: ('A' for Active; 'I' for Inactive)
REMARK    1  A    between atoms: C_2  and  C_3 
REMARK    2  A    between atoms: C_2  and  C_15 
REMARK       I    between atoms: C_3  and  N_5 
REMARK    3  A    between atoms: N_5  and  C_6 
REMARK    4  A    between atoms: C_6  and  C_11 
REMARK    5  A    between atoms: C_11  and  N_12 
ROOT
HETATM    1  C   UNL     1     -39.420 -50.986  12.418  1.00  0.00     0.227 C 
HETATM    2  O   UNL     1     -38.661 -51.656  13.116  1.00  0.00    -0.273 OA
HETATM    3  N   UNL     1     -40.760 -51.305  12.298  1.00  0.00    -0.340 N 
HETATM    4  H   UNL     1     -41.341 -50.748  11.682  1.00  0.00     0.164 HD
ENDROOT
BRANCH   1   5
HETATM    5  C   UNL     1     -38.916 -49.748  11.662  1.00  0.00     0.111 C 
HETATM    6  C   UNL     1     -37.465 -49.957  11.238  1.00  0.00     0.025 C 
BRANCH   5   7
HETATM    7  C   UNL     1     -39.226 -48.467  12.404  1.00  0.00     0.002 A 
HETATM    8  C   UNL     1     -40.192 -47.493  11.989  1.00  0.00     0.031 A 
HETATM    9  C   UNL     1     -41.070 -47.483  10.790  1.00  0.00     0.070 C 
HETATM   10  N   UNL     1     -40.261 -46.467  12.839  1.00  0.00    -0.303 N 
HETATM   11  N   UNL     1     -39.321 -46.722  13.754  1.00  0.00    -0.300 N 
ATOM     12  HN  UNL     1     -40.891 -45.666  12.800  1.00  0.00     0.186 HD
HETATM   13  C   UNL     1     -39.127 -45.773  14.827  1.00  0.00     0.177 C 
HETATM   14  C   UNL     1     -38.635 -47.892  13.529  1.00  0.00     0.033 A 
HETATM   15  C   UNL     1     -37.484 -48.308  14.375  1.00  0.00     0.070 C 
ENDBRANCH   5   7
ENDBRANCH   1   5
BRANCH   3  16
HETATM   16  C   UNL     1     -41.369 -52.393  13.092  1.00  0.00     0.104 C 
HETATM   17  C   UNL     1     -41.496 -52.017  14.582  1.00  0.00     0.045 C 
HETATM   18  C   UNL     1     -41.132 -53.265  15.388  1.00  0.00     0.004 C 
HETATM   19  C   UNL     1     -40.879 -54.371  14.374  1.00  0.00     0.004 C 
HETATM   20  C   UNL     1     -40.464 -53.632  13.110  1.00  0.00     0.045 C 
BRANCH  16  21
HETATM   21  C   UNL     1     -42.722 -52.730  12.487  1.00  0.00    -0.046 C 
BRANCH  21  22
HETATM   22  N   UNL     1     -43.844 -53.009  11.986  1.00  0.00    -0.367 N 
ATOM     23  HN2 UNL     1     -42.937 -52.749  12.373  1.00  0.00     0.165 HD
ATOM     24  HN1 UNL     1     -44.753 -53.236  11.580  1.00  0.00     0.165 HD
ENDBRANCH  21  22
ENDBRANCH  16  21
ENDBRANCH   3  16
TORSDOF 5
ENDMDL
