MODEL 1
REMARK VINA RESULT:      -6.7      0.000      0.000
REMARK  4 active torsions:
REMARK  status: ('A' for Active; 'I' for Inactive)
REMARK    1  A    between atoms: C_2  and  C_4 
REMARK    2  A    between atoms: C_8  and  C_9 
REMARK    3  A    between atoms: C_9  and  C_10 
REMARK    4  A    between atoms: C_10  and  N_11 
REMARK       I    between atoms: N_11  and  C_12 
REMARK       I    between atoms: C_12  and  N_14 
ROOT
HETATM    1  C   UNL     1     -40.239 -50.186  11.444  1.00  0.00     0.132 C 
ENDROOT
BRANCH   1   2
HETATM    2  C   UNL     1     -40.226 -48.660  11.342  1.00  0.00     0.106 C 
BRANCH   2   3
HETATM    3  C   UNL     1     -41.501 -48.123  10.811  1.00  0.00     0.149 A 
HETATM    4  O   UNL     1     -42.320 -47.502  11.709  1.00  0.00    -0.223 OA
HETATM    5  N   UNL     1     -43.441 -47.077  10.997  1.00  0.00    -0.247 N 
HETATM    6  C   UNL     1     -43.191 -47.496   9.750  1.00  0.00     0.107 A 
ATOM      7  HN  UNL     1     -44.256 -46.569  11.342  1.00  0.00     0.196 HD
HETATM    8  N   UNL     1     -41.986 -48.139   9.588  1.00  0.00    -0.327 N 
ATOM      9  HN  UNL     1     -41.574 -48.528   8.740  1.00  0.00     0.169 HD
BRANCH   6  10
HETATM   10  C   UNL     1     -44.154 -47.266   8.631  1.00  0.00     0.047 C 
HETATM   11  C   UNL     1     -43.823 -48.130   7.415  1.00  0.00     0.017 C 
HETATM   12  C   UNL     1     -45.599 -47.496   9.075  1.00  0.00     0.017 C 
ENDBRANCH   6  10
ENDBRANCH   2   3
ENDBRANCH   1   2
BRANCH   1  13
HETATM   13  N   UNL     1     -41.460 -50.745  11.998  1.00  0.00    -0.343 N 
HETATM   14  C   UNL     1     -41.513 -52.001  12.536  1.00  0.00     0.318 C 
HETATM   15  O   UNL     1     -40.530 -52.736  12.562  1.00  0.00    -0.247 OA
HETATM   16  N   UNL     1     -42.789 -52.393  12.917  1.00  0.00    -0.330 N 
HETATM   17  C   UNL     1     -43.003 -53.833  13.069  1.00  0.00     0.128 C 
HETATM   18  C   UNL     1     -43.756 -51.571  13.683  1.00  0.00     0.085 C 
HETATM   19  C   UNL     1     -44.408 -54.226  12.613  1.00  0.00     0.024 C 
HETATM   20  C   UNL     1     -45.514 -53.385  13.265  1.00  0.00    -0.015 C 
HETATM   21  C   UNL     1     -45.786 -53.821  14.708  1.00  0.00     0.010 C 
HETATM   22  C   UNL     1     -45.177 -51.887  13.181  1.00  0.00     0.029 C 
HETATM   23  C   UNL     1     -43.561 -50.054  13.743  1.00  0.00     0.032 C 
HETATM   24  H   UNL     1     -42.320 -50.478  11.541  1.00  0.00     0.164 HD
ENDBRANCH   1  13
TORSDOF 4
ENDMDL
MODEL 2
REMARK VINA RESULT:      -6.5      1.481      2.142
REMARK  4 active torsions:
REMARK  status: ('A' for Active; 'I' for Inactive)
REMARK    1  A    between atoms: C_2  and  C_4 
REMARK    2  A    between atoms: C_8  and  C_9 
REMARK    3  A    between atoms: C_9  and  C_10 
REMARK    4  A    between atoms: C_10  and  N_11 
REMARK       I    between atoms: N_11  and  C_12 
REMARK       I    between atoms: C_12  and  N_14 
ROOT
HETATM    1  C   UNL     1     -40.828 -49.486  13.225  1.00  0.00     0.132 C 
ENDROOT
BRANCH   1   2
HETATM    2  C   UNL     1     -40.250 -49.309  11.820  1.00  0.00     0.106 C 
BRANCH   2   3
HETATM    3  C   UNL     1     -41.084 -48.419  10.979  1.00  0.00     0.149 A 
HETATM    4  O   UNL     1     -40.640 -47.137  10.826  1.00  0.00    -0.223 OA
HETATM    5  N   UNL     1     -41.563 -46.492  10.004  1.00  0.00    -0.247 N 
HETATM    6  C   UNL     1     -42.473 -47.443   9.757  1.00  0.00     0.107 A 
ATOM      7  HN  UNL     1     -41.549 -45.528   9.670  1.00  0.00     0.196 HD
HETATM    8  N   UNL     1     -42.204 -48.663  10.333  1.00  0.00    -0.327 N 
ATOM      9  HN  UNL     1     -42.735 -49.531  10.276  1.00  0.00     0.169 HD
BRANCH   6  10
HETATM   10  C   UNL     1     -43.677 -47.184   8.911  1.00  0.00     0.047 C 
HETATM   11  C   UNL     1     -43.624 -47.968   7.600  1.00  0.00     0.017 C 
HETATM   12  C   UNL     1     -44.972 -47.486   9.665  1.00  0.00     0.017 C 
ENDBRANCH   6  10
ENDBRANCH   2   3
ENDBRANCH   1   2
BRANCH   1  13
HETATM   13  N   UNL     1     -41.558 -50.726  13.427  1.00  0.00    -0.343 N 
HETATM   14  C   UNL     1     -42.912 -50.815  13.258  1.00  0.00     0.318 C 
HETATM   15  O   UNL     1     -43.591 -49.842  12.946  1.00  0.00    -0.247 OA
HETATM   16  N   UNL     1     -43.437 -52.055  13.599  1.00  0.00    -0.330 N 
HETATM   17  C   UNL     1     -44.873 -52.093  13.877  1.00  0.00     0.128 C 
HETATM   18  C   UNL     1     -42.881 -53.371  13.202  1.00  0.00     0.085 C 
HETATM   19  C   UNL     1     -45.185 -53.083  14.998  1.00  0.00     0.024 C 
HETATM   20  C   UNL     1     -44.587 -54.476  14.760  1.00  0.00    -0.015 C 
HETATM   21  C   UNL     1     -45.395 -55.276  13.734  1.00  0.00     0.010 C 
HETATM   22  C   UNL     1     -43.108 -54.367  14.354  1.00  0.00     0.029 C 
HETATM   23  C   UNL     1     -41.426 -53.454  12.733  1.00  0.00     0.032 C 
HETATM   24  H   UNL     1     -41.212 -51.333  14.156  1.00  0.00     0.164 HD
ENDBRANCH   1  13
TORSDOF 4
ENDMDL
MODEL 3
REMARK VINA RESULT:      -6.3      4.070      6.737
REMARK  4 active torsions:
REMARK  status: ('A' for Active; 'I' for Inactive)
REMARK    1  A    between atoms: C_2  and  C_4 
REMARK    2  A    between atoms: C_8  and  C_9 
REMARK    3  A    between atoms: C_9  and  C_10 
REMARK    4  A    between atoms: C_10  and  N_11 
REMARK       I    between atoms: N_11  and  C_12 
REMARK       I    between atoms: C_12  and  N_14 
ROOT
HETATM    1  C   UNL     1     -41.821 -53.872  15.577  1.00  0.00     0.132 C 
ENDROOT
BRANCH   1   2
HETATM    2  C   UNL     1     -42.649 -54.946  14.870  1.00  0.00     0.106 C 
BRANCH   2   3
HETATM    3  C   UNL     1     -44.017 -54.476  14.546  1.00  0.00     0.149 A 
HETATM    4  O   UNL     1     -44.959 -55.443  14.342  1.00  0.00    -0.223 OA
HETATM    5  N   UNL     1     -46.154 -54.781  14.063  1.00  0.00    -0.247 N 
HETATM    6  C   UNL     1     -45.809 -53.488  14.113  1.00  0.00     0.107 A 
ATOM      7  HN  UNL     1     -47.070 -55.184  13.867  1.00  0.00     0.196 HD
HETATM    8  N   UNL     1     -44.490 -53.255  14.427  1.00  0.00    -0.327 N 
ATOM      9  HN  UNL     1     -44.004 -52.365  14.537  1.00  0.00     0.169 HD
BRANCH   6  10
HETATM   10  C   UNL     1     -46.796 -52.397  13.855  1.00  0.00     0.047 C 
HETATM   11  C   UNL     1     -46.887 -51.428  15.034  1.00  0.00     0.017 C 
HETATM   12  C   UNL     1     -46.478 -51.642  12.564  1.00  0.00     0.017 C 
ENDBRANCH   6  10
ENDBRANCH   2   3
ENDBRANCH   1   2
BRANCH   1  13
HETATM   13  N   UNL     1     -41.156 -52.937  14.687  1.00  0.00    -0.343 N 
HETATM   14  C   UNL     1     -39.800 -52.931  14.510  1.00  0.00     0.318 C 
HETATM   15  O   UNL     1     -39.065 -53.706  15.114  1.00  0.00    -0.247 OA
HETATM   16  N   UNL     1     -39.347 -51.897  13.702  1.00  0.00    -0.330 N 
HETATM   17  C   UNL     1     -37.929 -51.554  13.828  1.00  0.00     0.128 C 
HETATM   18  C   UNL     1     -39.937 -51.486  12.406  1.00  0.00     0.085 C 
HETATM   19  C   UNL     1     -37.718 -50.048  13.680  1.00  0.00     0.024 C 
HETATM   20  C   UNL     1     -38.362 -49.467  12.413  1.00  0.00    -0.015 C 
HETATM   21  C   UNL     1     -37.537 -49.776  11.161  1.00  0.00     0.010 C 
HETATM   22  C   UNL     1     -39.812 -49.958  12.270  1.00  0.00     0.029 C 
HETATM   23  C   UNL     1     -41.368 -51.915  12.070  1.00  0.00     0.032 C 
HETATM   24  H   UNL     1     -41.564 -52.015  14.623  1.00  0.00     0.164 HD
ENDBRANCH   1  13
TORSDOF 4
ENDMDL
MODEL 4
REMARK VINA RESULT:      -6.3      3.183      4.645
REMARK  4 active torsions:
REMARK  status: ('A' for Active; 'I' for Inactive)
REMARK    1  A    between atoms: C_2  and  C_4 
REMARK    2  A    between atoms: C_8  and  C_9 
REMARK    3  A    between atoms: C_9  and  C_10 
REMARK    4  A    between atoms: C_10  and  N_11 
REMARK       I    between atoms: N_11  and  C_12 
REMARK       I    between atoms: C_12  and  N_14 
ROOT
HETATM    1  C   UNL     1     -41.061 -54.592  14.883  1.00  0.00     0.132 C 
ENDROOT
BRANCH   1   2
HETATM    2  C   UNL     1     -39.849 -53.878  14.281  1.00  0.00     0.106 C 
BRANCH   2   3
HETATM    3  C   UNL     1     -40.236 -52.908  13.229  1.00  0.00     0.149 A 
HETATM    4  O   UNL     1     -40.935 -53.409  12.169  1.00  0.00    -0.223 OA
HETATM    5  N   UNL     1     -41.193 -52.334  11.320  1.00  0.00    -0.247 N 
HETATM    6  C   UNL     1     -40.613 -51.301  11.945  1.00  0.00     0.107 A 
ATOM      7  HN  UNL     1     -41.701 -52.333  10.435  1.00  0.00     0.196 HD
HETATM    8  N   UNL     1     -40.019 -51.614  13.145  1.00  0.00    -0.327 N 
ATOM      9  HN  UNL     1     -39.535 -51.001  13.801  1.00  0.00     0.169 HD
BRANCH   6  10
HETATM   10  C   UNL     1     -40.629 -49.921  11.372  1.00  0.00     0.047 C 
HETATM   11  C   UNL     1     -41.890 -49.157  11.775  1.00  0.00     0.017 C 
HETATM   12  C   UNL     1     -39.377 -49.135  11.763  1.00  0.00     0.017 C 
ENDBRANCH   6  10
ENDBRANCH   2   3
ENDBRANCH   1   2
BRANCH   1  13
HETATM   13  N   UNL     1     -42.264 -53.782  14.959  1.00  0.00    -0.343 N 
HETATM   14  C   UNL     1     -43.400 -54.215  15.585  1.00  0.00     0.318 C 
HETATM   15  O   UNL     1     -43.472 -55.326  16.100  1.00  0.00    -0.247 OA
HETATM   16  N   UNL     1     -44.473 -53.343  15.461  1.00  0.00    -0.330 N 
HETATM   17  C   UNL     1     -45.800 -53.914  15.695  1.00  0.00     0.128 C 
HETATM   18  C   UNL     1     -44.424 -51.874  15.657  1.00  0.00     0.085 C 
HETATM   19  C   UNL     1     -46.835 -53.288  14.762  1.00  0.00     0.024 C 
HETATM   20  C   UNL     1     -46.832 -51.753  14.796  1.00  0.00    -0.015 C 
HETATM   21  C   UNL     1     -47.529 -51.210  16.047  1.00  0.00     0.010 C 
HETATM   22  C   UNL     1     -45.399 -51.212  14.667  1.00  0.00     0.029 C 
HETATM   23  C   UNL     1     -43.071 -51.159  15.598  1.00  0.00     0.032 C 
HETATM   24  H   UNL     1     -42.455 -53.191  14.163  1.00  0.00     0.164 HD
ENDBRANCH   1  13
TORSDOF 4
ENDMDL
MODEL 5
REMARK VINA RESULT:      -6.1      2.679      5.859
REMARK  4 active torsions:
REMARK  status: ('A' for Active; 'I' for Inactive)
REMARK    1  A    between atoms: C_2  and  C_4 
REMARK    2  A    between atoms: C_8  and  C_9 
REMARK    3  A    between atoms: C_9  and  C_10 
REMARK    4  A    between atoms: C_10  and  N_11 
REMARK       I    between atoms: N_11  and  C_12 
REMARK       I    between atoms: C_12  and  N_14 
ROOT
HETATM    1  C   UNL     1     -41.095 -53.087  14.935  1.00  0.00     0.132 C 
ENDROOT
BRANCH   1   2
HETATM    2  C   UNL     1     -41.985 -54.176  14.334  1.00  0.00     0.106 C 
BRANCH   2   3
HETATM    3  C   UNL     1     -43.222 -53.621  13.736  1.00  0.00     0.149 A 
HETATM    4  O   UNL     1     -43.201 -53.402  12.389  1.00  0.00    -0.223 OA
HETATM    5  N   UNL     1     -44.454 -52.893  12.049  1.00  0.00    -0.247 N 
HETATM    6  C   UNL     1     -45.095 -52.844  13.223  1.00  0.00     0.107 A 
ATOM      7  HN  UNL     1     -44.798 -52.622  11.128  1.00  0.00     0.196 HD
HETATM    8  N   UNL     1     -44.369 -53.304  14.297  1.00  0.00    -0.327 N 
ATOM      9  HN  UNL     1     -44.646 -53.378  15.275  1.00  0.00     0.169 HD
BRANCH   6  10
HETATM   10  C   UNL     1     -46.496 -52.335  13.338  1.00  0.00     0.047 C 
HETATM   11  C   UNL     1     -46.659 -51.401  14.536  1.00  0.00     0.017 C 
HETATM   12  C   UNL     1     -46.952 -51.645  12.052  1.00  0.00     0.017 C 
ENDBRANCH   6  10
ENDBRANCH   2   3
ENDBRANCH   1   2
BRANCH   1  13
HETATM   13  N   UNL     1     -41.197 -51.794  14.281  1.00  0.00    -0.343 N 
HETATM   14  C   UNL     1     -40.526 -51.501  13.126  1.00  0.00     0.318 C 
HETATM   15  O   UNL     1     -39.781 -52.313  12.587  1.00  0.00    -0.247 OA
HETATM   16  N   UNL     1     -40.670 -50.183  12.715  1.00  0.00    -0.330 N 
HETATM   17  C   UNL     1     -39.658 -49.684  11.783  1.00  0.00     0.128 C 
HETATM   18  C   UNL     1     -41.943 -49.425  12.661  1.00  0.00     0.085 C 
HETATM   19  C   UNL     1     -39.335 -48.217  12.063  1.00  0.00     0.024 C 
HETATM   20  C   UNL     1     -40.582 -47.323  12.125  1.00  0.00    -0.015 C 
HETATM   21  C   UNL     1     -41.128 -47.008  10.730  1.00  0.00     0.010 C 
HETATM   22  C   UNL     1     -41.657 -47.956  13.024  1.00  0.00     0.029 C 
HETATM   23  C   UNL     1     -43.143 -49.927  13.467  1.00  0.00     0.032 C 
HETATM   24  H   UNL     1     -41.298 -50.994  14.889  1.00  0.00     0.164 HD
ENDBRANCH   1  13
TORSDOF 4
ENDMDL
MODEL 6
REMARK VINA RESULT:      -6.1      1.320      1.687
REMARK  4 active torsions:
REMARK  status: ('A' for Active; 'I' for Inactive)
REMARK    1  A    between atoms: C_2  and  C_4 
REMARK    2  A    between atoms: C_8  and  C_9 
REMARK    3  A    between atoms: C_9  and  C_10 
REMARK    4  A    between atoms: C_10  and  N_11 
REMARK       I    between atoms: N_11  and  C_12 
REMARK       I    between atoms: C_12  and  N_14 
ROOT
HETATM    1  C   UNL     1     -39.919 -48.746  12.926  1.00  0.00     0.132 C 
ENDROOT
BRANCH   1   2
HETATM    2  C   UNL     1     -39.877 -48.047  11.567  1.00  0.00     0.106 C 
BRANCH   2   3
HETATM    3  C   UNL     1     -41.233 -47.769  11.037  1.00  0.00     0.149 A 
HETATM    4  O   UNL     1     -42.057 -47.030  11.836  1.00  0.00    -0.223 OA
HETATM    5  N   UNL     1     -43.259 -46.888  11.144  1.00  0.00    -0.247 N 
HETATM    6  C   UNL     1     -43.043 -47.566  10.010  1.00  0.00     0.107 A 
ATOM      7  HN  UNL     1     -44.100 -46.389  11.433  1.00  0.00     0.196 HD
HETATM    8  N   UNL     1     -41.788 -48.117   9.897  1.00  0.00    -0.327 N 
ATOM      9  HN  UNL     1     -41.391 -48.657   9.129  1.00  0.00     0.169 HD
BRANCH   6  10
HETATM   10  C   UNL     1     -44.094 -47.695   8.955  1.00  0.00     0.047 C 
HETATM   11  C   UNL     1     -45.028 -46.485   8.938  1.00  0.00     0.017 C 
HETATM   12  C   UNL     1     -43.480 -47.919   7.573  1.00  0.00     0.017 C 
ENDBRANCH   6  10
ENDBRANCH   2   3
ENDBRANCH   1   2
BRANCH   1  13
HETATM   13  N   UNL     1     -40.884 -49.828  13.021  1.00  0.00    -0.343 N 
HETATM   14  C   UNL     1     -40.777 -50.827  13.948  1.00  0.00     0.318 C 
HETATM   15  O   UNL     1     -39.842 -50.876  14.742  1.00  0.00    -0.247 OA
HETATM   16  N   UNL     1     -41.735 -51.822  13.811  1.00  0.00    -0.330 N 
HETATM   17  C   UNL     1     -41.428 -53.106  14.443  1.00  0.00     0.128 C 
HETATM   18  C   UNL     1     -43.187 -51.604  13.599  1.00  0.00     0.085 C 
HETATM   19  C   UNL     1     -41.951 -54.267  13.599  1.00  0.00     0.024 C 
HETATM   20  C   UNL     1     -43.433 -54.126  13.226  1.00  0.00    -0.015 C 
HETATM   21  C   UNL     1     -44.352 -54.474  14.400  1.00  0.00     0.010 C 
HETATM   22  C   UNL     1     -43.722 -52.717  12.680  1.00  0.00     0.029 C 
HETATM   23  C   UNL     1     -43.670 -50.244  13.090  1.00  0.00     0.032 C 
HETATM   24  H   UNL     1     -41.288 -50.142  12.150  1.00  0.00     0.164 HD
ENDBRANCH   1  13
TORSDOF 4
ENDMDL
MODEL 7
REMARK VINA RESULT:      -6.1      3.505      6.429
REMARK  4 active torsions:
REMARK  status: ('A' for Active; 'I' for Inactive)
REMARK    1  A    between atoms: C_2  and  C_4 
REMARK    2  A    between atoms: C_8  and  C_9 
REMARK    3  A    between atoms: C_9  and  C_10 
REMARK    4  A    between atoms: C_10  and  N_11 
REMARK       I    between atoms: N_11  and  C_12 
REMARK       I    between atoms: C_12  and  N_14 
ROOT
HETATM    1  C   UNL     1     -41.158 -54.306  13.265  1.00  0.00     0.132 C 
ENDROOT
BRANCH   1   2
HETATM    2  C   UNL     1     -42.237 -54.597  14.310  1.00  0.00     0.106 C 
BRANCH   2   3
HETATM    3  C   UNL     1     -43.536 -53.973  13.962  1.00  0.00     0.149 A 
HETATM    4  O   UNL     1     -44.541 -54.823  13.602  1.00  0.00    -0.223 OA
HETATM    5  N   UNL     1     -45.654 -54.030  13.329  1.00  0.00    -0.247 N 
HETATM    6  C   UNL     1     -45.205 -52.786  13.538  1.00  0.00     0.107 A 
ATOM      7  HN  UNL     1     -46.587 -54.325  13.040  1.00  0.00     0.196 HD
HETATM    8  N   UNL     1     -43.894 -52.708  13.949  1.00  0.00    -0.327 N 
ATOM      9  HN  UNL     1     -43.343 -51.882  14.182  1.00  0.00     0.169 HD
BRANCH   6  10
HETATM   10  C   UNL     1     -46.077 -51.588  13.344  1.00  0.00     0.047 C 
HETATM   11  C   UNL     1     -46.935 -51.713  12.086  1.00  0.00     0.017 C 
HETATM   12  C   UNL     1     -46.954 -51.324  14.569  1.00  0.00     0.017 C 
ENDBRANCH   6  10
ENDBRANCH   2   3
ENDBRANCH   1   2
BRANCH   1  13
HETATM   13  N   UNL     1     -40.372 -53.113  13.525  1.00  0.00    -0.343 N 
HETATM   14  C   UNL     1     -40.627 -51.918  12.909  1.00  0.00     0.318 C 
HETATM   15  O   UNL     1     -41.526 -51.795  12.084  1.00  0.00    -0.247 OA
HETATM   16  N   UNL     1     -39.703 -50.927  13.209  1.00  0.00    -0.330 N 
HETATM   17  C   UNL     1     -39.637 -49.802  12.275  1.00  0.00     0.128 C 
HETATM   18  C   UNL     1     -39.192 -50.597  14.561  1.00  0.00     0.085 C 
HETATM   19  C   UNL     1     -38.200 -49.306  12.118  1.00  0.00     0.024 C 
HETATM   20  C   UNL     1     -37.513 -49.009  13.458  1.00  0.00    -0.015 C 
HETATM   21  C   UNL     1     -37.979 -47.680  14.057  1.00  0.00     0.010 C 
HETATM   22  C   UNL     1     -37.716 -50.175  14.441  1.00  0.00     0.029 C 
HETATM   23  C   UNL     1     -39.339 -51.627  15.684  1.00  0.00     0.032 C 
HETATM   24  H   UNL     1     -39.389 -53.257  13.708  1.00  0.00     0.164 HD
ENDBRANCH   1  13
TORSDOF 4
ENDMDL
MODEL 8
REMARK VINA RESULT:      -5.9      2.225      2.966
REMARK  4 active torsions:
REMARK  status: ('A' for Active; 'I' for Inactive)
REMARK    1  A    between atoms: C_2  and  C_4 
REMARK    2  A    between atoms: C_8  and  C_9 
REMARK    3  A    between atoms: C_9  and  C_10 
REMARK    4  A    between atoms: C_10  and  N_11 
REMARK       I    between atoms: N_11  and  C_12 
REMARK       I    between atoms: C_12  and  N_14 
ROOT
HETATM    1  C   UNL     1     -38.994 -51.818  13.839  1.00  0.00     0.132 C 
ENDROOT
BRANCH   1   2
HETATM    2  C   UNL     1     -38.869 -50.305  13.652  1.00  0.00     0.106 C 
BRANCH   2   3
HETATM    3  C   UNL     1     -39.684 -49.811  12.517  1.00  0.00     0.149 A 
HETATM    4  O   UNL     1     -39.632 -50.543  11.367  1.00  0.00    -0.223 OA
HETATM    5  N   UNL     1     -40.468 -49.906  10.451  1.00  0.00    -0.247 N 
HETATM    6  C   UNL     1     -40.926 -48.851  11.135  1.00  0.00     0.107 A 
ATOM      7  HN  UNL     1     -40.680 -50.178   9.491  1.00  0.00     0.196 HD
HETATM    8  N   UNL     1     -40.474 -48.763  12.431  1.00  0.00    -0.327 N 
ATOM      9  HN  UNL     1     -40.694 -48.065  13.142  1.00  0.00     0.169 HD
BRANCH   6  10
HETATM   10  C   UNL     1     -41.863 -47.860  10.525  1.00  0.00     0.047 C 
HETATM   11  C   UNL     1     -43.246 -47.916  11.174  1.00  0.00     0.017 C 
HETATM   12  C   UNL     1     -41.300 -46.439  10.585  1.00  0.00     0.017 C 
ENDBRANCH   6  10
ENDBRANCH   2   3
ENDBRANCH   1   2
BRANCH   1  13
HETATM   13  N   UNL     1     -40.353 -52.326  13.763  1.00  0.00    -0.343 N 
HETATM   14  C   UNL     1     -41.026 -52.786  14.861  1.00  0.00     0.318 C 
HETATM   15  O   UNL     1     -40.507 -52.815  15.973  1.00  0.00    -0.247 OA
HETATM   16  N   UNL     1     -42.271 -53.326  14.568  1.00  0.00    -0.330 N 
HETATM   17  C   UNL     1     -42.839 -54.222  15.576  1.00  0.00     0.128 C 
HETATM   18  C   UNL     1     -43.291 -52.721  13.678  1.00  0.00     0.085 C 
HETATM   19  C   UNL     1     -43.613 -55.363  14.917  1.00  0.00     0.024 C 
HETATM   20  C   UNL     1     -44.652 -54.879  13.895  1.00  0.00    -0.015 C 
HETATM   21  C   UNL     1     -45.908 -54.328  14.575  1.00  0.00     0.010 C 
HETATM   22  C   UNL     1     -44.029 -53.850  12.937  1.00  0.00     0.029 C 
HETATM   23  C   UNL     1     -42.862 -51.646  12.677  1.00  0.00     0.032 C 
HETATM   24  H   UNL     1     -40.598 -52.821  12.917  1.00  0.00     0.164 HD
ENDBRANCH   1  13
TORSDOF 4
ENDMDL
MODEL 9
REMARK VINA RESULT:      -5.8      2.411      3.347
REMARK  4 active torsions:
REMARK  status: ('A' for Active; 'I' for Inactive)
REMARK    1  A    between atoms: C_2  and  C_4 
REMARK    2  A    between atoms: C_8  and  C_9 
REMARK    3  A    between atoms: C_9  and  C_10 
REMARK    4  A    between atoms: C_10  and  N_11 
REMARK       I    between atoms: N_11  and  C_12 
REMARK       I    between atoms: C_12  and  N_14 
ROOT
HETATM    1  C   UNL     1     -40.431 -50.030  13.161  1.00  0.00     0.132 C 
ENDROOT
BRANCH   1   2
HETATM    2  C   UNL     1     -40.041 -49.827  11.696  1.00  0.00     0.106 C 
BRANCH   2   3
HETATM    3  C   UNL     1     -40.361 -48.461  11.216  1.00  0.00     0.149 A 
HETATM    4  O   UNL     1     -41.540 -48.314  10.544  1.00  0.00    -0.223 OA
HETATM    5  N   UNL     1     -41.634 -46.967  10.197  1.00  0.00    -0.247 N 
HETATM    6  C   UNL     1     -40.500 -46.444  10.680  1.00  0.00     0.107 A 
ATOM      7  HN  UNL     1     -42.386 -46.493   9.696  1.00  0.00     0.196 HD
HETATM    8  N   UNL     1     -39.686 -47.339  11.335  1.00  0.00    -0.327 N 
ATOM      9  HN  UNL     1     -38.790 -47.175  11.795  1.00  0.00     0.169 HD
BRANCH   6  10
HETATM   10  C   UNL     1     -40.166 -44.997  10.519  1.00  0.00     0.047 C 
HETATM   11  C   UNL     1     -39.793 -44.352  11.854  1.00  0.00     0.017 C 
HETATM   12  C   UNL     1     -39.053 -44.786   9.492  1.00  0.00     0.017 C 
ENDBRANCH   6  10
ENDBRANCH   2   3
ENDBRANCH   1   2
BRANCH   1  13
HETATM   13  N   UNL     1     -41.283 -51.181  13.405  1.00  0.00    -0.343 N 
HETATM   14  C   UNL     1     -42.632 -51.156  13.180  1.00  0.00     0.318 C 
HETATM   15  O   UNL     1     -43.202 -50.147  12.776  1.00  0.00    -0.247 OA
HETATM   16  N   UNL     1     -43.286 -52.316  13.572  1.00  0.00    -0.330 N 
HETATM   17  C   UNL     1     -44.729 -52.202  13.785  1.00  0.00     0.128 C 
HETATM   18  C   UNL     1     -42.842 -53.701  13.285  1.00  0.00     0.085 C 
HETATM   19  C   UNL     1     -45.179 -53.083  14.950  1.00  0.00     0.024 C 
HETATM   20  C   UNL     1     -44.707 -54.538  14.827  1.00  0.00    -0.015 C 
HETATM   21  C   UNL     1     -45.545 -55.327  13.817  1.00  0.00     0.010 C 
HETATM   22  C   UNL     1     -43.209 -54.594  14.484  1.00  0.00     0.029 C 
HETATM   23  C   UNL     1     -41.384 -53.949  12.890  1.00  0.00     0.032 C 
HETATM   24  H   UNL     1     -41.027 -51.768  14.186  1.00  0.00     0.164 HD
ENDBRANCH   1  13
TORSDOF 4
ENDMDL
