MODEL 1
REMARK VINA RESULT:      -6.1      0.000      0.000
REMARK  3 active torsions:
REMARK  status: ('A' for Active; 'I' for Inactive)
REMARK    1  A    between atoms: C_5  and  N_8 
REMARK       I    between atoms: N_8  and  C_9 
REMARK    2  A    between atoms: C_9  and  C_11 
REMARK    3  A    between atoms: C_11  and  N_12 
ROOT
HETATM    1  N   UNL     1     -39.645 -47.360  11.147  1.00  0.00    -0.355 N 
HETATM    2  C   UNL     1     -40.325 -46.188  10.958  1.00  0.00     0.236 C 
HETATM    3  O   UNL     1     -39.830 -45.322  10.232  1.00  0.00    -0.272 OA
HETATM    4  H   UNL     1     -38.719 -47.355  10.731  1.00  0.00     0.162 HD
ENDROOT
BRANCH   2   5
HETATM    5  C   UNL     1     -41.717 -46.015  11.571  1.00  0.00     0.235 C 
BRANCH   5   6
HETATM    6  N   UNL     1     -42.783 -46.542  10.713  1.00  0.00    -0.301 N 
HETATM    7  C   UNL     1     -43.117 -45.856   9.561  1.00  0.00     0.102 C 
HETATM    8  C   UNL     1     -44.142 -46.223   8.793  1.00  0.00     0.092 C 
HETATM    9  C   UNL     1     -44.947 -47.385   9.196  1.00  0.00     0.250 C 
HETATM   10  O   UNL     1     -45.975 -47.680   8.601  1.00  0.00    -0.268 OA
HETATM   11  N   UNL     1     -44.481 -48.083  10.271  1.00  0.00    -0.275 N 
HETATM   12  C   UNL     1     -43.473 -47.682  11.108  1.00  0.00     0.329 C 
HETATM   13  H   UNL     1     -45.030 -48.871  10.575  1.00  0.00     0.173 HD
HETATM   14  O   UNL     1     -43.243 -48.311  12.139  1.00  0.00    -0.246 OA
ENDBRANCH   5   6
ENDBRANCH   2   5
BRANCH   1  15
HETATM   15  C   UNL     1     -39.999 -48.438  12.060  1.00  0.00     0.084 C 
HETATM   16  C   UNL     1     -39.422 -48.184  13.456  1.00  0.00     0.025 C 
HETATM   17  C   UNL     1     -37.919 -48.449  13.527  1.00  0.00     0.006 C 
HETATM   18  C   UNL     1     -37.540 -49.843  13.013  1.00  0.00    -0.019 C 
HETATM   19  C   UNL     1     -38.001 -50.941  13.976  1.00  0.00     0.010 C 
HETATM   20  C   UNL     1     -38.087 -50.064  11.597  1.00  0.00     0.006 C 
HETATM   21  C   UNL     1     -39.587 -49.798  11.491  1.00  0.00     0.025 C 
ENDBRANCH   1  15
TORSDOF 3
ENDMDL
MODEL 2
REMARK VINA RESULT:      -5.8      4.125      5.424
REMARK  3 active torsions:
REMARK  status: ('A' for Active; 'I' for Inactive)
REMARK    1  A    between atoms: C_5  and  N_8 
REMARK       I    between atoms: N_8  and  C_9 
REMARK    2  A    between atoms: C_9  and  C_11 
REMARK    3  A    between atoms: C_11  and  N_12 
ROOT
HETATM    1  N   UNL     1     -42.826 -51.476  12.624  1.00  0.00    -0.355 N 
HETATM    2  C   UNL     1     -41.823 -50.615  12.270  1.00  0.00     0.236 C 
HETATM    3  O   UNL     1     -40.957 -51.000  11.480  1.00  0.00    -0.272 OA
HETATM    4  H   UNL     1     -42.691 -52.414  12.260  1.00  0.00     0.162 HD
ENDROOT
BRANCH   2   5
HETATM    5  C   UNL     1     -41.849 -49.173  12.785  1.00  0.00     0.235 C 
BRANCH   5   6
HETATM    6  N   UNL     1     -42.179 -48.203  11.735  1.00  0.00    -0.301 N 
HETATM    7  C   UNL     1     -43.494 -48.071  11.334  1.00  0.00     0.102 C 
HETATM    8  C   UNL     1     -43.846 -47.284  10.317  1.00  0.00     0.092 C 
HETATM    9  C   UNL     1     -42.797 -46.550   9.596  1.00  0.00     0.250 C 
HETATM   10  O   UNL     1     -43.051 -45.923   8.576  1.00  0.00    -0.268 OA
HETATM   11  N   UNL     1     -41.544 -46.632  10.128  1.00  0.00    -0.275 N 
HETATM   12  C   UNL     1     -41.155 -47.485  11.128  1.00  0.00     0.329 C 
HETATM   13  H   UNL     1     -40.808 -46.151   9.637  1.00  0.00     0.173 HD
HETATM   14  O   UNL     1     -39.965 -47.589  11.419  1.00  0.00    -0.246 OA
ENDBRANCH   5   6
ENDBRANCH   2   5
BRANCH   1  15
HETATM   15  C   UNL     1     -43.855 -51.252  13.629  1.00  0.00     0.084 C 
HETATM   16  C   UNL     1     -43.771 -52.304  14.740  1.00  0.00     0.025 C 
HETATM   17  C   UNL     1     -44.315 -53.664  14.304  1.00  0.00     0.006 C 
HETATM   18  C   UNL     1     -45.733 -53.575  13.727  1.00  0.00    -0.019 C 
HETATM   19  C   UNL     1     -46.764 -53.267  14.817  1.00  0.00     0.010 C 
HETATM   20  C   UNL     1     -45.789 -52.551  12.587  1.00  0.00     0.006 C 
HETATM   21  C   UNL     1     -45.244 -51.182  12.989  1.00  0.00     0.025 C 
ENDBRANCH   1  15
TORSDOF 3
ENDMDL
MODEL 3
REMARK VINA RESULT:      -5.7      4.815      7.594
REMARK  3 active torsions:
REMARK  status: ('A' for Active; 'I' for Inactive)
REMARK    1  A    between atoms: C_5  and  N_8 
REMARK       I    between atoms: N_8  and  C_9 
REMARK    2  A    between atoms: C_9  and  C_11 
REMARK    3  A    between atoms: C_11  and  N_12 
ROOT
HETATM    1  N   UNL     1     -43.047 -52.827  13.599  1.00  0.00    -0.355 N 
HETATM    2  C   UNL     1     -41.705 -53.097  13.584  1.00  0.00     0.236 C 
HETATM    3  O   UNL     1     -41.304 -54.087  12.966  1.00  0.00    -0.272 OA
HETATM    4  H   UNL     1     -43.605 -53.554  13.164  1.00  0.00     0.162 HD
ENDROOT
BRANCH   2   5
HETATM    5  C   UNL     1     -40.730 -52.123  14.252  1.00  0.00     0.235 C 
BRANCH   5   6
HETATM    6  N   UNL     1     -39.757 -51.562  13.309  1.00  0.00    -0.301 N 
HETATM    7  C   UNL     1     -38.409 -51.690  13.583  1.00  0.00     0.102 C 
HETATM    8  C   UNL     1     -37.477 -51.116  12.823  1.00  0.00     0.092 C 
HETATM    9  C   UNL     1     -37.903 -50.311  11.669  1.00  0.00     0.250 C 
HETATM   10  O   UNL     1     -37.097 -49.655  11.022  1.00  0.00    -0.268 OA
HETATM   11  N   UNL     1     -39.238 -50.335  11.392  1.00  0.00    -0.275 N 
HETATM   12  C   UNL     1     -40.213 -50.863  12.197  1.00  0.00     0.329 C 
HETATM   13  H   UNL     1     -39.552 -49.775  10.616  1.00  0.00     0.173 HD
HETATM   14  O   UNL     1     -41.398 -50.688  11.924  1.00  0.00    -0.246 OA
ENDBRANCH   5   6
ENDBRANCH   2   5
BRANCH   1  15
HETATM   15  C   UNL     1     -43.720 -51.791  14.370  1.00  0.00     0.084 C 
HETATM   16  C   UNL     1     -44.256 -52.354  15.690  1.00  0.00     0.025 C 
HETATM   17  C   UNL     1     -45.511 -53.205  15.499  1.00  0.00     0.006 C 
HETATM   18  C   UNL     1     -46.609 -52.471  14.720  1.00  0.00    -0.019 C 
HETATM   19  C   UNL     1     -47.232 -51.346  15.553  1.00  0.00     0.010 C 
HETATM   20  C   UNL     1     -46.068 -51.951  13.382  1.00  0.00     0.006 C 
HETATM   21  C   UNL     1     -44.807 -51.105  13.538  1.00  0.00     0.025 C 
ENDBRANCH   1  15
TORSDOF 3
ENDMDL
MODEL 4
REMARK VINA RESULT:      -5.7      3.589      4.475
REMARK  3 active torsions:
REMARK  status: ('A' for Active; 'I' for Inactive)
REMARK    1  A    between atoms: C_5  and  N_8 
REMARK       I    between atoms: N_8  and  C_9 
REMARK    2  A    between atoms: C_9  and  C_11 
REMARK    3  A    between atoms: C_11  and  N_12 
ROOT
HETATM    1  N   UNL     1     -41.168 -51.242  12.368  1.00  0.00    -0.355 N 
HETATM    2  C   UNL     1     -40.637 -50.055  11.941  1.00  0.00     0.236 C 
HETATM    3  O   UNL     1     -39.817 -50.065  11.019  1.00  0.00    -0.272 OA
HETATM    4  H   UNL     1     -40.739 -52.050  11.928  1.00  0.00     0.162 HD
ENDROOT
BRANCH   2   5
HETATM    5  C   UNL     1     -41.138 -48.741  12.549  1.00  0.00     0.235 C 
BRANCH   5   6
HETATM    6  N   UNL     1     -41.762 -47.860  11.557  1.00  0.00    -0.301 N 
HETATM    7  C   UNL     1     -43.088 -48.058  11.225  1.00  0.00     0.102 C 
HETATM    8  C   UNL     1     -43.686 -47.360  10.259  1.00  0.00     0.092 C 
HETATM    9  C   UNL     1     -42.900 -46.362   9.519  1.00  0.00     0.250 C 
HETATM   10  O   UNL     1     -43.362 -45.794   8.539  1.00  0.00    -0.268 OA
HETATM   11  N   UNL     1     -41.639 -46.136   9.987  1.00  0.00    -0.275 N 
HETATM   12  C   UNL     1     -40.990 -46.888  10.931  1.00  0.00     0.329 C 
HETATM   13  H   UNL     1     -41.079 -45.469   9.481  1.00  0.00     0.173 HD
HETATM   14  O   UNL     1     -39.799 -46.692  11.161  1.00  0.00    -0.246 OA
ENDBRANCH   5   6
ENDBRANCH   2   5
BRANCH   1  15
HETATM   15  C   UNL     1     -42.042 -51.446  13.514  1.00  0.00     0.084 C 
HETATM   16  C   UNL     1     -41.519 -52.576  14.406  1.00  0.00     0.025 C 
HETATM   17  C   UNL     1     -41.770 -53.960  13.808  1.00  0.00     0.006 C 
HETATM   18  C   UNL     1     -43.240 -54.183  13.432  1.00  0.00    -0.019 C 
HETATM   19  C   UNL     1     -44.123 -54.318  14.676  1.00  0.00     0.010 C 
HETATM   20  C   UNL     1     -43.735 -53.066  12.503  1.00  0.00     0.006 C 
HETATM   21  C   UNL     1     -43.490 -51.669  13.069  1.00  0.00     0.025 C 
ENDBRANCH   1  15
TORSDOF 3
ENDMDL
MODEL 5
REMARK VINA RESULT:      -5.7      4.272      6.692
REMARK  3 active torsions:
REMARK  status: ('A' for Active; 'I' for Inactive)
REMARK    1  A    between atoms: C_5  and  N_8 
REMARK       I    between atoms: N_8  and  C_9 
REMARK    2  A    between atoms: C_9  and  C_11 
REMARK    3  A    between atoms: C_11  and  N_12 
ROOT
HETATM    1  N   UNL     1     -43.355 -50.085  12.513  1.00  0.00    -0.355 N 
HETATM    2  C   UNL     1     -42.321 -49.209  12.319  1.00  0.00     0.236 C 
HETATM    3  O   UNL     1     -42.271 -48.571  11.264  1.00  0.00    -0.272 OA
HETATM    4  H   UNL     1     -43.943 -50.194  11.693  1.00  0.00     0.162 HD
ENDROOT
BRANCH   2   5
HETATM    5  C   UNL     1     -41.309 -48.974  13.444  1.00  0.00     0.235 C 
BRANCH   5   6
HETATM    6  N   UNL     1     -40.012 -49.605  13.179  1.00  0.00    -0.301 N 
HETATM    7  C   UNL     1     -39.240 -49.136  12.134  1.00  0.00     0.102 C 
HETATM    8  C   UNL     1     -38.101 -49.729  11.777  1.00  0.00     0.092 C 
HETATM    9  C   UNL     1     -37.667 -50.927  12.511  1.00  0.00     0.250 C 
HETATM   10  O   UNL     1     -36.705 -51.584  12.138  1.00  0.00    -0.268 OA
HETATM   11  N   UNL     1     -38.414 -51.253  13.605  1.00  0.00    -0.275 N 
HETATM   12  C   UNL     1     -39.619 -50.696  13.945  1.00  0.00     0.329 C 
HETATM   13  H   UNL     1     -38.143 -52.082  14.110  1.00  0.00     0.173 HD
HETATM   14  O   UNL     1     -40.281 -51.178  14.862  1.00  0.00    -0.246 OA
ENDBRANCH   5   6
ENDBRANCH   2   5
BRANCH   1  15
HETATM   15  C   UNL     1     -43.517 -51.013  13.623  1.00  0.00     0.084 C 
HETATM   16  C   UNL     1     -43.143 -52.438  13.202  1.00  0.00     0.025 C 
HETATM   17  C   UNL     1     -44.215 -53.094  12.332  1.00  0.00     0.006 C 
HETATM   18  C   UNL     1     -45.606 -53.050  12.976  1.00  0.00    -0.019 C 
HETATM   19  C   UNL     1     -45.696 -53.991  14.182  1.00  0.00     0.010 C 
HETATM   20  C   UNL     1     -45.983 -51.611  13.351  1.00  0.00     0.006 C 
HETATM   21  C   UNL     1     -44.927 -50.924  14.213  1.00  0.00     0.025 C 
ENDBRANCH   1  15
TORSDOF 3
ENDMDL
MODEL 6
REMARK VINA RESULT:      -5.7      4.878      6.149
REMARK  3 active torsions:
REMARK  status: ('A' for Active; 'I' for Inactive)
REMARK    1  A    between atoms: C_5  and  N_8 
REMARK       I    between atoms: N_8  and  C_9 
REMARK    2  A    between atoms: C_9  and  C_11 
REMARK    3  A    between atoms: C_11  and  N_12 
ROOT
HETATM    1  N   UNL     1     -42.105 -52.993  13.084  1.00  0.00    -0.355 N 
HETATM    2  C   UNL     1     -40.956 -52.275  12.889  1.00  0.00     0.236 C 
HETATM    3  O   UNL     1     -40.062 -52.760  12.190  1.00  0.00    -0.272 OA
HETATM    4  H   UNL     1     -42.059 -53.930  12.698  1.00  0.00     0.162 HD
ENDROOT
BRANCH   2   5
HETATM    5  C   UNL     1     -40.843 -50.859  13.461  1.00  0.00     0.235 C 
BRANCH   5   6
HETATM    6  N   UNL     1     -41.260 -49.828  12.505  1.00  0.00    -0.301 N 
HETATM    7  C   UNL     1     -42.568 -49.385  12.525  1.00  0.00     0.102 C 
HETATM    8  C   UNL     1     -43.036 -48.527  11.619  1.00  0.00     0.092 C 
HETATM    9  C   UNL     1     -42.133 -48.053  10.561  1.00  0.00     0.250 C 
HETATM   10  O   UNL     1     -42.548 -47.374   9.631  1.00  0.00    -0.268 OA
HETATM   11  N   UNL     1     -40.829 -48.435  10.681  1.00  0.00    -0.275 N 
HETATM   12  C   UNL     1     -40.347 -49.366  11.563  1.00  0.00     0.329 C 
HETATM   13  H   UNL     1     -40.198 -48.136   9.955  1.00  0.00     0.173 HD
HETATM   14  O   UNL     1     -39.183 -49.750  11.476  1.00  0.00    -0.246 OA
ENDBRANCH   5   6
ENDBRANCH   2   5
BRANCH   1  15
HETATM   15  C   UNL     1     -43.208 -52.650  13.971  1.00  0.00     0.084 C 
HETATM   16  C   UNL     1     -43.326 -53.666  15.113  1.00  0.00     0.025 C 
HETATM   17  C   UNL     1     -43.936 -54.991  14.659  1.00  0.00     0.006 C 
HETATM   18  C   UNL     1     -45.276 -54.808  13.936  1.00  0.00    -0.019 C 
HETATM   19  C   UNL     1     -46.382 -54.378  14.905  1.00  0.00     0.010 C 
HETATM   20  C   UNL     1     -45.130 -53.823  12.769  1.00  0.00     0.006 C 
HETATM   21  C   UNL     1     -44.514 -52.490  13.189  1.00  0.00     0.025 C 
ENDBRANCH   1  15
TORSDOF 3
ENDMDL
MODEL 7
REMARK VINA RESULT:      -5.6      6.664      9.139
REMARK  3 active torsions:
REMARK  status: ('A' for Active; 'I' for Inactive)
REMARK    1  A    between atoms: C_5  and  N_8 
REMARK       I    between atoms: N_8  and  C_9 
REMARK    2  A    between atoms: C_9  and  C_11 
REMARK    3  A    between atoms: C_11  and  N_12 
ROOT
HETATM    1  N   UNL     1     -45.988 -53.672  14.695  1.00  0.00    -0.355 N 
HETATM    2  C   UNL     1     -45.388 -54.567  13.852  1.00  0.00     0.236 C 
HETATM    3  O   UNL     1     -45.769 -55.741  13.860  1.00  0.00    -0.272 OA
HETATM    4  H   UNL     1     -46.644 -54.107  15.336  1.00  0.00     0.162 HD
ENDROOT
BRANCH   2   5
HETATM    5  C   UNL     1     -44.330 -54.077  12.859  1.00  0.00     0.235 C 
BRANCH   5   6
HETATM    6  N   UNL     1     -42.993 -53.988  13.455  1.00  0.00    -0.301 N 
HETATM    7  C   UNL     1     -42.697 -54.768  14.556  1.00  0.00     0.102 C 
HETATM    8  C   UNL     1     -41.538 -54.660  15.206  1.00  0.00     0.092 C 
HETATM    9  C   UNL     1     -40.557 -53.669  14.741  1.00  0.00     0.250 C 
HETATM   10  O   UNL     1     -39.539 -53.437  15.381  1.00  0.00    -0.268 OA
HETATM   11  N   UNL     1     -40.868 -53.028  13.578  1.00  0.00    -0.275 N 
HETATM   12  C   UNL     1     -42.078 -53.079  12.937  1.00  0.00     0.329 C 
HETATM   13  H   UNL     1     -40.217 -52.332  13.253  1.00  0.00     0.173 HD
HETATM   14  O   UNL     1     -42.300 -52.335  11.983  1.00  0.00    -0.246 OA
ENDBRANCH   5   6
ENDBRANCH   2   5
BRANCH   1  15
HETATM   15  C   UNL     1     -45.596 -52.288  14.922  1.00  0.00     0.084 C 
HETATM   16  C   UNL     1     -44.707 -52.169  16.164  1.00  0.00     0.025 C 
HETATM   17  C   UNL     1     -45.497 -52.291  17.467  1.00  0.00     0.006 C 
HETATM   18  C   UNL     1     -46.680 -51.317  17.533  1.00  0.00    -0.019 C 
HETATM   19  C   UNL     1     -46.207 -49.870  17.699  1.00  0.00     0.010 C 
HETATM   20  C   UNL     1     -47.584 -51.480  16.304  1.00  0.00     0.006 C 
HETATM   21  C   UNL     1     -46.821 -51.373  14.985  1.00  0.00     0.025 C 
ENDBRANCH   1  15
TORSDOF 3
ENDMDL
MODEL 8
REMARK VINA RESULT:      -5.5      7.002      8.938
REMARK  3 active torsions:
REMARK  status: ('A' for Active; 'I' for Inactive)
REMARK    1  A    between atoms: C_5  and  N_8 
REMARK       I    between atoms: N_8  and  C_9 
REMARK    2  A    between atoms: C_9  and  C_11 
REMARK    3  A    between atoms: C_11  and  N_12 
ROOT
HETATM    1  N   UNL     1     -46.532 -52.563  16.620  1.00  0.00    -0.355 N 
HETATM    2  C   UNL     1     -46.093 -53.368  15.604  1.00  0.00     0.236 C 
HETATM    3  O   UNL     1     -45.750 -54.524  15.865  1.00  0.00    -0.272 OA
HETATM    4  H   UNL     1     -46.431 -52.987  17.536  1.00  0.00     0.162 HD
ENDROOT
BRANCH   2   5
HETATM    5  C   UNL     1     -46.126 -52.851  14.162  1.00  0.00     0.235 C 
BRANCH   5   6
HETATM    6  N   UNL     1     -44.786 -52.598  13.622  1.00  0.00    -0.301 N 
HETATM    7  C   UNL     1     -44.142 -51.422  13.951  1.00  0.00     0.102 C 
HETATM    8  C   UNL     1     -42.970 -51.084  13.413  1.00  0.00     0.092 C 
HETATM    9  C   UNL     1     -42.358 -51.988  12.430  1.00  0.00     0.250 C 
HETATM   10  O   UNL     1     -41.354 -51.663  11.809  1.00  0.00    -0.268 OA
HETATM   11  N   UNL     1     -42.989 -53.184  12.251  1.00  0.00    -0.275 N 
HETATM   12  C   UNL     1     -44.223 -53.517  12.744  1.00  0.00     0.329 C 
HETATM   13  H   UNL     1     -42.594 -53.810  11.568  1.00  0.00     0.173 HD
HETATM   14  O   UNL     1     -44.766 -54.562  12.388  1.00  0.00    -0.246 OA
ENDBRANCH   5   6
ENDBRANCH   2   5
BRANCH   1  15
HETATM   15  C   UNL     1     -46.855 -51.145  16.533  1.00  0.00     0.084 C 
HETATM   16  C   UNL     1     -45.748 -50.294  17.164  1.00  0.00     0.025 C 
HETATM   17  C   UNL     1     -45.774 -50.336  18.691  1.00  0.00     0.006 C 
HETATM   18  C   UNL     1     -47.149 -49.979  19.269  1.00  0.00    -0.019 C 
HETATM   19  C   UNL     1     -47.466 -48.492  19.085  1.00  0.00     0.010 C 
HETATM   20  C   UNL     1     -48.239 -50.871  18.660  1.00  0.00     0.006 C 
HETATM   21  C   UNL     1     -48.234 -50.858  17.133  1.00  0.00     0.025 C 
ENDBRANCH   1  15
TORSDOF 3
ENDMDL
MODEL 9
REMARK VINA RESULT:      -5.4      3.827      5.062
REMARK  3 active torsions:
REMARK  status: ('A' for Active; 'I' for Inactive)
REMARK    1  A    between atoms: C_5  and  N_8 
REMARK       I    between atoms: N_8  and  C_9 
REMARK    2  A    between atoms: C_9  and  C_11 
REMARK    3  A    between atoms: C_11  and  N_12 
ROOT
HETATM    1  N   UNL     1     -42.081 -51.358  12.107  1.00  0.00    -0.355 N 
HETATM    2  C   UNL     1     -41.463 -50.180  11.784  1.00  0.00     0.236 C 
HETATM    3  O   UNL     1     -40.470 -50.210  11.053  1.00  0.00    -0.272 OA
HETATM    4  H   UNL     1     -41.578 -52.175  11.778  1.00  0.00     0.162 HD
ENDROOT
BRANCH   2   5
HETATM    5  C   UNL     1     -42.068 -48.855  12.257  1.00  0.00     0.235 C 
BRANCH   5   6
HETATM    6  N   UNL     1     -41.473 -47.692  11.590  1.00  0.00    -0.301 N 
HETATM    7  C   UNL     1     -40.436 -47.023  12.210  1.00  0.00     0.102 C 
HETATM    8  C   UNL     1     -39.921 -45.900  11.708  1.00  0.00     0.092 C 
HETATM    9  C   UNL     1     -40.488 -45.356  10.466  1.00  0.00     0.250 C 
HETATM   10  O   UNL     1     -40.143 -44.262  10.038  1.00  0.00    -0.268 OA
HETATM   11  N   UNL     1     -41.421 -46.137   9.849  1.00  0.00    -0.275 N 
HETATM   12  C   UNL     1     -42.006 -47.255  10.383  1.00  0.00     0.329 C 
HETATM   13  H   UNL     1     -41.835 -45.772   9.006  1.00  0.00     0.173 HD
HETATM   14  O   UNL     1     -42.951 -47.789   9.806  1.00  0.00    -0.246 OA
ENDBRANCH   5   6
ENDBRANCH   2   5
BRANCH   1  15
HETATM   15  C   UNL     1     -43.177 -51.539  13.050  1.00  0.00     0.084 C 
HETATM   16  C   UNL     1     -42.644 -51.841  14.454  1.00  0.00     0.025 C 
HETATM   17  C   UNL     1     -42.123 -53.272  14.589  1.00  0.00     0.006 C 
HETATM   18  C   UNL     1     -43.152 -54.319  14.146  1.00  0.00    -0.019 C 
HETATM   19  C   UNL     1     -44.317 -54.415  15.137  1.00  0.00     0.010 C 
HETATM   20  C   UNL     1     -43.642 -54.027  12.722  1.00  0.00     0.006 C 
HETATM   21  C   UNL     1     -44.161 -52.600  12.552  1.00  0.00     0.025 C 
ENDBRANCH   1  15
TORSDOF 3
ENDMDL
