MODEL 1
REMARK VINA RESULT:      -6.4      0.000      0.000
REMARK  3 active torsions:
REMARK  status: ('A' for Active; 'I' for Inactive)
REMARK    1  A    between atoms: C_2  and  C_3 
REMARK       I    between atoms: C_2  and  N_12 
REMARK    2  A    between atoms: C_3  and  N_4 
REMARK    3  A    between atoms: N_12  and  C_13 
ROOT
HETATM    1  O   UNL     1     -42.226 -50.089  13.910  1.00  0.00    -0.272 OA
HETATM    2  C   UNL     1     -42.112 -50.650  12.823  1.00  0.00     0.236 C 
HETATM    3  N   UNL     1     -42.947 -51.669  12.381  1.00  0.00    -0.355 N 
HETATM    4  H   UNL     1     -43.085 -51.657  11.375  1.00  0.00     0.162 HD
ENDROOT
BRANCH   2   5
HETATM    5  C   UNL     1     -40.978 -50.328  11.833  1.00  0.00     0.235 C 
BRANCH   5   6
HETATM    6  N   UNL     1     -41.001 -48.969  11.300  1.00  0.00    -0.301 N 
HETATM    7  C   UNL     1     -42.168 -48.441  10.786  1.00  0.00     0.102 A 
HETATM    8  C   UNL     1     -42.264 -47.157  10.429  1.00  0.00     0.092 A 
HETATM    9  C   UNL     1     -41.084 -46.289  10.571  1.00  0.00     0.250 A 
HETATM   10  O   UNL     1     -41.138 -45.098  10.284  1.00  0.00    -0.268 OA
HETATM   11  N   UNL     1     -39.956 -46.889  11.047  1.00  0.00    -0.275 N 
HETATM   12  C   UNL     1     -39.863 -48.189  11.482  1.00  0.00     0.329 A 
HETATM   13  H   UNL     1     -39.150 -46.304  11.194  1.00  0.00     0.173 HD
HETATM   14  O   UNL     1     -38.839 -48.608  12.019  1.00  0.00    -0.246 OA
ENDBRANCH   5   6
ENDBRANCH   2   5
BRANCH   3  15
HETATM   15  C   UNL     1     -44.092 -52.177  13.162  1.00  0.00     0.084 C 
HETATM   16  C   UNL     1     -44.379 -53.653  12.827  1.00  0.00     0.025 C 
HETATM   17  C   UNL     1     -45.381 -54.399  13.720  1.00  0.00     0.002 C 
HETATM   18  C   UNL     1     -45.307 -54.072  15.212  1.00  0.00     0.000 C 
HETATM   19  C   UNL     1     -46.390 -53.110  15.711  1.00  0.00     0.000 C 
HETATM   20  C   UNL     1     -46.342 -51.668  15.200  1.00  0.00     0.000 C 
HETATM   21  C   UNL     1     -46.577 -51.504  13.700  1.00  0.00     0.002 C 
HETATM   22  C   UNL     1     -45.308 -51.273  12.877  1.00  0.00     0.025 C 
ENDBRANCH   3  15
TORSDOF 3
ENDMDL
MODEL 2
REMARK VINA RESULT:      -6.2      2.268      3.316
REMARK  3 active torsions:
REMARK  status: ('A' for Active; 'I' for Inactive)
REMARK    1  A    between atoms: C_2  and  C_3 
REMARK       I    between atoms: C_2  and  N_12 
REMARK    2  A    between atoms: C_3  and  N_4 
REMARK    3  A    between atoms: N_12  and  C_13 
ROOT
HETATM    1  O   UNL     1     -42.447 -50.272  15.399  1.00  0.00    -0.272 OA
HETATM    2  C   UNL     1     -42.280 -50.070  14.199  1.00  0.00     0.236 C 
HETATM    3  N   UNL     1     -42.949 -50.758  13.193  1.00  0.00    -0.355 N 
HETATM    4  H   UNL     1     -43.122 -50.185  12.372  1.00  0.00     0.162 HD
ENDROOT
BRANCH   2   5
HETATM    5  C   UNL     1     -41.251 -49.060  13.658  1.00  0.00     0.235 C 
BRANCH   5   6
HETATM    6  N   UNL     1     -39.972 -49.645  13.263  1.00  0.00    -0.301 N 
HETATM    7  C   UNL     1     -39.042 -49.998  14.219  1.00  0.00     0.102 A 
HETATM    8  C   UNL     1     -37.930 -50.670  13.908  1.00  0.00     0.092 A 
HETATM    9  C   UNL     1     -37.685 -51.024  12.500  1.00  0.00     0.250 A 
HETATM   10  O   UNL     1     -36.692 -51.666  12.174  1.00  0.00    -0.268 OA
HETATM   11  N   UNL     1     -38.626 -50.607  11.607  1.00  0.00    -0.275 N 
HETATM   12  C   UNL     1     -39.806 -49.978  11.922  1.00  0.00     0.329 A 
HETATM   13  H   UNL     1     -38.500 -50.877  10.645  1.00  0.00     0.173 HD
HETATM   14  O   UNL     1     -40.657 -49.756  11.063  1.00  0.00    -0.246 OA
ENDBRANCH   5   6
ENDBRANCH   2   5
BRANCH   3  15
HETATM   15  C   UNL     1     -43.963 -51.796  13.456  1.00  0.00     0.084 C 
HETATM   16  C   UNL     1     -43.737 -53.030  12.561  1.00  0.00     0.025 C 
HETATM   17  C   UNL     1     -44.557 -54.290  12.873  1.00  0.00     0.002 C 
HETATM   18  C   UNL     1     -44.766 -54.592  14.357  1.00  0.00     0.000 C 
HETATM   19  C   UNL     1     -46.144 -54.205  14.901  1.00  0.00     0.000 C 
HETATM   20  C   UNL     1     -46.485 -52.714  14.964  1.00  0.00     0.000 C 
HETATM   21  C   UNL     1     -46.580 -52.015  13.609  1.00  0.00     0.002 C 
HETATM   22  C   UNL     1     -45.356 -51.173  13.239  1.00  0.00     0.025 C 
ENDBRANCH   3  15
TORSDOF 3
ENDMDL
MODEL 3
REMARK VINA RESULT:      -6.0      2.300      2.606
REMARK  3 active torsions:
REMARK  status: ('A' for Active; 'I' for Inactive)
REMARK    1  A    between atoms: C_2  and  C_3 
REMARK       I    between atoms: C_2  and  N_12 
REMARK    2  A    between atoms: C_3  and  N_4 
REMARK    3  A    between atoms: N_12  and  C_13 
ROOT
HETATM    1  O   UNL     1     -41.353 -52.543  13.957  1.00  0.00    -0.272 OA
HETATM    2  C   UNL     1     -41.661 -51.978  12.911  1.00  0.00     0.236 C 
HETATM    3  N   UNL     1     -42.969 -51.808  12.473  1.00  0.00    -0.355 N 
HETATM    4  H   UNL     1     -43.102 -50.945  11.956  1.00  0.00     0.162 HD
ENDROOT
BRANCH   2   5
HETATM    5  C   UNL     1     -40.618 -51.434  11.918  1.00  0.00     0.235 C 
BRANCH   5   6
HETATM    6  N   UNL     1     -39.778 -50.360  12.442  1.00  0.00    -0.301 N 
HETATM    7  C   UNL     1     -40.285 -49.084  12.584  1.00  0.00     0.102 A 
HETATM    8  C   UNL     1     -39.598 -48.116  13.197  1.00  0.00     0.092 A 
HETATM    9  C   UNL     1     -38.254 -48.418  13.715  1.00  0.00     0.250 A 
HETATM   10  O   UNL     1     -37.601 -47.567  14.310  1.00  0.00    -0.268 OA
HETATM   11  N   UNL     1     -37.803 -49.686  13.502  1.00  0.00    -0.275 N 
HETATM   12  C   UNL     1     -38.525 -50.709  12.937  1.00  0.00     0.329 A 
HETATM   13  H   UNL     1     -36.904 -49.926  13.887  1.00  0.00     0.173 HD
HETATM   14  O   UNL     1     -38.084 -51.857  12.904  1.00  0.00    -0.246 OA
ENDBRANCH   5   6
ENDBRANCH   2   5
BRANCH   3  15
HETATM   15  C   UNL     1     -44.146 -52.269  13.235  1.00  0.00     0.084 C 
HETATM   16  C   UNL     1     -44.499 -53.726  12.881  1.00  0.00     0.025 C 
HETATM   17  C   UNL     1     -45.546 -54.432  13.754  1.00  0.00     0.002 C 
HETATM   18  C   UNL     1     -45.477 -54.124  15.250  1.00  0.00     0.000 C 
HETATM   19  C   UNL     1     -46.518 -53.117  15.745  1.00  0.00     0.000 C 
HETATM   20  C   UNL     1     -46.396 -51.673  15.251  1.00  0.00     0.000 C 
HETATM   21  C   UNL     1     -46.604 -51.484  13.750  1.00  0.00     0.002 C 
HETATM   22  C   UNL     1     -45.314 -51.305  12.945  1.00  0.00     0.025 C 
ENDBRANCH   3  15
TORSDOF 3
ENDMDL
MODEL 4
REMARK VINA RESULT:      -5.8      1.410      1.697
REMARK  3 active torsions:
REMARK  status: ('A' for Active; 'I' for Inactive)
REMARK    1  A    between atoms: C_2  and  C_3 
REMARK       I    between atoms: C_2  and  N_12 
REMARK    2  A    between atoms: C_3  and  N_4 
REMARK    3  A    between atoms: N_12  and  C_13 
ROOT
HETATM    1  O   UNL     1     -42.288 -50.554  15.564  1.00  0.00    -0.272 OA
HETATM    2  C   UNL     1     -41.836 -50.812  14.451  1.00  0.00     0.236 C 
HETATM    3  N   UNL     1     -42.501 -51.575  13.498  1.00  0.00    -0.355 N 
HETATM    4  H   UNL     1     -42.301 -51.278  12.547  1.00  0.00     0.162 HD
ENDROOT
BRANCH   2   5
HETATM    5  C   UNL     1     -40.434 -50.366  13.996  1.00  0.00     0.235 C 
BRANCH   5   6
HETATM    6  N   UNL     1     -40.420 -49.192  13.127  1.00  0.00    -0.301 N 
HETATM    7  C   UNL     1     -40.231 -47.933  13.660  1.00  0.00     0.102 A 
HETATM    8  C   UNL     1     -40.062 -46.857  12.886  1.00  0.00     0.092 A 
HETATM    9  C   UNL     1     -40.101 -47.021  11.423  1.00  0.00     0.250 A 
HETATM   10  O   UNL     1     -39.922 -46.066  10.676  1.00  0.00    -0.268 OA
HETATM   11  N   UNL     1     -40.333 -48.286  10.971  1.00  0.00    -0.275 N 
HETATM   12  C   UNL     1     -40.438 -49.410  11.754  1.00  0.00     0.329 A 
HETATM   13  H   UNL     1     -40.320 -48.428   9.974  1.00  0.00     0.173 HD
HETATM   14  O   UNL     1     -40.516 -50.530  11.251  1.00  0.00    -0.246 OA
ENDBRANCH   5   6
ENDBRANCH   2   5
BRANCH   3  15
HETATM   15  C   UNL     1     -43.847 -52.143  13.707  1.00  0.00     0.084 C 
HETATM   16  C   UNL     1     -43.959 -53.547  13.082  1.00  0.00     0.025 C 
HETATM   17  C   UNL     1     -45.211 -54.370  13.413  1.00  0.00     0.002 C 
HETATM   18  C   UNL     1     -45.717 -54.256  14.852  1.00  0.00     0.000 C 
HETATM   19  C   UNL     1     -46.924 -53.332  15.034  1.00  0.00     0.000 C 
HETATM   20  C   UNL     1     -46.712 -51.835  14.790  1.00  0.00     0.000 C 
HETATM   21  C   UNL     1     -46.362 -51.458  13.353  1.00  0.00     0.002 C 
HETATM   22  C   UNL     1     -44.879 -51.163  13.114  1.00  0.00     0.025 C 
ENDBRANCH   3  15
TORSDOF 3
ENDMDL
MODEL 5
REMARK VINA RESULT:      -5.6      2.220      3.061
REMARK  3 active torsions:
REMARK  status: ('A' for Active; 'I' for Inactive)
REMARK    1  A    between atoms: C_2  and  C_3 
REMARK       I    between atoms: C_2  and  N_12 
REMARK    2  A    between atoms: C_3  and  N_4 
REMARK    3  A    between atoms: N_12  and  C_13 
ROOT
HETATM    1  O   UNL     1     -41.814 -49.252  13.029  1.00  0.00    -0.272 OA
HETATM    2  C   UNL     1     -41.663 -49.716  11.902  1.00  0.00     0.236 C 
HETATM    3  N   UNL     1     -41.686 -51.075  11.610  1.00  0.00    -0.355 N 
HETATM    4  H   UNL     1     -42.069 -51.273  10.690  1.00  0.00     0.162 HD
ENDROOT
BRANCH   2   5
HETATM    5  C   UNL     1     -41.366 -48.840  10.671  1.00  0.00     0.235 C 
BRANCH   5   6
HETATM    6  N   UNL     1     -41.642 -47.418  10.854  1.00  0.00    -0.301 N 
HETATM    7  C   UNL     1     -40.612 -46.534  11.105  1.00  0.00     0.102 A 
HETATM    8  C   UNL     1     -40.806 -45.213  11.128  1.00  0.00     0.092 A 
HETATM    9  C   UNL     1     -42.163 -44.689  10.898  1.00  0.00     0.250 A 
HETATM   10  O   UNL     1     -42.380 -43.483  10.881  1.00  0.00    -0.268 OA
HETATM   11  N   UNL     1     -43.136 -45.623  10.697  1.00  0.00    -0.275 N 
HETATM   12  C   UNL     1     -42.938 -46.978  10.602  1.00  0.00     0.329 A 
HETATM   13  H   UNL     1     -44.062 -45.285  10.494  1.00  0.00     0.173 HD
HETATM   14  O   UNL     1     -43.855 -47.735  10.287  1.00  0.00    -0.246 OA
ENDBRANCH   5   6
ENDBRANCH   2   5
BRANCH   3  15
HETATM   15  C   UNL     1     -41.924 -52.119  12.625  1.00  0.00     0.084 C 
HETATM   16  C   UNL     1     -40.803 -53.176  12.605  1.00  0.00     0.025 C 
HETATM   17  C   UNL     1     -40.774 -54.197  13.751  1.00  0.00     0.002 C 
HETATM   18  C   UNL     1     -41.127 -53.649  15.134  1.00  0.00     0.000 C 
HETATM   19  C   UNL     1     -42.552 -53.961  15.601  1.00  0.00     0.000 C 
HETATM   20  C   UNL     1     -43.705 -53.305  14.839  1.00  0.00     0.000 C 
HETATM   21  C   UNL     1     -43.851 -53.743  13.383  1.00  0.00     0.002 C 
HETATM   22  C   UNL     1     -43.309 -52.742  12.359  1.00  0.00     0.025 C 
ENDBRANCH   3  15
TORSDOF 3
ENDMDL
MODEL 6
REMARK VINA RESULT:      -5.5      2.915      7.414
REMARK  3 active torsions:
REMARK  status: ('A' for Active; 'I' for Inactive)
REMARK    1  A    between atoms: C_2  and  C_3 
REMARK       I    between atoms: C_2  and  N_12 
REMARK    2  A    between atoms: C_3  and  N_4 
REMARK    3  A    between atoms: N_12  and  C_13 
ROOT
HETATM    1  O   UNL     1     -42.969 -50.808  13.649  1.00  0.00    -0.272 OA
HETATM    2  C   UNL     1     -42.439 -51.171  12.603  1.00  0.00     0.236 C 
HETATM    3  N   UNL     1     -41.822 -50.311  11.702  1.00  0.00    -0.355 N 
HETATM    4  H   UNL     1     -41.033 -50.738  11.227  1.00  0.00     0.162 HD
ENDROOT
BRANCH   2   5
HETATM    5  C   UNL     1     -42.447 -52.636  12.128  1.00  0.00     0.235 C 
BRANCH   5   6
HETATM    6  N   UNL     1     -42.550 -53.624  13.199  1.00  0.00    -0.301 N 
HETATM    7  C   UNL     1     -41.491 -53.832  14.059  1.00  0.00     0.102 A 
HETATM    8  C   UNL     1     -41.601 -54.614  15.136  1.00  0.00     0.092 A 
HETATM    9  C   UNL     1     -42.884 -55.287  15.398  1.00  0.00     0.250 A 
HETATM   10  O   UNL     1     -43.037 -55.989  16.391  1.00  0.00    -0.268 OA
HETATM   11  N   UNL     1     -43.871 -55.066  14.484  1.00  0.00    -0.275 N 
HETATM   12  C   UNL     1     -43.793 -54.211  13.412  1.00  0.00     0.329 A 
HETATM   13  H   UNL     1     -44.769 -55.482  14.667  1.00  0.00     0.173 HD
HETATM   14  O   UNL     1     -44.778 -53.974  12.715  1.00  0.00    -0.246 OA
ENDBRANCH   5   6
ENDBRANCH   2   5
BRANCH   3  15
HETATM   15  C   UNL     1     -41.710 -48.855  11.917  1.00  0.00     0.084 C 
HETATM   16  C   UNL     1     -42.846 -48.100  11.200  1.00  0.00     0.025 C 
HETATM   17  C   UNL     1     -43.013 -46.607  11.515  1.00  0.00     0.002 C 
HETATM   18  C   UNL     1     -42.789 -46.211  12.975  1.00  0.00     0.000 C 
HETATM   19  C   UNL     1     -41.426 -45.576  13.263  1.00  0.00     0.000 C 
HETATM   20  C   UNL     1     -40.188 -46.464  13.118  1.00  0.00     0.000 C 
HETATM   21  C   UNL     1     -39.906 -46.953  11.699  1.00  0.00     0.002 C 
HETATM   22  C   UNL     1     -40.319 -48.403  11.430  1.00  0.00     0.025 C 
ENDBRANCH   3  15
TORSDOF 3
ENDMDL
MODEL 7
REMARK VINA RESULT:      -5.4      2.677      3.387
REMARK  3 active torsions:
REMARK  status: ('A' for Active; 'I' for Inactive)
REMARK    1  A    between atoms: C_2  and  C_3 
REMARK       I    between atoms: C_2  and  N_12 
REMARK    2  A    between atoms: C_3  and  N_4 
REMARK    3  A    between atoms: N_12  and  C_13 
ROOT
HETATM    1  O   UNL     1     -41.948 -49.953  15.353  1.00  0.00    -0.272 OA
HETATM    2  C   UNL     1     -41.352 -49.911  14.280  1.00  0.00     0.236 C 
HETATM    3  N   UNL     1     -40.870 -51.032  13.612  1.00  0.00    -0.355 N 
HETATM    4  H   UNL     1     -40.899 -50.930  12.602  1.00  0.00     0.162 HD
ENDROOT
BRANCH   2   5
HETATM    5  C   UNL     1     -41.009 -48.591  13.567  1.00  0.00     0.235 C 
BRANCH   5   6
HETATM    6  N   UNL     1     -41.675 -48.402  12.280  1.00  0.00    -0.301 N 
HETATM    7  C   UNL     1     -42.874 -47.723  12.209  1.00  0.00     0.102 A 
HETATM    8  C   UNL     1     -43.434 -47.401  11.039  1.00  0.00     0.092 A 
HETATM    9  C   UNL     1     -42.759 -47.802   9.794  1.00  0.00     0.250 A 
HETATM   10  O   UNL     1     -43.223 -47.502   8.700  1.00  0.00    -0.268 OA
HETATM   11  N   UNL     1     -41.601 -48.505   9.943  1.00  0.00    -0.275 N 
HETATM   12  C   UNL     1     -40.979 -48.781  11.136  1.00  0.00     0.329 A 
HETATM   13  H   UNL     1     -41.101 -48.751   9.105  1.00  0.00     0.173 HD
HETATM   14  O   UNL     1     -39.868 -49.307  11.168  1.00  0.00    -0.246 OA
ENDBRANCH   5   6
ENDBRANCH   2   5
BRANCH   3  15
HETATM   15  C   UNL     1     -41.047 -52.410  14.108  1.00  0.00     0.084 C 
HETATM   16  C   UNL     1     -39.728 -53.202  14.023  1.00  0.00     0.025 C 
HETATM   17  C   UNL     1     -39.679 -54.571  14.715  1.00  0.00     0.002 C 
HETATM   18  C   UNL     1     -40.407 -54.660  16.058  1.00  0.00     0.000 C 
HETATM   19  C   UNL     1     -41.781 -55.332  15.997  1.00  0.00     0.000 C 
HETATM   20  C   UNL     1     -42.890 -54.606  15.231  1.00  0.00     0.000 C 
HETATM   21  C   UNL     1     -42.650 -54.461  13.729  1.00  0.00     0.002 C 
HETATM   22  C   UNL     1     -42.173 -53.075  13.291  1.00  0.00     0.025 C 
ENDBRANCH   3  15
TORSDOF 3
ENDMDL
MODEL 8
REMARK VINA RESULT:      -5.2      6.412     10.274
REMARK  3 active torsions:
REMARK  status: ('A' for Active; 'I' for Inactive)
REMARK    1  A    between atoms: C_2  and  C_3 
REMARK       I    between atoms: C_2  and  N_12 
REMARK    2  A    between atoms: C_3  and  N_4 
REMARK    3  A    between atoms: N_12  and  C_13 
ROOT
HETATM    1  O   UNL     1     -47.206 -52.743  18.388  1.00  0.00    -0.272 OA
HETATM    2  C   UNL     1     -46.340 -53.586  18.607  1.00  0.00     0.236 C 
HETATM    3  N   UNL     1     -45.392 -53.990  17.674  1.00  0.00    -0.355 N 
HETATM    4  H   UNL     1     -44.503 -54.237  18.098  1.00  0.00     0.162 HD
ENDROOT
BRANCH   2   5
HETATM    5  C   UNL     1     -46.237 -54.350  19.940  1.00  0.00     0.235 C 
BRANCH   5   6
HETATM    6  N   UNL     1     -47.132 -55.498  20.056  1.00  0.00    -0.301 N 
HETATM    7  C   UNL     1     -48.460 -55.317  20.387  1.00  0.00     0.102 A 
HETATM    8  C   UNL     1     -49.338 -56.323  20.355  1.00  0.00     0.092 A 
HETATM    9  C   UNL     1     -48.868 -57.666  19.974  1.00  0.00     0.250 A 
HETATM   10  O   UNL     1     -49.646 -58.610  19.903  1.00  0.00    -0.268 OA
HETATM   11  N   UNL     1     -47.537 -57.776  19.700  1.00  0.00    -0.275 N 
HETATM   12  C   UNL     1     -46.638 -56.738  19.662  1.00  0.00     0.329 A 
HETATM   13  H   UNL     1     -47.203 -58.676  19.396  1.00  0.00     0.173 HD
HETATM   14  O   UNL     1     -45.483 -56.911  19.277  1.00  0.00    -0.246 OA
ENDBRANCH   5   6
ENDBRANCH   2   5
BRANCH   3  15
HETATM   15  C   UNL     1     -45.302 -53.428  16.313  1.00  0.00     0.084 C 
HETATM   16  C   UNL     1     -44.355 -54.263  15.430  1.00  0.00     0.025 C 
HETATM   17  C   UNL     1     -44.333 -53.954  13.926  1.00  0.00     0.002 C 
HETATM   18  C   UNL     1     -45.689 -53.628  13.299  1.00  0.00     0.000 C 
HETATM   19  C   UNL     1     -45.942 -52.137  13.062  1.00  0.00     0.000 C 
HETATM   20  C   UNL     1     -46.085 -51.240  14.294  1.00  0.00     0.000 C 
HETATM   21  C   UNL     1     -44.828 -51.115  15.152  1.00  0.00     0.002 C 
HETATM   22  C   UNL     1     -44.841 -51.961  16.428  1.00  0.00     0.025 C 
ENDBRANCH   3  15
TORSDOF 3
ENDMDL
MODEL 9
REMARK VINA RESULT:      -5.1      2.864      7.502
REMARK  3 active torsions:
REMARK  status: ('A' for Active; 'I' for Inactive)
REMARK    1  A    between atoms: C_2  and  C_3 
REMARK       I    between atoms: C_2  and  N_12 
REMARK    2  A    between atoms: C_3  and  N_4 
REMARK    3  A    between atoms: N_12  and  C_13 
ROOT
HETATM    1  O   UNL     1     -43.315 -49.239  13.430  1.00  0.00    -0.272 OA
HETATM    2  C   UNL     1     -43.427 -50.455  13.297  1.00  0.00     0.236 C 
HETATM    3  N   UNL     1     -42.355 -51.320  13.109  1.00  0.00    -0.355 N 
HETATM    4  H   UNL     1     -42.508 -52.232  13.528  1.00  0.00     0.162 HD
ENDROOT
BRANCH   2   5
HETATM    5  C   UNL     1     -44.791 -51.169  13.262  1.00  0.00     0.235 C 
BRANCH   5   6
HETATM    6  N   UNL     1     -45.000 -52.138  14.334  1.00  0.00    -0.301 N 
HETATM    7  C   UNL     1     -44.991 -51.732  15.653  1.00  0.00     0.102 A 
HETATM    8  C   UNL     1     -45.326 -52.558  16.648  1.00  0.00     0.092 A 
HETATM    9  C   UNL     1     -45.694 -53.946  16.326  1.00  0.00     0.250 A 
HETATM   10  O   UNL     1     -46.037 -54.729  17.205  1.00  0.00    -0.268 OA
HETATM   11  N   UNL     1     -45.641 -54.286  15.007  1.00  0.00    -0.275 N 
HETATM   12  C   UNL     1     -45.366 -53.430  13.969  1.00  0.00     0.329 A 
HETATM   13  H   UNL     1     -45.931 -55.218  14.760  1.00  0.00     0.173 HD
HETATM   14  O   UNL     1     -45.469 -53.794  12.799  1.00  0.00    -0.246 OA
ENDBRANCH   5   6
ENDBRANCH   2   5
BRANCH   3  15
HETATM   15  C   UNL     1     -40.949 -50.874  13.075  1.00  0.00     0.084 C 
HETATM   16  C   UNL     1     -40.541 -50.434  11.656  1.00  0.00     0.025 C 
HETATM   17  C   UNL     1     -39.191 -49.723  11.497  1.00  0.00     0.002 C 
HETATM   18  C   UNL     1     -38.823 -48.743  12.612  1.00  0.00     0.000 C 
HETATM   19  C   UNL     1     -37.817 -49.284  13.632  1.00  0.00     0.000 C 
HETATM   20  C   UNL     1     -38.274 -50.433  14.535  1.00  0.00     0.000 C 
HETATM   21  C   UNL     1     -38.577 -51.743  13.810  1.00  0.00     0.002 C 
HETATM   22  C   UNL     1     -40.067 -52.025  13.599  1.00  0.00     0.025 C 
ENDBRANCH   3  15
TORSDOF 3
ENDMDL
