MODEL 1
REMARK VINA RESULT:      -5.8      0.000      0.000
REMARK  5 active torsions:
REMARK  status: ('A' for Active; 'I' for Inactive)
REMARK    1  A    between atoms: C_2  and  O_3 
REMARK    2  A    between atoms: O_3  and  C_4 
REMARK    3  A    between atoms: C_4  and  C_5 
REMARK    4  A    between atoms: C_5  and  N_6 
REMARK    5  A    between atoms: C_7  and  N_19 
ROOT
HETATM    1  N   UNL     1     -41.143 -48.418  12.199  1.00  0.00    -0.172 N 
HETATM    2  C   UNL     1     -42.113 -49.426  12.254  1.00  0.00     0.685 C 
HETATM    3  N   UNL     1     -43.189 -49.041  11.583  1.00  0.00    -0.174 N 
ATOM      4  HN  UNL     1     -44.086 -49.525  11.536  1.00  0.00     0.186 HD
HETATM    5  C   UNL     1     -42.861 -47.877  10.971  1.00  0.00     0.160 C 
HETATM    6  N   UNL     1     -43.644 -47.149  10.096  1.00  0.00    -0.287 N 
HETATM    7  C   UNL     1     -44.960 -47.580   9.679  1.00  0.00     0.163 C 
HETATM    8  C   UNL     1     -43.136 -45.969   9.563  1.00  0.00     0.330 C 
HETATM    9  O   UNL     1     -43.748 -45.259   8.765  1.00  0.00    -0.246 OA
HETATM   10  N   UNL     1     -41.865 -45.601   9.948  1.00  0.00    -0.273 N 
HETATM   11  C   UNL     1     -40.987 -46.346  10.693  1.00  0.00     0.280 C 
HETATM   12  O   UNL     1     -39.801 -46.038  10.784  1.00  0.00    -0.265 OA
HETATM   13  C   UNL     1     -41.590 -47.494  11.282  1.00  0.00     0.164 C 
HETATM   14  H   UNL     1     -41.495 -44.776   9.502  1.00  0.00     0.173 HD
ENDROOT
BRANCH   2  15
HETATM   15  N   UNL     1     -41.999 -50.635  12.877  1.00  0.00    -0.214 N 
HETATM   16  C   UNL     1     -42.671 -51.019  14.118  1.00  0.00     0.171 C 
HETATM   17  C   UNL     1     -41.833 -52.007  14.961  1.00  0.00     0.290 C 
HETATM   18  N   UNL     1     -41.388 -53.191  14.204  1.00  0.00     0.086 N 
HETATM   19  C   UNL     1     -40.595 -52.711  13.054  1.00  0.00     0.290 C 
HETATM   20  H   UNL     1     -42.214 -53.667  13.840  1.00  0.00     0.316 HD
HETATM   21  C   UNL     1     -41.349 -51.730  12.128  1.00  0.00     0.171 C 
ENDBRANCH   2  15
BRANCH   1  22
HETATM   22  C   UNL     1     -39.891 -48.323  12.924  1.00  0.00     0.174 C 
BRANCH  22  23
HETATM   23  C   UNL     1     -38.654 -48.968  12.293  1.00  0.00     0.188 C 
BRANCH  23  24
HETATM   24  O   UNL     1     -38.178 -50.097  13.034  1.00  0.00    -0.390 OA
BRANCH  24  25
HETATM   25  C   UNL     1     -37.318 -50.887  12.202  1.00  0.00     0.163 C 
HETATM   26  C   UNL     1     -37.106 -50.214  10.863  1.00  0.00     0.033 C 
ENDBRANCH  24  25
ENDBRANCH  23  24
ENDBRANCH  22  23
ENDBRANCH   1  22
TORSDOF 5
ENDMDL
MODEL 2
REMARK VINA RESULT:      -5.8      1.527      1.747
REMARK  5 active torsions:
REMARK  status: ('A' for Active; 'I' for Inactive)
REMARK    1  A    between atoms: C_2  and  O_3 
REMARK    2  A    between atoms: O_3  and  C_4 
REMARK    3  A    between atoms: C_4  and  C_5 
REMARK    4  A    between atoms: C_5  and  N_6 
REMARK    5  A    between atoms: C_7  and  N_19 
ROOT
HETATM    1  N   UNL     1     -40.824 -49.413  13.167  1.00  0.00    -0.172 N 
HETATM    2  C   UNL     1     -41.711 -50.255  12.486  1.00  0.00     0.685 C 
HETATM    3  N   UNL     1     -42.301 -49.581  11.510  1.00  0.00    -0.174 N 
ATOM      4  HN  UNL     1     -43.064 -49.906  10.916  1.00  0.00     0.186 HD
HETATM    5  C   UNL     1     -41.689 -48.372  11.459  1.00  0.00     0.160 C 
HETATM    6  N   UNL     1     -41.917 -47.364  10.541  1.00  0.00    -0.287 N 
HETATM    7  C   UNL     1     -42.857 -47.496   9.450  1.00  0.00     0.163 C 
HETATM    8  C   UNL     1     -41.189 -46.184  10.645  1.00  0.00     0.330 C 
HETATM    9  O   UNL     1     -41.307 -45.235   9.869  1.00  0.00    -0.246 OA
HETATM   10  N   UNL     1     -40.272 -46.099  11.671  1.00  0.00    -0.273 N 
HETATM   11  C   UNL     1     -39.898 -47.108  12.520  1.00  0.00     0.280 C 
HETATM   12  O   UNL     1     -38.911 -47.005  13.244  1.00  0.00    -0.265 OA
HETATM   13  C   UNL     1     -40.736 -48.256  12.427  1.00  0.00     0.164 C 
HETATM   14  H   UNL     1     -39.714 -45.260  11.690  1.00  0.00     0.173 HD
ENDROOT
BRANCH   2  15
HETATM   15  N   UNL     1     -41.946 -51.575  12.747  1.00  0.00    -0.214 N 
HETATM   16  C   UNL     1     -43.120 -52.109  13.437  1.00  0.00     0.171 C 
HETATM   17  C   UNL     1     -42.796 -53.382  14.251  1.00  0.00     0.290 C 
HETATM   18  N   UNL     1     -42.117 -54.425  13.462  1.00  0.00     0.086 N 
HETATM   19  C   UNL     1     -40.871 -53.838  12.927  1.00  0.00     0.290 C 
HETATM   20  H   UNL     1     -42.715 -54.668  12.671  1.00  0.00     0.316 HD
HETATM   21  C   UNL     1     -41.084 -52.567  12.075  1.00  0.00     0.171 C 
ENDBRANCH   2  15
BRANCH   1  22
HETATM   22  C   UNL     1     -40.099 -49.663  14.398  1.00  0.00     0.174 C 
BRANCH  22  23
HETATM   23  C   UNL     1     -38.924 -50.642  14.344  1.00  0.00     0.188 C 
BRANCH  23  24
HETATM   24  O   UNL     1     -37.763 -50.080  13.722  1.00  0.00    -0.390 OA
BRANCH  24  25
HETATM   25  C   UNL     1     -37.473 -50.798  12.515  1.00  0.00     0.163 C 
HETATM   26  C   UNL     1     -37.525 -49.871  11.319  1.00  0.00     0.033 C 
ENDBRANCH  24  25
ENDBRANCH  23  24
ENDBRANCH  22  23
ENDBRANCH   1  22
TORSDOF 5
ENDMDL
MODEL 3
REMARK VINA RESULT:      -5.6      2.763      4.349
REMARK  5 active torsions:
REMARK  status: ('A' for Active; 'I' for Inactive)
REMARK    1  A    between atoms: C_2  and  O_3 
REMARK    2  A    between atoms: O_3  and  C_4 
REMARK    3  A    between atoms: C_4  and  C_5 
REMARK    4  A    between atoms: C_5  and  N_6 
REMARK    5  A    between atoms: C_7  and  N_19 
ROOT
HETATM    1  N   UNL     1     -42.141 -51.877  13.427  1.00  0.00    -0.172 N 
HETATM    2  C   UNL     1     -43.516 -51.648  13.302  1.00  0.00     0.685 C 
HETATM    3  N   UNL     1     -43.720 -50.451  12.770  1.00  0.00    -0.174 N 
ATOM      4  HN  UNL     1     -44.615 -49.977  12.655  1.00  0.00     0.186 HD
HETATM    5  C   UNL     1     -42.499 -49.983  12.409  1.00  0.00     0.160 C 
HETATM    6  N   UNL     1     -42.226 -48.805  11.740  1.00  0.00    -0.287 N 
HETATM    7  C   UNL     1     -43.262 -47.902  11.291  1.00  0.00     0.163 C 
HETATM    8  C   UNL     1     -40.904 -48.488  11.452  1.00  0.00     0.330 C 
HETATM    9  O   UNL     1     -40.559 -47.472  10.847  1.00  0.00    -0.246 OA
HETATM   10  N   UNL     1     -39.939 -49.384  11.858  1.00  0.00    -0.273 N 
HETATM   11  C   UNL     1     -40.151 -50.629  12.393  1.00  0.00     0.280 C 
HETATM   12  O   UNL     1     -39.239 -51.444  12.503  1.00  0.00    -0.265 OA
HETATM   13  C   UNL     1     -41.511 -50.860  12.746  1.00  0.00     0.164 C 
HETATM   14  H   UNL     1     -38.994 -49.163  11.584  1.00  0.00     0.173 HD
ENDROOT
BRANCH   2  15
HETATM   15  N   UNL     1     -44.521 -52.505  13.648  1.00  0.00    -0.214 N 
HETATM   16  C   UNL     1     -45.566 -52.236  14.635  1.00  0.00     0.171 C 
HETATM   17  C   UNL     1     -46.030 -53.516  15.367  1.00  0.00     0.290 C 
HETATM   18  N   UNL     1     -46.423 -54.603  14.453  1.00  0.00     0.086 N 
HETATM   19  C   UNL     1     -45.258 -54.906  13.596  1.00  0.00     0.290 C 
HETATM   20  H   UNL     1     -47.175 -54.262  13.853  1.00  0.00     0.316 HD
HETATM   21  C   UNL     1     -44.725 -53.695  12.798  1.00  0.00     0.171 C 
ENDBRANCH   2  15
BRANCH   1  22
HETATM   22  C   UNL     1     -41.460 -52.961  14.107  1.00  0.00     0.174 C 
BRANCH  22  23
HETATM   23  C   UNL     1     -41.065 -54.185  13.276  1.00  0.00     0.188 C 
BRANCH  23  24
HETATM   24  O   UNL     1     -39.729 -54.626  13.539  1.00  0.00    -0.390 OA
BRANCH  24  25
HETATM   25  C   UNL     1     -39.319 -54.164  14.833  1.00  0.00     0.163 C 
HETATM   26  C   UNL     1     -38.637 -55.275  15.603  1.00  0.00     0.033 C 
ENDBRANCH  24  25
ENDBRANCH  23  24
ENDBRANCH  22  23
ENDBRANCH   1  22
TORSDOF 5
ENDMDL
MODEL 4
REMARK VINA RESULT:      -5.5      3.001      5.754
REMARK  5 active torsions:
REMARK  status: ('A' for Active; 'I' for Inactive)
REMARK    1  A    between atoms: C_2  and  O_3 
REMARK    2  A    between atoms: O_3  and  C_4 
REMARK    3  A    between atoms: C_4  and  C_5 
REMARK    4  A    between atoms: C_5  and  N_6 
REMARK    5  A    between atoms: C_7  and  N_19 
ROOT
HETATM    1  N   UNL     1     -41.875 -51.686  12.745  1.00  0.00    -0.172 N 
HETATM    2  C   UNL     1     -42.438 -50.407  12.663  1.00  0.00     0.685 C 
HETATM    3  N   UNL     1     -43.746 -50.485  12.863  1.00  0.00    -0.174 N 
ATOM      4  HN  UNL     1     -44.426 -49.731  12.764  1.00  0.00     0.186 HD
HETATM    5  C   UNL     1     -43.999 -51.766  13.227  1.00  0.00     0.160 C 
HETATM    6  N   UNL     1     -45.216 -52.294  13.615  1.00  0.00    -0.287 N 
HETATM    7  C   UNL     1     -46.418 -51.497  13.718  1.00  0.00     0.163 C 
HETATM    8  C   UNL     1     -45.286 -53.640  13.955  1.00  0.00     0.330 C 
HETATM    9  O   UNL     1     -46.318 -54.200  14.327  1.00  0.00    -0.246 OA
HETATM   10  N   UNL     1     -44.118 -54.369  13.884  1.00  0.00    -0.273 N 
HETATM   11  C   UNL     1     -42.860 -53.877  13.649  1.00  0.00     0.280 C 
HETATM   12  O   UNL     1     -41.857 -54.562  13.838  1.00  0.00    -0.265 OA
HETATM   13  C   UNL     1     -42.862 -52.519  13.220  1.00  0.00     0.164 C 
HETATM   14  H   UNL     1     -44.180 -55.326  14.194  1.00  0.00     0.173 HD
ENDROOT
BRANCH   2  15
HETATM   15  N   UNL     1     -41.774 -49.236  12.432  1.00  0.00    -0.214 N 
HETATM   16  C   UNL     1     -41.151 -48.396  13.455  1.00  0.00     0.171 C 
HETATM   17  C   UNL     1     -41.189 -46.895  13.088  1.00  0.00     0.290 C 
HETATM   18  N   UNL     1     -40.643 -46.606  11.750  1.00  0.00     0.086 N 
HETATM   19  C   UNL     1     -41.428 -47.384  10.770  1.00  0.00     0.290 C 
HETATM   20  H   UNL     1     -39.679 -46.941  11.718  1.00  0.00     0.316 HD
HETATM   21  C   UNL     1     -41.438 -48.908  11.033  1.00  0.00     0.171 C 
ENDBRANCH   2  15
BRANCH   1  22
HETATM   22  C   UNL     1     -40.525 -52.105  12.425  1.00  0.00     0.174 C 
BRANCH  22  23
HETATM   23  C   UNL     1     -39.444 -51.894  13.489  1.00  0.00     0.188 C 
BRANCH  23  24
HETATM   24  O   UNL     1     -38.155 -51.627  12.925  1.00  0.00    -0.390 OA
BRANCH  24  25
HETATM   25  C   UNL     1     -38.056 -50.233  12.601  1.00  0.00     0.163 C 
HETATM   26  C   UNL     1     -37.442 -50.048  11.230  1.00  0.00     0.033 C 
ENDBRANCH  24  25
ENDBRANCH  23  24
ENDBRANCH  22  23
ENDBRANCH   1  22
TORSDOF 5
ENDMDL
MODEL 5
REMARK VINA RESULT:      -5.5      2.390      5.702
REMARK  5 active torsions:
REMARK  status: ('A' for Active; 'I' for Inactive)
REMARK    1  A    between atoms: C_2  and  O_3 
REMARK    2  A    between atoms: O_3  and  C_4 
REMARK    3  A    between atoms: C_4  and  C_5 
REMARK    4  A    between atoms: C_5  and  N_6 
REMARK    5  A    between atoms: C_7  and  N_19 
ROOT
HETATM    1  N   UNL     1     -41.208 -50.052  11.957  1.00  0.00    -0.172 N 
HETATM    2  C   UNL     1     -42.448 -49.416  12.071  1.00  0.00     0.685 C 
HETATM    3  N   UNL     1     -43.348 -50.276  12.527  1.00  0.00    -0.174 N 
ATOM      4  HN  UNL     1     -44.352 -50.122  12.615  1.00  0.00     0.186 HD
HETATM    5  C   UNL     1     -42.666 -51.401  12.854  1.00  0.00     0.160 C 
HETATM    6  N   UNL     1     -43.178 -52.540  13.447  1.00  0.00    -0.287 N 
HETATM    7  C   UNL     1     -44.563 -52.662  13.841  1.00  0.00     0.163 C 
HETATM    8  C   UNL     1     -42.321 -53.603  13.709  1.00  0.00     0.330 C 
HETATM    9  O   UNL     1     -42.676 -54.653  14.247  1.00  0.00    -0.246 OA
HETATM   10  N   UNL     1     -40.997 -53.447  13.358  1.00  0.00    -0.273 N 
HETATM   11  C   UNL     1     -40.402 -52.298  12.904  1.00  0.00     0.280 C 
HETATM   12  O   UNL     1     -39.179 -52.190  12.842  1.00  0.00    -0.265 OA
HETATM   13  C   UNL     1     -41.338 -51.278  12.570  1.00  0.00     0.164 C 
HETATM   14  H   UNL     1     -40.384 -54.205  13.613  1.00  0.00     0.173 HD
ENDROOT
BRANCH   2  15
HETATM   15  N   UNL     1     -42.725 -48.110  11.784  1.00  0.00    -0.214 N 
HETATM   16  C   UNL     1     -43.224 -47.608  10.504  1.00  0.00     0.171 C 
HETATM   17  C   UNL     1     -42.723 -46.180  10.194  1.00  0.00     0.290 C 
HETATM   18  N   UNL     1     -42.981 -45.220  11.283  1.00  0.00     0.086 N 
HETATM   19  C   UNL     1     -42.316 -45.736  12.497  1.00  0.00     0.290 C 
HETATM   20  H   UNL     1     -43.986 -45.199  11.460  1.00  0.00     0.316 HD
HETATM   21  C   UNL     1     -42.763 -47.156  12.911  1.00  0.00     0.171 C 
ENDBRANCH   2  15
BRANCH   1  22
HETATM   22  C   UNL     1     -39.988 -49.561  11.345  1.00  0.00     0.174 C 
BRANCH  22  23
HETATM   23  C   UNL     1     -39.172 -48.523  12.119  1.00  0.00     0.188 C 
BRANCH  23  24
HETATM   24  O   UNL     1     -37.969 -49.066  12.674  1.00  0.00    -0.390 OA
BRANCH  24  25
HETATM   25  C   UNL     1     -37.996 -48.927  14.101  1.00  0.00     0.163 C 
HETATM   26  C   UNL     1     -37.177 -47.731  14.537  1.00  0.00     0.033 C 
ENDBRANCH  24  25
ENDBRANCH  23  24
ENDBRANCH  22  23
ENDBRANCH   1  22
TORSDOF 5
ENDMDL
MODEL 6
REMARK VINA RESULT:      -5.3      2.022      2.767
REMARK  5 active torsions:
REMARK  status: ('A' for Active; 'I' for Inactive)
REMARK    1  A    between atoms: C_2  and  O_3 
REMARK    2  A    between atoms: O_3  and  C_4 
REMARK    3  A    between atoms: C_4  and  C_5 
REMARK    4  A    between atoms: C_5  and  N_6 
REMARK    5  A    between atoms: C_7  and  N_19 
ROOT
HETATM    1  N   UNL     1     -40.809 -47.365  12.253  1.00  0.00    -0.172 N 
HETATM    2  C   UNL     1     -40.650 -48.571  11.562  1.00  0.00     0.685 C 
HETATM    3  N   UNL     1     -41.467 -48.595  10.518  1.00  0.00    -0.174 N 
ATOM      4  HN  UNL     1     -41.641 -49.383   9.895  1.00  0.00     0.186 HD
HETATM    5  C   UNL     1     -42.025 -47.362  10.445  1.00  0.00     0.160 C 
HETATM    6  N   UNL     1     -42.882 -46.895   9.466  1.00  0.00    -0.287 N 
HETATM    7  C   UNL     1     -43.278 -47.693   8.327  1.00  0.00     0.163 C 
HETATM    8  C   UNL     1     -43.358 -45.592   9.555  1.00  0.00     0.330 C 
HETATM    9  O   UNL     1     -44.112 -45.079   8.727  1.00  0.00    -0.246 OA
HETATM   10  N   UNL     1     -42.935 -44.840  10.631  1.00  0.00    -0.273 N 
HETATM   11  C   UNL     1     -41.981 -45.192  11.551  1.00  0.00     0.280 C 
HETATM   12  O   UNL     1     -41.505 -44.369  12.328  1.00  0.00    -0.265 OA
HETATM   13  C   UNL     1     -41.599 -46.561  11.463  1.00  0.00     0.164 C 
HETATM   14  H   UNL     1     -43.244 -43.880  10.642  1.00  0.00     0.173 HD
ENDROOT
BRANCH   2  15
HETATM   15  N   UNL     1     -39.787 -49.582  11.873  1.00  0.00    -0.214 N 
HETATM   16  C   UNL     1     -40.170 -50.904  12.368  1.00  0.00     0.171 C 
HETATM   17  C   UNL     1     -39.113 -51.505  13.323  1.00  0.00     0.290 C 
HETATM   18  N   UNL     1     -37.753 -51.517  12.757  1.00  0.00     0.086 N 
HETATM   19  C   UNL     1     -37.396 -50.123  12.424  1.00  0.00     0.290 C 
HETATM   20  H   UNL     1     -37.772 -52.053  11.888  1.00  0.00     0.316 HD
HETATM   21  C   UNL     1     -38.380 -49.432  11.452  1.00  0.00     0.171 C 
ENDBRANCH   2  15
BRANCH   1  22
HETATM   22  C   UNL     1     -40.260 -46.975  13.537  1.00  0.00     0.174 C 
BRANCH  22  23
HETATM   23  C   UNL     1     -40.443 -47.941  14.711  1.00  0.00     0.188 C 
BRANCH  23  24
HETATM   24  O   UNL     1     -39.201 -48.449  15.210  1.00  0.00    -0.390 OA
BRANCH  24  25
HETATM   25  C   UNL     1     -38.295 -47.360  15.435  1.00  0.00     0.163 C 
HETATM   26  C   UNL     1     -36.871 -47.782  15.141  1.00  0.00     0.033 C 
ENDBRANCH  24  25
ENDBRANCH  23  24
ENDBRANCH  22  23
ENDBRANCH   1  22
TORSDOF 5
ENDMDL
MODEL 7
REMARK VINA RESULT:      -5.3      4.337      6.032
REMARK  5 active torsions:
REMARK  status: ('A' for Active; 'I' for Inactive)
REMARK    1  A    between atoms: C_2  and  O_3 
REMARK    2  A    between atoms: O_3  and  C_4 
REMARK    3  A    between atoms: C_4  and  C_5 
REMARK    4  A    between atoms: C_5  and  N_6 
REMARK    5  A    between atoms: C_7  and  N_19 
ROOT
HETATM    1  N   UNL     1     -40.404 -53.120  14.292  1.00  0.00    -0.172 N 
HETATM    2  C   UNL     1     -40.629 -53.872  15.450  1.00  0.00     0.685 C 
HETATM    3  N   UNL     1     -41.919 -54.162  15.546  1.00  0.00    -0.174 N 
ATOM      4  HN  UNL     1     -42.389 -54.610  16.332  1.00  0.00     0.186 HD
HETATM    5  C   UNL     1     -42.490 -53.743  14.389  1.00  0.00     0.160 C 
HETATM    6  N   UNL     1     -43.807 -53.910  14.005  1.00  0.00    -0.287 N 
HETATM    7  C   UNL     1     -44.775 -54.616  14.814  1.00  0.00     0.163 C 
HETATM    8  C   UNL     1     -44.216 -53.411  12.773  1.00  0.00     0.330 C 
HETATM    9  O   UNL     1     -45.361 -53.521  12.335  1.00  0.00    -0.246 OA
HETATM   10  N   UNL     1     -43.264 -52.775  12.005  1.00  0.00    -0.273 N 
HETATM   11  C   UNL     1     -41.918 -52.705  12.261  1.00  0.00     0.280 C 
HETATM   12  O   UNL     1     -41.121 -52.325  11.407  1.00  0.00    -0.265 OA
HETATM   13  C   UNL     1     -41.576 -53.149  13.570  1.00  0.00     0.164 C 
HETATM   14  H   UNL     1     -43.567 -52.476  11.091  1.00  0.00     0.173 HD
ENDROOT
BRANCH   2  15
HETATM   15  N   UNL     1     -39.691 -54.278  16.355  1.00  0.00    -0.214 N 
HETATM   16  C   UNL     1     -39.314 -53.556  17.570  1.00  0.00     0.171 C 
HETATM   17  C   UNL     1     -37.829 -53.765  17.943  1.00  0.00     0.290 C 
HETATM   18  N   UNL     1     -37.440 -55.185  18.021  1.00  0.00     0.086 N 
HETATM   19  C   UNL     1     -37.720 -55.795  16.705  1.00  0.00     0.290 C 
HETATM   20  H   UNL     1     -38.034 -55.643  18.713  1.00  0.00     0.316 HD
HETATM   21  C   UNL     1     -39.189 -55.661  16.243  1.00  0.00     0.171 C 
ENDBRANCH   2  15
BRANCH   1  22
HETATM   22  C   UNL     1     -39.194 -52.440  13.872  1.00  0.00     0.174 C 
BRANCH  22  23
HETATM   23  C   UNL     1     -38.908 -51.061  14.473  1.00  0.00     0.188 C 
BRANCH  23  24
HETATM   24  O   UNL     1     -38.109 -50.238  13.617  1.00  0.00    -0.390 OA
BRANCH  24  25
HETATM   25  C   UNL     1     -38.360 -50.587  12.249  1.00  0.00     0.163 C 
HETATM   26  C   UNL     1     -37.390 -49.873  11.331  1.00  0.00     0.033 C 
ENDBRANCH  24  25
ENDBRANCH  23  24
ENDBRANCH  22  23
ENDBRANCH   1  22
TORSDOF 5
ENDMDL
MODEL 8
REMARK VINA RESULT:      -5.3      1.540      2.269
REMARK  5 active torsions:
REMARK  status: ('A' for Active; 'I' for Inactive)
REMARK    1  A    between atoms: C_2  and  O_3 
REMARK    2  A    between atoms: O_3  and  C_4 
REMARK    3  A    between atoms: C_4  and  C_5 
REMARK    4  A    between atoms: C_5  and  N_6 
REMARK    5  A    between atoms: C_7  and  N_19 
ROOT
HETATM    1  N   UNL     1     -41.350 -48.609  12.333  1.00  0.00    -0.172 N 
HETATM    2  C   UNL     1     -42.421 -49.506  12.399  1.00  0.00     0.685 C 
HETATM    3  N   UNL     1     -43.436 -49.039  11.685  1.00  0.00    -0.174 N 
ATOM      4  HN  UNL     1     -44.377 -49.429  11.631  1.00  0.00     0.186 HD
HETATM    5  C   UNL     1     -42.972 -47.941  11.039  1.00  0.00     0.160 C 
HETATM    6  N   UNL     1     -43.653 -47.171  10.116  1.00  0.00    -0.287 N 
HETATM    7  C   UNL     1     -44.997 -47.478   9.679  1.00  0.00     0.163 C 
HETATM    8  C   UNL     1     -43.012 -46.072   9.554  1.00  0.00     0.330 C 
HETATM    9  O   UNL     1     -43.527 -45.335   8.713  1.00  0.00    -0.246 OA
HETATM   10  N   UNL     1     -41.718 -45.824   9.960  1.00  0.00    -0.273 N 
HETATM   11  C   UNL     1     -40.941 -46.626  10.756  1.00  0.00     0.280 C 
HETATM   12  O   UNL     1     -39.732 -46.440  10.869  1.00  0.00    -0.265 OA
HETATM   13  C   UNL     1     -41.675 -47.680  11.371  1.00  0.00     0.164 C 
HETATM   14  H   UNL     1     -41.253 -45.060   9.494  1.00  0.00     0.173 HD
ENDROOT
BRANCH   2  15
HETATM   15  N   UNL     1     -42.450 -50.696  13.070  1.00  0.00    -0.214 N 
HETATM   16  C   UNL     1     -41.785 -51.927  12.645  1.00  0.00     0.171 C 
HETATM   17  C   UNL     1     -42.559 -53.194  13.075  1.00  0.00     0.290 C 
HETATM   18  N   UNL     1     -42.878 -53.225  14.514  1.00  0.00     0.086 N 
HETATM   19  C   UNL     1     -43.674 -52.019  14.819  1.00  0.00     0.290 C 
HETATM   20  H   UNL     1     -42.003 -53.165  15.037  1.00  0.00     0.316 HD
HETATM   21  C   UNL     1     -42.980 -50.689  14.448  1.00  0.00     0.171 C 
ENDBRANCH   2  15
BRANCH   1  22
HETATM   22  C   UNL     1     -40.112 -48.616  13.088  1.00  0.00     0.174 C 
BRANCH  22  23
HETATM   23  C   UNL     1     -40.193 -48.316  14.588  1.00  0.00     0.188 C 
BRANCH  23  24
HETATM   24  O   UNL     1     -39.094 -47.525  15.054  1.00  0.00    -0.390 OA
BRANCH  24  25
HETATM   25  C   UNL     1     -38.667 -46.639  14.011  1.00  0.00     0.163 C 
HETATM   26  C   UNL     1     -39.153 -45.230  14.275  1.00  0.00     0.033 C 
ENDBRANCH  24  25
ENDBRANCH  23  24
ENDBRANCH  22  23
ENDBRANCH   1  22
TORSDOF 5
ENDMDL
MODEL 9
REMARK VINA RESULT:      -5.2      3.258      5.997
REMARK  5 active torsions:
REMARK  status: ('A' for Active; 'I' for Inactive)
REMARK    1  A    between atoms: C_2  and  O_3 
REMARK    2  A    between atoms: O_3  and  C_4 
REMARK    3  A    between atoms: C_4  and  C_5 
REMARK    4  A    between atoms: C_5  and  N_6 
REMARK    5  A    between atoms: C_7  and  N_19 
ROOT
HETATM    1  N   UNL     1     -42.271 -51.531  12.548  1.00  0.00    -0.172 N 
HETATM    2  C   UNL     1     -42.850 -50.261  12.657  1.00  0.00     0.685 C 
HETATM    3  N   UNL     1     -44.119 -50.383  13.017  1.00  0.00    -0.174 N 
ATOM      4  HN  UNL     1     -44.813 -49.638  13.076  1.00  0.00     0.186 HD
HETATM    5  C   UNL     1     -44.312 -51.697  13.293  1.00  0.00     0.160 C 
HETATM    6  N   UNL     1     -45.463 -52.282  13.786  1.00  0.00    -0.287 N 
HETATM    7  C   UNL     1     -46.648 -51.522  14.116  1.00  0.00     0.163 C 
HETATM    8  C   UNL     1     -45.476 -53.655  14.008  1.00  0.00     0.330 C 
HETATM    9  O   UNL     1     -46.446 -54.266  14.459  1.00  0.00    -0.246 OA
HETATM   10  N   UNL     1     -44.321 -54.350  13.720  1.00  0.00    -0.273 N 
HETATM   11  C   UNL     1     -43.109 -53.813  13.370  1.00  0.00     0.280 C 
HETATM   12  O   UNL     1     -42.085 -54.492  13.364  1.00  0.00    -0.265 OA
HETATM   13  C   UNL     1     -43.180 -52.423  13.070  1.00  0.00     0.164 C 
HETATM   14  H   UNL     1     -44.334 -55.332  13.947  1.00  0.00     0.173 HD
ENDROOT
BRANCH   2  15
HETATM   15  N   UNL     1     -42.232 -49.062  12.449  1.00  0.00    -0.214 N 
HETATM   16  C   UNL     1     -42.107 -48.382  11.160  1.00  0.00     0.171 C 
HETATM   17  C   UNL     1     -40.803 -47.558  11.052  1.00  0.00     0.290 C 
HETATM   18  N   UNL     1     -40.609 -46.621  12.173  1.00  0.00     0.086 N 
HETATM   19  C   UNL     1     -40.602 -47.414  13.419  1.00  0.00     0.290 C 
HETATM   20  H   UNL     1     -41.410 -45.990  12.206  1.00  0.00     0.316 HD
HETATM   21  C   UNL     1     -41.875 -48.263  13.638  1.00  0.00     0.171 C 
ENDBRANCH   2  15
BRANCH   1  22
HETATM   22  C   UNL     1     -40.970 -51.892  12.019  1.00  0.00     0.174 C 
BRANCH  22  23
HETATM   23  C   UNL     1     -39.734 -51.442  12.803  1.00  0.00     0.188 C 
BRANCH  23  24
HETATM   24  O   UNL     1     -38.906 -52.538  13.209  1.00  0.00    -0.390 OA
BRANCH  24  25
HETATM   25  C   UNL     1     -39.247 -52.923  14.548  1.00  0.00     0.163 C 
HETATM   26  C   UNL     1     -38.966 -54.394  14.767  1.00  0.00     0.033 C 
ENDBRANCH  24  25
ENDBRANCH  23  24
ENDBRANCH  22  23
ENDBRANCH   1  22
TORSDOF 5
ENDMDL
