MODEL 1
REMARK VINA RESULT:      -6.3      0.000      0.000
REMARK  5 active torsions:
REMARK  status: ('A' for Active; 'I' for Inactive)
REMARK    1  A    between atoms: O_2  and  C_3 
REMARK    2  A    between atoms: C_9  and  N_10 
REMARK       I    between atoms: N_10  and  C_11 
REMARK       I    between atoms: C_11  and  N_13 
REMARK    3  A    between atoms: N_13  and  C_14 
REMARK    4  A    between atoms: N_17  and  C_18 
REMARK    5  A    between atoms: C_18  and  C_19 
REMARK       I    between atoms: C_19  and  N_21 
ROOT
HETATM    1  N   UNL     1     -43.045 -52.172  12.282  1.00  0.00    -0.305 N 
HETATM    2  C   UNL     1     -42.827 -50.908  12.786  1.00  0.00     0.321 C 
HETATM    3  O   UNL     1     -43.034 -50.570  13.947  1.00  0.00    -0.247 OA
HETATM    4  N   UNL     1     -42.352 -50.006  11.849  1.00  0.00    -0.338 N 
HETATM    5  H   UNL     1     -42.466 -52.478  11.510  1.00  0.00     0.171 HD
HETATM    6  H   UNL     1     -42.605 -50.216  10.895  1.00  0.00     0.164 HD
ENDROOT
BRANCH   4   7
HETATM    7  C   UNL     1     -42.315 -48.588  12.249  1.00  0.00     0.089 C 
HETATM    8  C   UNL     1     -43.000 -47.655  11.245  1.00  0.00     0.055 C 
HETATM    9  C   UNL     1     -42.074 -47.182  10.130  1.00  0.00     0.275 C 
HETATM   10  N   UNL     1     -40.814 -46.588  10.603  1.00  0.00     0.097 N 
HETATM   11  C   UNL     1     -40.097 -47.583  11.417  1.00  0.00     0.275 C 
HETATM   12  C   UNL     1     -40.893 -48.120  12.609  1.00  0.00     0.055 C 
BRANCH  10  13
HETATM   13  C   UNL     1     -41.003 -45.321  11.356  1.00  0.00     0.374 C 
BRANCH  13  14
HETATM   14  C   UNL     1     -40.309 -44.147  10.662  1.00  0.00     0.243 C 
HETATM   15  O   UNL     1     -39.634 -44.263   9.645  1.00  0.00    -0.272 OA
HETATM   16  N   UNL     1     -40.510 -42.930  11.249  1.00  0.00    -0.369 N 
HETATM   17  H   UNL     1     -40.786 -42.912  12.223  1.00  0.00     0.159 HD
HETATM   18  H   UNL     1     -39.971 -42.156  10.886  1.00  0.00     0.159 HD
ENDBRANCH  13  14
ENDBRANCH  10  13
ENDBRANCH   4   7
BRANCH   1  19
HETATM   19  C   UNL     1     -43.727 -53.201  12.996  1.00  0.00     0.087 A 
HETATM   20  C   UNL     1     -45.101 -53.410  12.846  1.00  0.00     0.169 A 
HETATM   21  N   UNL     1     -45.809 -54.351  13.523  1.00  0.00    -0.345 N 
HETATM   22  C   UNL     1     -45.119 -55.147  14.370  1.00  0.00     0.090 A 
ATOM     23  HN  UNL     1     -46.816 -54.454  13.397  1.00  0.00     0.167 HD
HETATM   24  C   UNL     1     -43.761 -55.038  14.578  1.00  0.00     0.019 A 
HETATM   25  C   UNL     1     -43.065 -54.040  13.898  1.00  0.00     0.035 A 
BRANCH  20  26
HETATM   26  O   UNL     1     -45.775 -52.634  11.918  1.00  0.00    -0.339 OA
HETATM   27  C   UNL     1     -46.565 -51.627  12.556  1.00  0.00     0.211 C 
ENDBRANCH  20  26
ENDBRANCH   1  19
TORSDOF 5
ENDMDL
MODEL 2
REMARK VINA RESULT:      -5.9      1.673      2.271
REMARK  5 active torsions:
REMARK  status: ('A' for Active; 'I' for Inactive)
REMARK    1  A    between atoms: O_2  and  C_3 
REMARK    2  A    between atoms: C_9  and  N_10 
REMARK       I    between atoms: N_10  and  C_11 
REMARK       I    between atoms: C_11  and  N_13 
REMARK    3  A    between atoms: N_13  and  C_14 
REMARK    4  A    between atoms: N_17  and  C_18 
REMARK    5  A    between atoms: C_18  and  C_19 
REMARK       I    between atoms: C_19  and  N_21 
ROOT
HETATM    1  N   UNL     1     -44.799 -50.712  12.643  1.00  0.00    -0.305 N 
HETATM    2  C   UNL     1     -43.578 -50.196  13.017  1.00  0.00     0.321 C 
HETATM    3  O   UNL     1     -42.904 -50.600  13.960  1.00  0.00    -0.247 OA
HETATM    4  N   UNL     1     -43.153 -49.137  12.233  1.00  0.00    -0.338 N 
HETATM    5  H   UNL     1     -45.058 -50.651  11.666  1.00  0.00     0.171 HD
HETATM    6  H   UNL     1     -43.896 -48.614  11.793  1.00  0.00     0.164 HD
ENDROOT
BRANCH   4   7
HETATM    7  C   UNL     1     -41.978 -48.386  12.709  1.00  0.00     0.089 C 
HETATM    8  C   UNL     1     -42.338 -47.068  13.404  1.00  0.00     0.055 C 
HETATM    9  C   UNL     1     -42.480 -45.895  12.441  1.00  0.00     0.275 C 
HETATM   10  N   UNL     1     -41.325 -45.704  11.549  1.00  0.00     0.097 N 
HETATM   11  C   UNL     1     -41.123 -46.933  10.765  1.00  0.00     0.275 C 
HETATM   12  C   UNL     1     -40.922 -48.195  11.605  1.00  0.00     0.055 C 
BRANCH  10  13
HETATM   13  C   UNL     1     -40.081 -45.319  12.266  1.00  0.00     0.374 C 
BRANCH  13  14
HETATM   14  C   UNL     1     -39.869 -43.804  12.249  1.00  0.00     0.243 C 
HETATM   15  O   UNL     1     -39.371 -43.178  13.178  1.00  0.00    -0.272 OA
HETATM   16  N   UNL     1     -40.260 -43.181  11.098  1.00  0.00    -0.369 N 
HETATM   17  H   UNL     1     -40.935 -43.652  10.507  1.00  0.00     0.159 HD
HETATM   18  H   UNL     1     -40.243 -42.171  11.101  1.00  0.00     0.159 HD
ENDBRANCH  13  14
ENDBRANCH  10  13
ENDBRANCH   4   7
BRANCH   1  19
HETATM   19  C   UNL     1     -45.531 -51.655  13.423  1.00  0.00     0.087 A 
HETATM   20  C   UNL     1     -45.455 -53.029  13.176  1.00  0.00     0.169 A 
HETATM   21  N   UNL     1     -46.153 -53.969  13.863  1.00  0.00    -0.345 N 
HETATM   22  C   UNL     1     -46.947 -53.534  14.867  1.00  0.00     0.090 A 
ATOM     23  HN  UNL     1     -46.081 -54.961  13.633  1.00  0.00     0.167 HD
HETATM   24  C   UNL     1     -47.081 -52.204  15.206  1.00  0.00     0.019 A 
HETATM   25  C   UNL     1     -46.381 -51.257  14.461  1.00  0.00     0.035 A 
BRANCH  20  26
HETATM   26  O   UNL     1     -44.578 -53.461  12.194  1.00  0.00    -0.339 OA
HETATM   27  C   UNL     1     -43.370 -53.972  12.762  1.00  0.00     0.211 C 
ENDBRANCH  20  26
ENDBRANCH   1  19
TORSDOF 5
ENDMDL
MODEL 3
REMARK VINA RESULT:      -5.8      1.877      8.325
REMARK  5 active torsions:
REMARK  status: ('A' for Active; 'I' for Inactive)
REMARK    1  A    between atoms: O_2  and  C_3 
REMARK    2  A    between atoms: C_9  and  N_10 
REMARK       I    between atoms: N_10  and  C_11 
REMARK       I    between atoms: C_11  and  N_13 
REMARK    3  A    between atoms: N_13  and  C_14 
REMARK    4  A    between atoms: N_17  and  C_18 
REMARK    5  A    between atoms: C_18  and  C_19 
REMARK       I    between atoms: C_19  and  N_21 
ROOT
HETATM    1  N   UNL     1     -41.667 -49.209  11.005  1.00  0.00    -0.305 N 
HETATM    2  C   UNL     1     -42.410 -49.658  12.075  1.00  0.00     0.321 C 
HETATM    3  O   UNL     1     -42.964 -48.936  12.898  1.00  0.00    -0.247 OA
HETATM    4  N   UNL     1     -42.480 -51.038  12.169  1.00  0.00    -0.338 N 
HETATM    5  H   UNL     1     -41.634 -49.791  10.177  1.00  0.00     0.171 HD
HETATM    6  H   UNL     1     -41.701 -51.528  11.754  1.00  0.00     0.164 HD
ENDROOT
BRANCH   4   7
HETATM    7  C   UNL     1     -43.055 -51.593  13.407  1.00  0.00     0.089 C 
HETATM    8  C   UNL     1     -42.390 -52.899  13.855  1.00  0.00     0.055 C 
HETATM    9  C   UNL     1     -43.007 -54.141  13.220  1.00  0.00     0.275 C 
HETATM   10  N   UNL     1     -44.467 -54.233  13.370  1.00  0.00     0.097 N 
HETATM   11  C   UNL     1     -45.082 -53.041  12.763  1.00  0.00     0.275 C 
HETATM   12  C   UNL     1     -44.589 -51.711  13.336  1.00  0.00     0.055 C 
BRANCH  10  13
HETATM   13  C   UNL     1     -44.908 -54.400  14.779  1.00  0.00     0.374 C 
BRANCH  13  14
HETATM   14  C   UNL     1     -46.427 -54.274  14.911  1.00  0.00     0.243 C 
HETATM   15  O   UNL     1     -46.988 -53.297  15.395  1.00  0.00    -0.272 OA
HETATM   16  N   UNL     1     -47.137 -55.336  14.425  1.00  0.00    -0.369 N 
HETATM   17  H   UNL     1     -46.661 -56.225  14.335  1.00  0.00     0.159 HD
HETATM   18  H   UNL     1     -48.132 -55.337  14.604  1.00  0.00     0.159 HD
ENDBRANCH  13  14
ENDBRANCH  10  13
ENDBRANCH   4   7
BRANCH   1  19
HETATM   19  C   UNL     1     -41.280 -47.849  10.827  1.00  0.00     0.087 A 
HETATM   20  C   UNL     1     -41.995 -46.986   9.991  1.00  0.00     0.169 A 
HETATM   21  N   UNL     1     -41.655 -45.692   9.758  1.00  0.00    -0.345 N 
HETATM   22  C   UNL     1     -40.569 -45.215  10.407  1.00  0.00     0.090 A 
ATOM     23  HN  UNL     1     -42.196 -45.105   9.122  1.00  0.00     0.167 HD
HETATM   24  C   UNL     1     -39.805 -45.974  11.267  1.00  0.00     0.019 A 
HETATM   25  C   UNL     1     -40.155 -47.310  11.460  1.00  0.00     0.035 A 
BRANCH  20  26
HETATM   26  O   UNL     1     -43.147 -47.471   9.395  1.00  0.00    -0.339 OA
HETATM   27  C   UNL     1     -44.068 -46.416   9.104  1.00  0.00     0.211 C 
ENDBRANCH  20  26
ENDBRANCH   1  19
TORSDOF 5
ENDMDL
MODEL 4
REMARK VINA RESULT:      -5.7      1.427      2.238
REMARK  5 active torsions:
REMARK  status: ('A' for Active; 'I' for Inactive)
REMARK    1  A    between atoms: O_2  and  C_3 
REMARK    2  A    between atoms: C_9  and  N_10 
REMARK       I    between atoms: N_10  and  C_11 
REMARK       I    between atoms: C_11  and  N_13 
REMARK    3  A    between atoms: N_13  and  C_14 
REMARK    4  A    between atoms: N_17  and  C_18 
REMARK    5  A    between atoms: C_18  and  C_19 
REMARK       I    between atoms: C_19  and  N_21 
ROOT
HETATM    1  N   UNL     1     -42.685 -51.985  12.252  1.00  0.00    -0.305 N 
HETATM    2  C   UNL     1     -42.731 -50.682  12.694  1.00  0.00     0.321 C 
HETATM    3  O   UNL     1     -43.052 -50.335  13.826  1.00  0.00    -0.247 OA
HETATM    4  N   UNL     1     -42.388 -49.750  11.728  1.00  0.00    -0.338 N 
HETATM    5  H   UNL     1     -42.023 -52.213  11.520  1.00  0.00     0.171 HD
HETATM    6  H   UNL     1     -42.553 -50.049  10.778  1.00  0.00     0.164 HD
ENDROOT
BRANCH   4   7
HETATM    7  C   UNL     1     -42.636 -48.334  12.051  1.00  0.00     0.089 C 
HETATM    8  C   UNL     1     -43.511 -47.618  11.017  1.00  0.00     0.055 C 
HETATM    9  C   UNL     1     -42.717 -47.032   9.854  1.00  0.00     0.275 C 
HETATM   10  N   UNL     1     -41.597 -46.169  10.263  1.00  0.00     0.097 N 
HETATM   11  C   UNL     1     -40.682 -46.950  11.110  1.00  0.00     0.275 C 
HETATM   12  C   UNL     1     -41.334 -47.567  12.349  1.00  0.00     0.055 C 
BRANCH  10  13
HETATM   13  C   UNL     1     -42.030 -44.925  10.952  1.00  0.00     0.374 C 
BRANCH  13  14
HETATM   14  C   UNL     1     -40.878 -43.927  11.085  1.00  0.00     0.243 C 
HETATM   15  O   UNL     1     -40.065 -43.707  10.193  1.00  0.00    -0.272 OA
HETATM   16  N   UNL     1     -40.821 -43.268  12.279  1.00  0.00    -0.369 N 
HETATM   17  H   UNL     1     -41.284 -43.687  13.077  1.00  0.00     0.159 HD
HETATM   18  H   UNL     1     -40.006 -42.692  12.442  1.00  0.00     0.159 HD
ENDBRANCH  13  14
ENDBRANCH  10  13
ENDBRANCH   4   7
BRANCH   1  19
HETATM   19  C   UNL     1     -43.196 -53.090  12.995  1.00  0.00     0.087 A 
HETATM   20  C   UNL     1     -42.410 -53.772  13.930  1.00  0.00     0.169 A 
HETATM   21  N   UNL     1     -42.832 -54.848  14.642  1.00  0.00    -0.345 N 
HETATM   22  C   UNL     1     -44.105 -55.258  14.442  1.00  0.00     0.090 A 
ATOM     23  HN  UNL     1     -42.215 -55.328  15.299  1.00  0.00     0.167 HD
HETATM   24  C   UNL     1     -44.969 -54.647  13.558  1.00  0.00     0.019 A 
HETATM   25  C   UNL     1     -44.499 -53.565  12.814  1.00  0.00     0.035 A 
BRANCH  20  26
HETATM   26  O   UNL     1     -41.135 -53.290  14.175  1.00  0.00    -0.339 OA
HETATM   27  C   UNL     1     -40.136 -54.181  13.670  1.00  0.00     0.211 C 
ENDBRANCH  20  26
ENDBRANCH   1  19
TORSDOF 5
ENDMDL
MODEL 5
REMARK VINA RESULT:      -5.7      4.206      7.051
REMARK  5 active torsions:
REMARK  status: ('A' for Active; 'I' for Inactive)
REMARK    1  A    between atoms: O_2  and  C_3 
REMARK    2  A    between atoms: C_9  and  N_10 
REMARK       I    between atoms: N_10  and  C_11 
REMARK       I    between atoms: C_11  and  N_13 
REMARK    3  A    between atoms: N_13  and  C_14 
REMARK    4  A    between atoms: N_17  and  C_18 
REMARK    5  A    between atoms: C_18  and  C_19 
REMARK       I    between atoms: C_19  and  N_21 
ROOT
HETATM    1  N   UNL     1     -41.865 -48.034   9.811  1.00  0.00    -0.305 N 
HETATM    2  C   UNL     1     -41.708 -48.723  10.992  1.00  0.00     0.321 C 
HETATM    3  O   UNL     1     -42.589 -48.887  11.832  1.00  0.00    -0.247 OA
HETATM    4  N   UNL     1     -40.433 -49.227  11.183  1.00  0.00    -0.338 N 
HETATM    5  H   UNL     1     -41.291 -48.310   9.024  1.00  0.00     0.171 HD
HETATM    6  H   UNL     1     -39.704 -48.719  10.704  1.00  0.00     0.164 HD
ENDROOT
BRANCH   4   7
HETATM    7  C   UNL     1     -40.123 -49.772  12.516  1.00  0.00     0.089 C 
HETATM    8  C   UNL     1     -39.641 -48.710  13.510  1.00  0.00     0.055 C 
HETATM    9  C   UNL     1     -38.137 -48.467  13.454  1.00  0.00     0.275 C 
HETATM   10  N   UNL     1     -37.324 -49.687  13.575  1.00  0.00     0.097 N 
HETATM   11  C   UNL     1     -37.691 -50.610  12.489  1.00  0.00     0.275 C 
HETATM   12  C   UNL     1     -39.174 -50.982  12.446  1.00  0.00     0.055 C 
BRANCH  10  13
HETATM   13  C   UNL     1     -37.444 -50.349  14.900  1.00  0.00     0.374 C 
BRANCH  13  14
HETATM   14  C   UNL     1     -36.724 -49.555  15.991  1.00  0.00     0.243 C 
HETATM   15  O   UNL     1     -35.524 -49.303  15.968  1.00  0.00    -0.272 OA
HETATM   16  N   UNL     1     -37.525 -49.116  17.008  1.00  0.00    -0.369 N 
HETATM   17  H   UNL     1     -38.405 -49.594  17.160  1.00  0.00     0.159 HD
HETATM   18  H   UNL     1     -37.062 -48.693  17.800  1.00  0.00     0.159 HD
ENDBRANCH  13  14
ENDBRANCH  10  13
ENDBRANCH   4   7
BRANCH   1  19
HETATM   19  C   UNL     1     -43.015 -47.251   9.499  1.00  0.00     0.087 A 
HETATM   20  C   UNL     1     -43.010 -45.857   9.621  1.00  0.00     0.169 A 
HETATM   21  N   UNL     1     -44.083 -45.064   9.370  1.00  0.00    -0.345 N 
HETATM   22  C   UNL     1     -45.213 -45.674   8.948  1.00  0.00     0.090 A 
ATOM     23  HN  UNL     1     -44.038 -44.052   9.494  1.00  0.00     0.167 HD
HETATM   24  C   UNL     1     -45.321 -47.038   8.776  1.00  0.00     0.019 A 
HETATM   25  C   UNL     1     -44.215 -47.832   9.075  1.00  0.00     0.035 A 
BRANCH  20  26
HETATM   26  O   UNL     1     -41.821 -45.246   9.982  1.00  0.00    -0.339 OA
HETATM   27  C   UNL     1     -41.893 -44.706  11.304  1.00  0.00     0.211 C 
ENDBRANCH  20  26
ENDBRANCH   1  19
TORSDOF 5
ENDMDL
MODEL 6
REMARK VINA RESULT:      -5.7      3.209      7.918
REMARK  5 active torsions:
REMARK  status: ('A' for Active; 'I' for Inactive)
REMARK    1  A    between atoms: O_2  and  C_3 
REMARK    2  A    between atoms: C_9  and  N_10 
REMARK       I    between atoms: N_10  and  C_11 
REMARK       I    between atoms: C_11  and  N_13 
REMARK    3  A    between atoms: N_13  and  C_14 
REMARK    4  A    between atoms: N_17  and  C_18 
REMARK    5  A    between atoms: C_18  and  C_19 
REMARK       I    between atoms: C_19  and  N_21 
ROOT
HETATM    1  N   UNL     1     -42.064 -49.084  10.961  1.00  0.00    -0.305 N 
HETATM    2  C   UNL     1     -42.264 -49.768  12.140  1.00  0.00     0.321 C 
HETATM    3  O   UNL     1     -42.636 -49.259  13.193  1.00  0.00    -0.247 OA
HETATM    4  N   UNL     1     -41.993 -51.123  12.055  1.00  0.00    -0.338 N 
HETATM    5  H   UNL     1     -42.199 -49.589  10.094  1.00  0.00     0.171 HD
HETATM    6  H   UNL     1     -41.323 -51.375  11.342  1.00  0.00     0.164 HD
ENDROOT
BRANCH   4   7
HETATM    7  C   UNL     1     -41.959 -51.877  13.321  1.00  0.00     0.089 C 
HETATM    8  C   UNL     1     -40.670 -51.663  14.121  1.00  0.00     0.055 C 
HETATM    9  C   UNL     1     -39.547 -52.617  13.727  1.00  0.00     0.275 C 
HETATM   10  N   UNL     1     -39.930 -54.038  13.743  1.00  0.00     0.097 N 
HETATM   11  C   UNL     1     -41.059 -54.235  12.819  1.00  0.00     0.275 C 
HETATM   12  C   UNL     1     -42.284 -53.368  13.121  1.00  0.00     0.055 C 
BRANCH  10  13
HETATM   13  C   UNL     1     -40.257 -54.548  15.100  1.00  0.00     0.374 C 
BRANCH  13  14
HETATM   14  C   UNL     1     -38.999 -54.991  15.850  1.00  0.00     0.243 C 
HETATM   15  O   UNL     1     -38.322 -55.960  15.526  1.00  0.00    -0.272 OA
HETATM   16  N   UNL     1     -38.661 -54.209  16.918  1.00  0.00    -0.369 N 
HETATM   17  H   UNL     1     -39.384 -53.639  17.339  1.00  0.00     0.159 HD
HETATM   18  H   UNL     1     -37.907 -54.542  17.504  1.00  0.00     0.159 HD
ENDBRANCH  13  14
ENDBRANCH  10  13
ENDBRANCH   4   7
BRANCH   1  19
HETATM   19  C   UNL     1     -42.072 -47.662  10.862  1.00  0.00     0.087 A 
HETATM   20  C   UNL     1     -43.231 -46.957  10.521  1.00  0.00     0.169 A 
HETATM   21  N   UNL     1     -43.290 -45.607  10.379  1.00  0.00    -0.345 N 
HETATM   22  C   UNL     1     -42.153 -44.914  10.615  1.00  0.00     0.090 A 
ATOM     23  HN  UNL     1     -44.154 -45.137  10.108  1.00  0.00     0.167 HD
HETATM   24  C   UNL     1     -40.963 -45.508  10.974  1.00  0.00     0.019 A 
HETATM   25  C   UNL     1     -40.920 -46.897  11.077  1.00  0.00     0.035 A 
BRANCH  20  26
HETATM   26  O   UNL     1     -44.401 -47.678  10.357  1.00  0.00    -0.339 OA
HETATM   27  C   UNL     1     -45.160 -47.196   9.245  1.00  0.00     0.211 C 
ENDBRANCH  20  26
ENDBRANCH   1  19
TORSDOF 5
ENDMDL
MODEL 7
REMARK VINA RESULT:      -5.6      2.606      8.369
REMARK  5 active torsions:
REMARK  status: ('A' for Active; 'I' for Inactive)
REMARK    1  A    between atoms: O_2  and  C_3 
REMARK    2  A    between atoms: C_9  and  N_10 
REMARK       I    between atoms: N_10  and  C_11 
REMARK       I    between atoms: C_11  and  N_13 
REMARK    3  A    between atoms: N_13  and  C_14 
REMARK    4  A    between atoms: N_17  and  C_18 
REMARK    5  A    between atoms: C_18  and  C_19 
REMARK       I    between atoms: C_19  and  N_21 
ROOT
HETATM    1  N   UNL     1     -41.868 -49.376  11.131  1.00  0.00    -0.305 N 
HETATM    2  C   UNL     1     -42.495 -49.780  12.289  1.00  0.00     0.321 C 
HETATM    3  O   UNL     1     -42.948 -49.024  13.143  1.00  0.00    -0.247 OA
HETATM    4  N   UNL     1     -42.569 -51.155  12.435  1.00  0.00    -0.338 N 
HETATM    5  H   UNL     1     -41.932 -49.983  10.323  1.00  0.00     0.171 HD
HETATM    6  H   UNL     1     -41.845 -51.669  11.954  1.00  0.00     0.164 HD
ENDROOT
BRANCH   4   7
HETATM    7  C   UNL     1     -43.011 -51.662  13.746  1.00  0.00     0.089 C 
HETATM    8  C   UNL     1     -41.889 -52.323  14.554  1.00  0.00     0.055 C 
HETATM    9  C   UNL     1     -41.707 -53.804  14.239  1.00  0.00     0.275 C 
HETATM   10  N   UNL     1     -42.942 -54.597  14.336  1.00  0.00     0.097 N 
HETATM   11  C   UNL     1     -43.938 -54.039  13.407  1.00  0.00     0.275 C 
HETATM   12  C   UNL     1     -44.258 -52.560  13.633  1.00  0.00     0.055 C 
BRANCH  10  13
HETATM   13  C   UNL     1     -43.487 -54.677  15.716  1.00  0.00     0.374 C 
BRANCH  13  14
HETATM   14  C   UNL     1     -42.604 -55.540  16.619  1.00  0.00     0.243 C 
HETATM   15  O   UNL     1     -42.379 -56.728  16.413  1.00  0.00    -0.272 OA
HETATM   16  N   UNL     1     -42.052 -54.884  17.682  1.00  0.00    -0.369 N 
HETATM   17  H   UNL     1     -42.496 -54.029  17.996  1.00  0.00     0.159 HD
HETATM   18  H   UNL     1     -41.563 -55.450  18.361  1.00  0.00     0.159 HD
ENDBRANCH  13  14
ENDBRANCH  10  13
ENDBRANCH   4   7
BRANCH   1  19
HETATM   19  C   UNL     1     -41.488 -48.027  10.867  1.00  0.00     0.087 A 
HETATM   20  C   UNL     1     -42.277 -47.183  10.078  1.00  0.00     0.169 A 
HETATM   21  N   UNL     1     -41.950 -45.902   9.767  1.00  0.00    -0.345 N 
HETATM   22  C   UNL     1     -40.799 -45.418  10.285  1.00  0.00     0.090 A 
ATOM     23  HN  UNL     1     -42.547 -45.330   9.169  1.00  0.00     0.167 HD
HETATM   24  C   UNL     1     -39.958 -46.158  11.089  1.00  0.00     0.019 A 
HETATM   25  C   UNL     1     -40.299 -47.481  11.364  1.00  0.00     0.035 A 
BRANCH  20  26
HETATM   26  O   UNL     1     -43.488 -47.673   9.619  1.00  0.00    -0.339 OA
HETATM   27  C   UNL     1     -43.594 -47.554   8.198  1.00  0.00     0.211 C 
ENDBRANCH  20  26
ENDBRANCH   1  19
TORSDOF 5
ENDMDL
MODEL 8
REMARK VINA RESULT:      -5.4      3.169      8.084
REMARK  5 active torsions:
REMARK  status: ('A' for Active; 'I' for Inactive)
REMARK    1  A    between atoms: O_2  and  C_3 
REMARK    2  A    between atoms: C_9  and  N_10 
REMARK       I    between atoms: N_10  and  C_11 
REMARK       I    between atoms: C_11  and  N_13 
REMARK    3  A    between atoms: N_13  and  C_14 
REMARK    4  A    between atoms: N_17  and  C_18 
REMARK    5  A    between atoms: C_18  and  C_19 
REMARK       I    between atoms: C_19  and  N_21 
ROOT
HETATM    1  N   UNL     1     -41.821 -48.567  10.404  1.00  0.00    -0.305 N 
HETATM    2  C   UNL     1     -41.998 -49.227  11.599  1.00  0.00     0.321 C 
HETATM    3  O   UNL     1     -42.953 -49.070  12.354  1.00  0.00    -0.247 OA
HETATM    4  N   UNL     1     -40.975 -50.108  11.910  1.00  0.00    -0.338 N 
HETATM    5  H   UNL     1     -41.302 -49.040   9.675  1.00  0.00     0.171 HD
HETATM    6  H   UNL     1     -40.083 -49.878  11.498  1.00  0.00     0.164 HD
ENDROOT
BRANCH   4   7
HETATM    7  C   UNL     1     -40.975 -50.675  13.270  1.00  0.00     0.089 C 
HETATM    8  C   UNL     1     -39.634 -50.516  13.995  1.00  0.00     0.055 C 
HETATM    9  C   UNL     1     -38.654 -51.649  13.712  1.00  0.00     0.275 C 
HETATM   10  N   UNL     1     -39.205 -52.994  13.944  1.00  0.00     0.097 N 
HETATM   11  C   UNL     1     -40.390 -53.174  13.090  1.00  0.00     0.275 C 
HETATM   12  C   UNL     1     -41.486 -52.127  13.297  1.00  0.00     0.055 C 
BRANCH  10  13
HETATM   13  C   UNL     1     -39.529 -53.263  15.369  1.00  0.00     0.374 C 
BRANCH  13  14
HETATM   14  C   UNL     1     -39.525 -54.763  15.671  1.00  0.00     0.243 C 
HETATM   15  O   UNL     1     -40.482 -55.361  16.150  1.00  0.00    -0.272 OA
HETATM   16  N   UNL     1     -38.368 -55.413  15.347  1.00  0.00    -0.369 N 
HETATM   17  H   UNL     1     -37.521 -54.863  15.263  1.00  0.00     0.159 HD
HETATM   18  H   UNL     1     -38.290 -56.376  15.643  1.00  0.00     0.159 HD
ENDBRANCH  13  14
ENDBRANCH  10  13
ENDBRANCH   4   7
BRANCH   1  19
HETATM   19  C   UNL     1     -42.625 -47.467   9.982  1.00  0.00     0.087 A 
HETATM   20  C   UNL     1     -42.366 -46.161  10.411  1.00  0.00     0.169 A 
HETATM   21  N   UNL     1     -43.115 -45.082  10.068  1.00  0.00    -0.345 N 
HETATM   22  C   UNL     1     -44.158 -45.297   9.235  1.00  0.00     0.090 A 
ATOM     23  HN  UNL     1     -42.900 -44.150  10.423  1.00  0.00     0.167 HD
HETATM   24  C   UNL     1     -44.490 -46.540   8.740  1.00  0.00     0.019 A 
HETATM   25  C   UNL     1     -43.726 -47.636   9.136  1.00  0.00     0.035 A 
BRANCH  20  26
HETATM   26  O   UNL     1     -41.249 -45.951  11.202  1.00  0.00    -0.339 OA
HETATM   27  C   UNL     1     -40.244 -45.215  10.499  1.00  0.00     0.211 C 
ENDBRANCH  20  26
ENDBRANCH   1  19
TORSDOF 5
ENDMDL
MODEL 9
REMARK VINA RESULT:      -5.3      2.136      8.364
REMARK  5 active torsions:
REMARK  status: ('A' for Active; 'I' for Inactive)
REMARK    1  A    between atoms: O_2  and  C_3 
REMARK    2  A    between atoms: C_9  and  N_10 
REMARK       I    between atoms: N_10  and  C_11 
REMARK       I    between atoms: C_11  and  N_13 
REMARK    3  A    between atoms: N_13  and  C_14 
REMARK    4  A    between atoms: N_17  and  C_18 
REMARK    5  A    between atoms: C_18  and  C_19 
REMARK       I    between atoms: C_19  and  N_21 
ROOT
HETATM    1  N   UNL     1     -42.226 -46.876  13.039  1.00  0.00    -0.305 N 
HETATM    2  C   UNL     1     -41.993 -48.168  13.455  1.00  0.00     0.321 C 
HETATM    3  O   UNL     1     -40.932 -48.770  13.316  1.00  0.00    -0.247 OA
HETATM    4  N   UNL     1     -43.087 -48.771  14.052  1.00  0.00    -0.338 N 
HETATM    5  H   UNL     1     -42.905 -46.330  13.554  1.00  0.00     0.171 HD
HETATM    6  H   UNL     1     -43.981 -48.407  13.757  1.00  0.00     0.164 HD
ENDROOT
BRANCH   4   7
HETATM    7  C   UNL     1     -42.991 -50.219  14.311  1.00  0.00     0.089 C 
HETATM    8  C   UNL     1     -43.544 -51.079  13.170  1.00  0.00     0.055 C 
HETATM    9  C   UNL     1     -45.043 -51.338  13.277  1.00  0.00     0.275 C 
HETATM   10  N   UNL     1     -45.470 -51.877  14.578  1.00  0.00     0.097 N 
HETATM   11  C   UNL     1     -45.080 -50.930  15.635  1.00  0.00     0.275 C 
HETATM   12  C   UNL     1     -43.585 -50.607  15.678  1.00  0.00     0.055 C 
BRANCH  10  13
HETATM   13  C   UNL     1     -44.938 -53.236  14.858  1.00  0.00     0.374 C 
BRANCH  13  14
HETATM   14  C   UNL     1     -45.625 -54.296  13.994  1.00  0.00     0.243 C 
HETATM   15  O   UNL     1     -45.150 -54.734  12.952  1.00  0.00    -0.272 OA
HETATM   16  N   UNL     1     -46.819 -54.749  14.478  1.00  0.00    -0.369 N 
HETATM   17  H   UNL     1     -47.319 -54.163  15.136  1.00  0.00     0.159 HD
HETATM   18  H   UNL     1     -47.352 -55.359  13.874  1.00  0.00     0.159 HD
ENDBRANCH  13  14
ENDBRANCH  10  13
ENDBRANCH   4   7
BRANCH   1  19
HETATM   19  C   UNL     1     -41.327 -46.137  12.216  1.00  0.00     0.087 A 
HETATM   20  C   UNL     1     -41.331 -46.268  10.823  1.00  0.00     0.169 A 
HETATM   21  N   UNL     1     -40.479 -45.614   9.992  1.00  0.00    -0.345 N 
HETATM   22  C   UNL     1     -39.594 -44.765  10.562  1.00  0.00     0.090 A 
ATOM     23  HN  UNL     1     -40.504 -45.758   8.982  1.00  0.00     0.167 HD
HETATM   24  C   UNL     1     -39.518 -44.548  11.921  1.00  0.00     0.019 A 
HETATM   25  C   UNL     1     -40.381 -45.258  12.754  1.00  0.00     0.035 A 
BRANCH  20  26
HETATM   26  O   UNL     1     -42.294 -47.084  10.254  1.00  0.00    -0.339 OA
HETATM   27  C   UNL     1     -43.190 -46.336   9.428  1.00  0.00     0.211 C 
ENDBRANCH  20  26
ENDBRANCH   1  19
TORSDOF 5
ENDMDL
