MODEL 1
REMARK VINA RESULT:      -6.5      0.000      0.000
REMARK  3 active torsions:
REMARK  status: ('A' for Active; 'I' for Inactive)
REMARK    1  A    between atoms: N_2  and  C_4 
REMARK    2  A    between atoms: C_7  and  N_8 
REMARK       I    between atoms: N_8  and  C_9 
REMARK       I    between atoms: C_9  and  N_11 
REMARK    3  A    between atoms: N_11  and  C_12 
ROOT
HETATM    1  N   UNL     1     -43.632 -48.638  11.789  1.00  0.00    -0.308 N 
HETATM    2  C   UNL     1     -43.412 -49.658  12.687  1.00  0.00     0.321 C 
HETATM    3  O   UNL     1     -42.491 -49.713  13.498  1.00  0.00    -0.247 OA
HETATM    4  N   UNL     1     -44.341 -50.668  12.622  1.00  0.00    -0.337 N 
HETATM    5  H   UNL     1     -44.548 -48.560  11.374  1.00  0.00     0.170 HD
HETATM    6  H   UNL     1     -45.218 -50.466  12.165  1.00  0.00     0.164 HD
ENDROOT
BRANCH   1   7
HETATM    7  C   UNL     1     -42.720 -47.580  11.567  1.00  0.00     0.051 A 
HETATM    8  C   UNL     1     -42.750 -46.401  12.296  1.00  0.00     0.035 A 
HETATM    9  C   UNL     1     -41.817 -45.397  12.052  1.00  0.00     0.050 A 
HETATM   10  C   UNL     1     -40.838 -45.564  11.077  1.00  0.00     0.102 A 
HETATM   11  N   UNL     1     -40.785 -46.716  10.367  1.00  0.00    -0.350 N 
HETATM   12  C   UNL     1     -41.710 -47.684  10.618  1.00  0.00     0.119 A 
ATOM     13  HN  UNL     1     -40.065 -46.857   9.658  1.00  0.00     0.166 HD
BRANCH  10  14
HETATM   14  N   UNL     1     -39.872 -44.568  10.874  1.00  0.00    -0.376 N 
HETATM   15  C   UNL     1     -39.139 -44.675   9.621  1.00  0.00     0.150 C 
HETATM   16  C   UNL     1     -40.198 -43.223  11.332  1.00  0.00     0.150 C 
ENDBRANCH  10  14
ENDBRANCH   1   7
BRANCH   4  17
HETATM   17  C   UNL     1     -44.285 -51.710  13.666  1.00  0.00     0.103 C 
HETATM   18  C   UNL     1     -44.860 -53.108  13.300  1.00  0.00     0.041 C 
HETATM   19  C   UNL     1     -44.447 -54.569  13.214  1.00  0.00     0.035 C 
HETATM   20  C   UNL     1     -45.116 -53.190  14.847  1.00  0.00     0.137 C 
HETATM   21  C   UNL     1     -45.558 -55.282  14.037  1.00  0.00     0.168 C 
HETATM   22  O   UNL     1     -46.003 -54.302  15.013  1.00  0.00    -0.385 OA
HETATM   23  C   UNL     1     -45.431 -51.674  14.779  1.00  0.00    -0.000 C 
HETATM   24  C   UNL     1     -44.938 -50.819  15.947  1.00  0.00     0.019 C 
HETATM   25  C   UNL     1     -46.885 -51.340  14.444  1.00  0.00     0.019 C 
ENDBRANCH   4  17
TORSDOF 3
ENDMDL
MODEL 2
REMARK VINA RESULT:      -6.4      0.970      1.018
REMARK  3 active torsions:
REMARK  status: ('A' for Active; 'I' for Inactive)
REMARK    1  A    between atoms: N_2  and  C_4 
REMARK    2  A    between atoms: C_7  and  N_8 
REMARK       I    between atoms: N_8  and  C_9 
REMARK       I    between atoms: C_9  and  N_11 
REMARK    3  A    between atoms: N_11  and  C_12 
ROOT
HETATM    1  N   UNL     1     -43.327 -48.909  11.783  1.00  0.00    -0.308 N 
HETATM    2  C   UNL     1     -43.192 -49.701  12.901  1.00  0.00     0.321 C 
HETATM    3  O   UNL     1     -42.467 -49.465  13.864  1.00  0.00    -0.247 OA
HETATM    4  N   UNL     1     -43.966 -50.837  12.877  1.00  0.00    -0.337 N 
HETATM    5  H   UNL     1     -44.135 -49.050  11.196  1.00  0.00     0.170 HD
HETATM    6  H   UNL     1     -44.742 -50.859  12.231  1.00  0.00     0.164 HD
ENDROOT
BRANCH   1   7
HETATM    7  C   UNL     1     -42.513 -47.783  11.518  1.00  0.00     0.051 A 
HETATM    8  C   UNL     1     -42.822 -46.513  11.980  1.00  0.00     0.035 A 
HETATM    9  C   UNL     1     -41.978 -45.439  11.708  1.00  0.00     0.050 A 
HETATM   10  C   UNL     1     -40.810 -45.627  10.976  1.00  0.00     0.102 A 
HETATM   11  N   UNL     1     -40.486 -46.865  10.531  1.00  0.00    -0.350 N 
HETATM   12  C   UNL     1     -41.328 -47.901  10.803  1.00  0.00     0.119 A 
ATOM     13  HN  UNL     1     -39.627 -47.019  10.003  1.00  0.00     0.166 HD
BRANCH  10  14
HETATM   14  N   UNL     1     -39.940 -44.550  10.752  1.00  0.00    -0.376 N 
HETATM   15  C   UNL     1     -39.161 -44.639   9.525  1.00  0.00     0.150 C 
HETATM   16  C   UNL     1     -40.412 -43.225  11.136  1.00  0.00     0.150 C 
ENDBRANCH  10  14
ENDBRANCH   1   7
BRANCH   4  17
HETATM   17  C   UNL     1     -44.019 -51.648  14.109  1.00  0.00     0.103 C 
HETATM   18  C   UNL     1     -43.569 -53.132  13.996  1.00  0.00     0.041 C 
HETATM   19  C   UNL     1     -42.558 -54.107  14.579  1.00  0.00     0.035 C 
HETATM   20  C   UNL     1     -44.561 -53.319  15.199  1.00  0.00     0.137 C 
HETATM   21  C   UNL     1     -43.452 -55.309  14.999  1.00  0.00     0.168 C 
HETATM   22  O   UNL     1     -44.753 -54.735  15.299  1.00  0.00    -0.385 OA
HETATM   23  C   UNL     1     -45.444 -52.246  14.514  1.00  0.00    -0.000 C 
HETATM   24  C   UNL     1     -46.141 -51.243  15.434  1.00  0.00     0.019 C 
HETATM   25  C   UNL     1     -46.424 -52.796  13.477  1.00  0.00     0.019 C 
ENDBRANCH   4  17
TORSDOF 3
ENDMDL
MODEL 3
REMARK VINA RESULT:      -6.2      4.075      8.266
REMARK  3 active torsions:
REMARK  status: ('A' for Active; 'I' for Inactive)
REMARK    1  A    between atoms: N_2  and  C_4 
REMARK    2  A    between atoms: C_7  and  N_8 
REMARK       I    between atoms: N_8  and  C_9 
REMARK       I    between atoms: C_9  and  N_11 
REMARK    3  A    between atoms: N_11  and  C_12 
ROOT
HETATM    1  N   UNL     1     -40.219 -51.172  12.048  1.00  0.00    -0.308 N 
HETATM    2  C   UNL     1     -41.264 -50.276  12.091  1.00  0.00     0.321 C 
HETATM    3  O   UNL     1     -42.114 -50.207  12.975  1.00  0.00    -0.247 OA
HETATM    4  N   UNL     1     -41.299 -49.409  11.026  1.00  0.00    -0.337 N 
HETATM    5  H   UNL     1     -39.441 -50.964  11.441  1.00  0.00     0.170 HD
HETATM    6  H   UNL     1     -40.453 -49.300  10.484  1.00  0.00     0.164 HD
ENDROOT
BRANCH   1   7
HETATM    7  C   UNL     1     -40.078 -52.254  12.948  1.00  0.00     0.051 A 
HETATM    8  C   UNL     1     -40.779 -53.442  12.804  1.00  0.00     0.035 A 
HETATM    9  C   UNL     1     -40.590 -54.485  13.707  1.00  0.00     0.050 A 
HETATM   10  C   UNL     1     -39.692 -54.353  14.761  1.00  0.00     0.102 A 
HETATM   11  N   UNL     1     -38.987 -53.205  14.906  1.00  0.00    -0.350 N 
HETATM   12  C   UNL     1     -39.191 -52.194  14.015  1.00  0.00     0.119 A 
ATOM     13  HN  UNL     1     -38.317 -53.099  15.667  1.00  0.00     0.166 HD
BRANCH  10  14
HETATM   14  N   UNL     1     -39.471 -55.427  15.635  1.00  0.00    -0.376 N 
HETATM   15  C   UNL     1     -38.110 -55.532  16.143  1.00  0.00     0.150 C 
HETATM   16  C   UNL     1     -40.546 -55.762  16.562  1.00  0.00     0.150 C 
ENDBRANCH  10  14
ENDBRANCH   1   7
BRANCH   4  17
HETATM   17  C   UNL     1     -42.276 -48.304  11.082  1.00  0.00     0.103 C 
HETATM   18  C   UNL     1     -42.716 -47.681   9.726  1.00  0.00     0.041 C 
HETATM   19  C   UNL     1     -43.963 -47.424   8.895  1.00  0.00     0.035 C 
HETATM   20  C   UNL     1     -42.948 -46.405  10.612  1.00  0.00     0.137 C 
HETATM   21  C   UNL     1     -43.843 -45.908   8.568  1.00  0.00     0.168 C 
HETATM   22  O   UNL     1     -43.100 -45.332   9.676  1.00  0.00    -0.385 OA
HETATM   23  C   UNL     1     -41.699 -46.851  11.413  1.00  0.00    -0.000 C 
HETATM   24  C   UNL     1     -41.748 -46.649  12.928  1.00  0.00     0.019 C 
HETATM   25  C   UNL     1     -40.369 -46.352  10.848  1.00  0.00     0.019 C 
ENDBRANCH   4  17
TORSDOF 3
ENDMDL
MODEL 4
REMARK VINA RESULT:      -6.1      1.358      2.090
REMARK  3 active torsions:
REMARK  status: ('A' for Active; 'I' for Inactive)
REMARK    1  A    between atoms: N_2  and  C_4 
REMARK    2  A    between atoms: C_7  and  N_8 
REMARK       I    between atoms: N_8  and  C_9 
REMARK       I    between atoms: C_9  and  N_11 
REMARK    3  A    between atoms: N_11  and  C_12 
ROOT
HETATM    1  N   UNL     1     -41.889 -49.832  11.612  1.00  0.00    -0.308 N 
HETATM    2  C   UNL     1     -42.767 -50.102  12.637  1.00  0.00     0.321 C 
HETATM    3  O   UNL     1     -43.263 -49.272  13.395  1.00  0.00    -0.247 OA
HETATM    4  N   UNL     1     -43.077 -51.435  12.769  1.00  0.00    -0.337 N 
HETATM    5  H   UNL     1     -41.766 -50.531  10.896  1.00  0.00     0.170 HD
HETATM    6  H   UNL     1     -42.890 -52.037  11.981  1.00  0.00     0.164 HD
ENDROOT
BRANCH   1   7
HETATM    7  C   UNL     1     -41.308 -48.561  11.393  1.00  0.00     0.051 A 
HETATM    8  C   UNL     1     -40.203 -48.112  12.101  1.00  0.00     0.035 A 
HETATM    9  C   UNL     1     -39.657 -46.860  11.835  1.00  0.00     0.050 A 
HETATM   10  C   UNL     1     -40.206 -46.044  10.851  1.00  0.00     0.102 A 
HETATM   11  N   UNL     1     -41.275 -46.474  10.139  1.00  0.00    -0.350 N 
HETATM   12  C   UNL     1     -41.798 -47.701  10.419  1.00  0.00     0.119 A 
ATOM     13  HN  UNL     1     -41.681 -45.892   9.406  1.00  0.00     0.166 HD
BRANCH  10  14
HETATM   14  N   UNL     1     -39.617 -44.806  10.555  1.00  0.00    -0.376 N 
HETATM   15  C   UNL     1     -38.950 -44.741   9.262  1.00  0.00     0.150 C 
HETATM   16  C   UNL     1     -40.332 -43.611  10.986  1.00  0.00     0.150 C 
ENDBRANCH  10  14
ENDBRANCH   1   7
BRANCH   4  17
HETATM   17  C   UNL     1     -44.145 -51.791  13.724  1.00  0.00     0.103 C 
HETATM   18  C   UNL     1     -43.743 -52.689  14.929  1.00  0.00     0.041 C 
HETATM   19  C   UNL     1     -43.744 -52.694  16.450  1.00  0.00     0.035 C 
HETATM   20  C   UNL     1     -45.247 -53.133  14.847  1.00  0.00     0.137 C 
HETATM   21  C   UNL     1     -44.438 -54.047  16.781  1.00  0.00     0.168 C 
HETATM   22  O   UNL     1     -45.326 -54.308  15.661  1.00  0.00    -0.385 OA
HETATM   23  C   UNL     1     -45.103 -53.001  13.310  1.00  0.00    -0.000 C 
HETATM   24  C   UNL     1     -46.303 -52.425  12.557  1.00  0.00     0.019 C 
HETATM   25  C   UNL     1     -44.580 -54.255  12.610  1.00  0.00     0.019 C 
ENDBRANCH   4  17
TORSDOF 3
ENDMDL
MODEL 5
REMARK VINA RESULT:      -5.8      3.586      4.433
REMARK  3 active torsions:
REMARK  status: ('A' for Active; 'I' for Inactive)
REMARK    1  A    between atoms: N_2  and  C_4 
REMARK    2  A    between atoms: C_7  and  N_8 
REMARK       I    between atoms: N_8  and  C_9 
REMARK       I    between atoms: C_9  and  N_11 
REMARK    3  A    between atoms: N_11  and  C_12 
ROOT
HETATM    1  N   UNL     1     -41.407 -50.040  13.250  1.00  0.00    -0.308 N 
HETATM    2  C   UNL     1     -41.662 -51.381  13.430  1.00  0.00     0.321 C 
HETATM    3  O   UNL     1     -42.198 -52.126  12.613  1.00  0.00    -0.247 OA
HETATM    4  N   UNL     1     -41.254 -51.868  14.649  1.00  0.00    -0.337 N 
HETATM    5  H   UNL     1     -40.731 -49.601  13.855  1.00  0.00     0.170 HD
HETATM    6  H   UNL     1     -40.580 -51.323  15.167  1.00  0.00     0.164 HD
ENDROOT
BRANCH   1   7
HETATM    7  C   UNL     1     -41.882 -49.294  12.146  1.00  0.00     0.051 A 
HETATM    8  C   UNL     1     -43.072 -48.583  12.180  1.00  0.00     0.035 A 
HETATM    9  C   UNL     1     -43.486 -47.849  11.072  1.00  0.00     0.050 A 
HETATM   10  C   UNL     1     -42.709 -47.812   9.919  1.00  0.00     0.102 A 
HETATM   11  N   UNL     1     -41.535 -48.488   9.875  1.00  0.00    -0.350 N 
HETATM   12  C   UNL     1     -41.151 -49.205  10.968  1.00  0.00     0.119 A 
ATOM     13  HN  UNL     1     -40.950 -48.460   9.040  1.00  0.00     0.166 HD
BRANCH  10  14
HETATM   14  N   UNL     1     -43.108 -47.028   8.827  1.00  0.00    -0.376 N 
HETATM   15  C   UNL     1     -43.487 -47.781   7.639  1.00  0.00     0.150 C 
HETATM   16  C   UNL     1     -43.885 -45.829   9.120  1.00  0.00     0.150 C 
ENDBRANCH  10  14
ENDBRANCH   1   7
BRANCH   4  17
HETATM   17  C   UNL     1     -41.325 -53.328  14.855  1.00  0.00     0.103 C 
HETATM   18  C   UNL     1     -41.879 -53.821  16.222  1.00  0.00     0.041 C 
HETATM   19  C   UNL     1     -42.989 -54.681  16.805  1.00  0.00     0.035 C 
HETATM   20  C   UNL     1     -40.967 -55.063  15.921  1.00  0.00     0.137 C 
HETATM   21  C   UNL     1     -42.210 -55.641  17.751  1.00  0.00     0.168 C 
HETATM   22  O   UNL     1     -40.887 -55.769  17.164  1.00  0.00    -0.385 OA
HETATM   23  C   UNL     1     -39.972 -54.059  15.287  1.00  0.00    -0.000 C 
HETATM   24  C   UNL     1     -39.249 -54.517  14.020  1.00  0.00     0.019 C 
HETATM   25  C   UNL     1     -38.984 -53.434  16.273  1.00  0.00     0.019 C 
ENDBRANCH   4  17
TORSDOF 3
ENDMDL
MODEL 6
REMARK VINA RESULT:      -5.3      5.265      6.820
REMARK  3 active torsions:
REMARK  status: ('A' for Active; 'I' for Inactive)
REMARK    1  A    between atoms: N_2  and  C_4 
REMARK    2  A    between atoms: C_7  and  N_8 
REMARK       I    between atoms: N_8  and  C_9 
REMARK       I    between atoms: C_9  and  N_11 
REMARK    3  A    between atoms: N_11  and  C_12 
ROOT
HETATM    1  N   UNL     1     -40.931 -49.267  13.301  1.00  0.00    -0.308 N 
HETATM    2  C   UNL     1     -39.808 -48.651  13.807  1.00  0.00     0.321 C 
HETATM    3  O   UNL     1     -39.378 -47.553  13.466  1.00  0.00    -0.247 OA
HETATM    4  N   UNL     1     -39.161 -49.380  14.776  1.00  0.00    -0.337 N 
HETATM    5  H   UNL     1     -41.340 -50.019  13.834  1.00  0.00     0.170 HD
HETATM    6  H   UNL     1     -39.679 -50.120  15.227  1.00  0.00     0.164 HD
ENDROOT
BRANCH   1   7
HETATM    7  C   UNL     1     -41.658 -48.780  12.190  1.00  0.00     0.051 A 
HETATM    8  C   UNL     1     -42.905 -48.187  12.314  1.00  0.00     0.035 A 
HETATM    9  C   UNL     1     -43.572 -47.706  11.191  1.00  0.00     0.050 A 
HETATM   10  C   UNL     1     -42.994 -47.807   9.929  1.00  0.00     0.102 A 
HETATM   11  N   UNL     1     -41.768 -48.368   9.793  1.00  0.00    -0.350 N 
HETATM   12  C   UNL     1     -41.136 -48.838  10.904  1.00  0.00     0.119 A 
ATOM     13  HN  UNL     1     -41.328 -48.438   8.876  1.00  0.00     0.166 HD
BRANCH  10  14
HETATM   14  N   UNL     1     -43.650 -47.273   8.811  1.00  0.00    -0.376 N 
HETATM   15  C   UNL     1     -43.746 -45.820   8.794  1.00  0.00     0.150 C 
HETATM   16  C   UNL     1     -43.420 -47.931   7.530  1.00  0.00     0.150 C 
ENDBRANCH  10  14
ENDBRANCH   1   7
BRANCH   4  17
HETATM   17  C   UNL     1     -38.055 -48.720  15.496  1.00  0.00     0.103 C 
HETATM   18  C   UNL     1     -37.075 -49.639  16.280  1.00  0.00     0.041 C 
HETATM   19  C   UNL     1     -35.599 -49.995  16.360  1.00  0.00     0.035 C 
HETATM   20  C   UNL     1     -36.895 -48.357  17.169  1.00  0.00     0.137 C 
HETATM   21  C   UNL     1     -35.294 -49.829  17.876  1.00  0.00     0.168 C 
HETATM   22  O   UNL     1     -36.228 -48.821  18.349  1.00  0.00    -0.385 OA
HETATM   23  C   UNL     1     -38.402 -48.092  16.924  1.00  0.00    -0.000 C 
HETATM   24  C   UNL     1     -38.816 -46.634  16.718  1.00  0.00     0.019 C 
HETATM   25  C   UNL     1     -39.340 -48.782  17.914  1.00  0.00     0.019 C 
ENDBRANCH   4  17
TORSDOF 3
ENDMDL
MODEL 7
REMARK VINA RESULT:      -5.3      3.780      5.576
REMARK  3 active torsions:
REMARK  status: ('A' for Active; 'I' for Inactive)
REMARK    1  A    between atoms: N_2  and  C_4 
REMARK    2  A    between atoms: C_7  and  N_8 
REMARK       I    between atoms: N_8  and  C_9 
REMARK       I    between atoms: C_9  and  N_11 
REMARK    3  A    between atoms: N_11  and  C_12 
ROOT
HETATM    1  N   UNL     1     -40.079 -45.439  12.553  1.00  0.00    -0.308 N 
HETATM    2  C   UNL     1     -40.323 -46.699  12.055  1.00  0.00     0.321 C 
HETATM    3  O   UNL     1     -41.116 -46.976  11.159  1.00  0.00    -0.247 OA
HETATM    4  N   UNL     1     -39.578 -47.688  12.652  1.00  0.00    -0.337 N 
HETATM    5  H   UNL     1     -39.230 -45.292  13.077  1.00  0.00     0.170 HD
HETATM    6  H   UNL     1     -38.755 -47.408  13.164  1.00  0.00     0.164 HD
ENDROOT
BRANCH   1   7
HETATM    7  C   UNL     1     -40.840 -44.298  12.204  1.00  0.00     0.051 A 
HETATM    8  C   UNL     1     -42.095 -44.046  12.736  1.00  0.00     0.035 A 
HETATM    9  C   UNL     1     -42.796 -42.899  12.374  1.00  0.00     0.050 A 
HETATM   10  C   UNL     1     -42.244 -41.986  11.480  1.00  0.00     0.102 A 
HETATM   11  N   UNL     1     -41.011 -42.210  10.965  1.00  0.00    -0.350 N 
HETATM   12  C   UNL     1     -40.345 -43.342  11.327  1.00  0.00     0.119 A 
ATOM     13  HN  UNL     1     -40.590 -41.544  10.318  1.00  0.00     0.166 HD
BRANCH  10  14
HETATM   14  N   UNL     1     -42.935 -40.808  11.162  1.00  0.00    -0.376 N 
HETATM   15  C   UNL     1     -44.299 -40.744  11.667  1.00  0.00     0.150 C 
HETATM   16  C   UNL     1     -42.170 -39.566  11.175  1.00  0.00     0.150 C 
ENDBRANCH  10  14
ENDBRANCH   1   7
BRANCH   4  17
HETATM   17  C   UNL     1     -39.645 -49.039  12.060  1.00  0.00     0.103 C 
HETATM   18  C   UNL     1     -40.513 -50.093  12.804  1.00  0.00     0.041 C 
HETATM   19  C   UNL     1     -41.702 -51.014  12.579  1.00  0.00     0.035 C 
HETATM   20  C   UNL     1     -39.507 -51.100  12.140  1.00  0.00     0.137 C 
HETATM   21  C   UNL     1     -41.158 -52.391  13.057  1.00  0.00     0.168 C 
HETATM   22  O   UNL     1     -39.724 -52.339  12.825  1.00  0.00    -0.385 OA
HETATM   23  C   UNL     1     -38.422 -50.019  12.369  1.00  0.00    -0.000 C 
HETATM   24  C   UNL     1     -37.380 -49.849  11.262  1.00  0.00     0.019 C 
HETATM   25  C   UNL     1     -37.746 -50.076  13.739  1.00  0.00     0.019 C 
ENDBRANCH   4  17
TORSDOF 3
ENDMDL
MODEL 8
REMARK VINA RESULT:      -5.3     14.947     15.609
REMARK  3 active torsions:
REMARK  status: ('A' for Active; 'I' for Inactive)
REMARK    1  A    between atoms: N_2  and  C_4 
REMARK    2  A    between atoms: C_7  and  N_8 
REMARK       I    between atoms: N_8  and  C_9 
REMARK       I    between atoms: C_9  and  N_11 
REMARK    3  A    between atoms: N_11  and  C_12 
ROOT
HETATM    1  N   UNL     1     -51.630 -49.251  -0.410  1.00  0.00    -0.308 N 
HETATM    2  C   UNL     1     -51.080 -50.509  -0.310  1.00  0.00     0.321 C 
HETATM    3  O   UNL     1     -50.330 -50.895   0.583  1.00  0.00    -0.247 OA
HETATM    4  N   UNL     1     -51.443 -51.360  -1.327  1.00  0.00    -0.337 N 
HETATM    5  H   UNL     1     -52.431 -49.131  -1.012  1.00  0.00     0.170 HD
HETATM    6  H   UNL     1     -52.259 -51.117  -1.869  1.00  0.00     0.164 HD
ENDROOT
BRANCH   1   7
HETATM    7  C   UNL     1     -51.272 -48.170   0.429  1.00  0.00     0.051 A 
HETATM    8  C   UNL     1     -50.070 -47.491   0.300  1.00  0.00     0.035 A 
HETATM    9  C   UNL     1     -49.773 -46.420   1.139  1.00  0.00     0.050 A 
HETATM   10  C   UNL     1     -50.678 -46.013   2.114  1.00  0.00     0.102 A 
HETATM   11  N   UNL     1     -51.864 -46.657   2.242  1.00  0.00    -0.350 N 
HETATM   12  C   UNL     1     -52.133 -47.706   1.414  1.00  0.00     0.119 A 
ATOM     13  HN  UNL     1     -52.542 -46.362   2.944  1.00  0.00     0.166 HD
BRANCH  10  14
HETATM   14  N   UNL     1     -50.392 -44.902   2.919  1.00  0.00    -0.376 N 
HETATM   15  C   UNL     1     -48.975 -44.598   3.060  1.00  0.00     0.150 C 
HETATM   16  C   UNL     1     -51.302 -43.766   2.832  1.00  0.00     0.150 C 
ENDBRANCH  10  14
ENDBRANCH   1   7
BRANCH   4  17
HETATM   17  C   UNL     1     -51.043 -52.775  -1.203  1.00  0.00     0.103 C 
HETATM   18  C   UNL     1     -50.086 -53.337  -2.292  1.00  0.00     0.041 C 
HETATM   19  C   UNL     1     -48.722 -53.993  -2.441  1.00  0.00     0.035 C 
HETATM   20  C   UNL     1     -50.788 -54.694  -1.930  1.00  0.00     0.137 C 
HETATM   21  C   UNL     1     -49.045 -55.247  -3.303  1.00  0.00     0.168 C 
HETATM   22  O   UNL     1     -50.422 -55.589  -2.987  1.00  0.00    -0.385 OA
HETATM   23  C   UNL     1     -52.082 -53.864  -1.740  1.00  0.00    -0.000 C 
HETATM   24  C   UNL     1     -52.992 -54.271  -0.580  1.00  0.00     0.019 C 
HETATM   25  C   UNL     1     -52.898 -53.655  -3.016  1.00  0.00     0.019 C 
ENDBRANCH   4  17
TORSDOF 3
ENDMDL
MODEL 9
REMARK VINA RESULT:      -5.2      4.920      6.518
REMARK  3 active torsions:
REMARK  status: ('A' for Active; 'I' for Inactive)
REMARK    1  A    between atoms: N_2  and  C_4 
REMARK    2  A    between atoms: C_7  and  N_8 
REMARK       I    between atoms: N_8  and  C_9 
REMARK       I    between atoms: C_9  and  N_11 
REMARK    3  A    between atoms: N_11  and  C_12 
ROOT
HETATM    1  N   UNL     1     -40.461 -45.619  11.004  1.00  0.00    -0.308 N 
HETATM    2  C   UNL     1     -40.233 -46.390  12.122  1.00  0.00     0.321 C 
HETATM    3  O   UNL     1     -40.675 -46.172  13.247  1.00  0.00    -0.247 OA
HETATM    4  N   UNL     1     -39.437 -47.487  11.890  1.00  0.00    -0.337 N 
HETATM    5  H   UNL     1     -40.287 -46.030  10.100  1.00  0.00     0.170 HD
HETATM    6  H   UNL     1     -39.331 -47.792  10.933  1.00  0.00     0.164 HD
ENDROOT
BRANCH   1   7
HETATM    7  C   UNL     1     -41.112 -44.363  11.039  1.00  0.00     0.051 A 
HETATM    8  C   UNL     1     -42.491 -44.235  10.972  1.00  0.00     0.035 A 
HETATM    9  C   UNL     1     -43.085 -42.977  11.029  1.00  0.00     0.050 A 
HETATM   10  C   UNL     1     -42.304 -41.832  11.162  1.00  0.00     0.102 A 
HETATM   11  N   UNL     1     -40.956 -41.943  11.245  1.00  0.00    -0.350 N 
HETATM   12  C   UNL     1     -40.395 -43.183  11.182  1.00  0.00     0.119 A 
ATOM     13  HN  UNL     1     -40.373 -41.113  11.354  1.00  0.00     0.166 HD
BRANCH  10  14
HETATM   14  N   UNL     1     -42.914 -40.575  11.270  1.00  0.00    -0.376 N 
HETATM   15  C   UNL     1     -44.326 -40.608  11.625  1.00  0.00     0.150 C 
HETATM   16  C   UNL     1     -42.117 -39.498  11.847  1.00  0.00     0.150 C 
ENDBRANCH  10  14
ENDBRANCH   1   7
BRANCH   4  17
HETATM   17  C   UNL     1     -39.289 -48.462  12.988  1.00  0.00     0.103 C 
HETATM   18  C   UNL     1     -38.035 -48.317  13.896  1.00  0.00     0.041 C 
HETATM   19  C   UNL     1     -37.650 -48.112  15.352  1.00  0.00     0.035 C 
HETATM   20  C   UNL     1     -38.237 -49.863  14.085  1.00  0.00     0.137 C 
HETATM   21  C   UNL     1     -36.630 -49.261  15.596  1.00  0.00     0.168 C 
HETATM   22  O   UNL     1     -37.018 -50.321  14.682  1.00  0.00    -0.385 OA
HETATM   23  C   UNL     1     -38.685 -49.890  12.603  1.00  0.00    -0.000 C 
HETATM   24  C   UNL     1     -39.845 -50.824  12.254  1.00  0.00     0.019 C 
HETATM   25  C   UNL     1     -37.545 -50.051  11.596  1.00  0.00     0.019 C 
ENDBRANCH   4  17
TORSDOF 3
ENDMDL
