MODEL 1
REMARK VINA RESULT:      -6.2      0.000      0.000
REMARK  3 active torsions:
REMARK  status: ('A' for Active; 'I' for Inactive)
REMARK    1  A    between atoms: C_2  and  C_3 
REMARK       I    between atoms: C_2  and  N_16 
REMARK    2  A    between atoms: C_3  and  C_4 
REMARK    3  A    between atoms: C_7  and  N_10 
ROOT
HETATM    1  C   UNL     1     -41.570 -51.080  12.158  1.00  0.00     0.026 A 
HETATM    2  C   UNL     1     -40.202 -51.246  12.295  1.00  0.00     0.078 A 
HETATM    3  S   UNL     1     -39.391 -49.823  11.819  1.00  0.00    -0.064 SA
HETATM    4  C   UNL     1     -40.891 -49.085  11.469  1.00  0.00     0.155 A 
HETATM    5  N   UNL     1     -41.949 -49.851  11.637  1.00  0.00    -0.339 N 
ATOM      6  HN  UNL     1     -42.907 -49.580  11.417  1.00  0.00     0.168 HD
ENDROOT
BRANCH   1   7
HETATM    7  C   UNL     1     -42.628 -52.009  12.641  1.00  0.00     0.160 C 
BRANCH   7   8
HETATM    8  C   UNL     1     -43.838 -51.337  13.268  1.00  0.00     0.225 C 
HETATM    9  O   UNL     1     -43.777 -50.221  13.787  1.00  0.00    -0.273 OA
HETATM   10  N   UNL     1     -45.032 -52.063  13.222  1.00  0.00    -0.352 N 
HETATM   11  C   UNL     1     -46.233 -51.514  13.851  1.00  0.00     0.125 C 
HETATM   12  C   UNL     1     -45.146 -53.466  12.818  1.00  0.00     0.125 C 
HETATM   13  C   UNL     1     -46.628 -52.350  15.070  1.00  0.00     0.020 C 
HETATM   14  C   UNL     1     -46.731 -53.838  14.719  1.00  0.00     0.003 C 
HETATM   15  C   UNL     1     -45.455 -54.328  14.036  1.00  0.00     0.020 C 
ENDBRANCH   7   8
ENDBRANCH   1   7
BRANCH   4  16
HETATM   16  N   UNL     1     -40.975 -47.780  11.039  1.00  0.00    -0.278 N 
HETATM   17  C   UNL     1     -40.007 -46.761  11.378  1.00  0.00     0.155 C 
HETATM   18  C   UNL     1     -40.323 -45.618  10.429  1.00  0.00     0.145 C 
HETATM   19  N   UNL     1     -41.613 -45.947   9.901  1.00  0.00    -0.341 N 
HETATM   20  C   UNL     1     -41.935 -47.278  10.159  1.00  0.00     0.324 C 
HETATM   21  H   UNL     1     -42.072 -45.487   9.124  1.00  0.00     0.164 HD
HETATM   22  O   UNL     1     -42.878 -47.821   9.612  1.00  0.00    -0.247 OA
ENDBRANCH   4  16
TORSDOF 3
ENDMDL
MODEL 2
REMARK VINA RESULT:      -6.1      2.850      3.453
REMARK  3 active torsions:
REMARK  status: ('A' for Active; 'I' for Inactive)
REMARK    1  A    between atoms: C_2  and  C_3 
REMARK       I    between atoms: C_2  and  N_16 
REMARK    2  A    between atoms: C_3  and  C_4 
REMARK    3  A    between atoms: C_7  and  N_10 
ROOT
HETATM    1  C   UNL     1     -41.342 -53.428  14.231  1.00  0.00     0.026 A 
HETATM    2  C   UNL     1     -40.695 -53.211  15.436  1.00  0.00     0.078 A 
HETATM    3  S   UNL     1     -39.425 -52.092  15.221  1.00  0.00    -0.064 SA
HETATM    4  C   UNL     1     -39.816 -51.966  13.563  1.00  0.00     0.155 A 
HETATM    5  N   UNL     1     -40.797 -52.744  13.155  1.00  0.00    -0.339 N 
ATOM      6  HN  UNL     1     -41.111 -52.830  12.188  1.00  0.00     0.168 HD
ENDROOT
BRANCH   1   7
HETATM    7  C   UNL     1     -42.610 -54.183  14.030  1.00  0.00     0.160 C 
BRANCH   7   8
HETATM    8  C   UNL     1     -43.636 -53.495  13.145  1.00  0.00     0.225 C 
HETATM    9  O   UNL     1     -43.347 -53.030  12.041  1.00  0.00    -0.273 OA
HETATM   10  N   UNL     1     -44.933 -53.420  13.660  1.00  0.00    -0.352 N 
HETATM   11  C   UNL     1     -45.971 -52.725  12.897  1.00  0.00     0.125 C 
HETATM   12  C   UNL     1     -45.312 -53.755  15.033  1.00  0.00     0.125 C 
HETATM   13  C   UNL     1     -46.398 -51.446  13.618  1.00  0.00     0.020 C 
HETATM   14  C   UNL     1     -46.776 -51.725  15.077  1.00  0.00     0.003 C 
HETATM   15  C   UNL     1     -45.660 -52.481  15.795  1.00  0.00     0.020 C 
ENDBRANCH   7   8
ENDBRANCH   1   7
BRANCH   4  16
HETATM   16  N   UNL     1     -39.142 -51.110  12.722  1.00  0.00    -0.278 N 
HETATM   17  C   UNL     1     -37.706 -50.946  12.730  1.00  0.00     0.155 C 
HETATM   18  C   UNL     1     -37.412 -50.187  11.446  1.00  0.00     0.145 C 
HETATM   19  N   UNL     1     -38.692 -49.704  11.024  1.00  0.00    -0.341 N 
HETATM   20  C   UNL     1     -39.721 -50.355  11.701  1.00  0.00     0.324 C 
HETATM   21  H   UNL     1     -38.902 -49.284  10.127  1.00  0.00     0.164 HD
HETATM   22  O   UNL     1     -40.881 -50.257  11.340  1.00  0.00    -0.247 OA
ENDBRANCH   4  16
TORSDOF 3
ENDMDL
MODEL 3
REMARK VINA RESULT:      -5.8      3.726      7.510
REMARK  3 active torsions:
REMARK  status: ('A' for Active; 'I' for Inactive)
REMARK    1  A    between atoms: C_2  and  C_3 
REMARK       I    between atoms: C_2  and  N_16 
REMARK    2  A    between atoms: C_3  and  C_4 
REMARK    3  A    between atoms: C_7  and  N_10 
ROOT
HETATM    1  C   UNL     1     -40.977 -54.043  14.885  1.00  0.00     0.026 A 
HETATM    2  C   UNL     1     -40.999 -54.978  15.905  1.00  0.00     0.078 A 
HETATM    3  S   UNL     1     -42.611 -55.397  16.276  1.00  0.00    -0.064 SA
HETATM    4  C   UNL     1     -43.168 -54.324  15.069  1.00  0.00     0.155 A 
HETATM    5  N   UNL     1     -42.230 -53.640  14.447  1.00  0.00    -0.339 N 
ATOM      6  HN  UNL     1     -42.400 -52.920  13.745  1.00  0.00     0.168 HD
ENDROOT
BRANCH   1   7
HETATM    7  C   UNL     1     -39.774 -53.565  14.148  1.00  0.00     0.160 C 
BRANCH   7   8
HETATM    8  C   UNL     1     -40.060 -52.621  12.991  1.00  0.00     0.225 C 
HETATM    9  O   UNL     1     -40.554 -53.009  11.931  1.00  0.00    -0.273 OA
HETATM   10  N   UNL     1     -39.728 -51.280  13.201  1.00  0.00    -0.352 N 
HETATM   11  C   UNL     1     -39.919 -50.313  12.120  1.00  0.00     0.125 C 
HETATM   12  C   UNL     1     -38.953 -50.775  14.337  1.00  0.00     0.125 C 
HETATM   13  C   UNL     1     -38.569 -49.806  11.612  1.00  0.00     0.020 C 
HETATM   14  C   UNL     1     -37.694 -49.294  12.760  1.00  0.00     0.003 C 
HETATM   15  C   UNL     1     -37.570 -50.343  13.864  1.00  0.00     0.020 C 
ENDBRANCH   7   8
ENDBRANCH   1   7
BRANCH   4  16
HETATM   16  N   UNL     1     -44.507 -54.190  14.779  1.00  0.00    -0.278 N 
HETATM   17  C   UNL     1     -45.522 -53.943  15.778  1.00  0.00     0.155 C 
HETATM   18  C   UNL     1     -46.746 -53.544  14.972  1.00  0.00     0.145 C 
HETATM   19  N   UNL     1     -46.423 -53.927  13.630  1.00  0.00    -0.341 N 
HETATM   20  C   UNL     1     -45.061 -54.185  13.497  1.00  0.00     0.324 C 
HETATM   21  H   UNL     1     -46.944 -53.676  12.799  1.00  0.00     0.164 HD
HETATM   22  O   UNL     1     -44.541 -54.309  12.402  1.00  0.00    -0.247 OA
ENDBRANCH   4  16
TORSDOF 3
ENDMDL
MODEL 4
REMARK VINA RESULT:      -5.6      2.070      2.888
REMARK  3 active torsions:
REMARK  status: ('A' for Active; 'I' for Inactive)
REMARK    1  A    between atoms: C_2  and  C_3 
REMARK       I    between atoms: C_2  and  N_16 
REMARK    2  A    between atoms: C_3  and  C_4 
REMARK    3  A    between atoms: C_7  and  N_10 
ROOT
HETATM    1  C   UNL     1     -40.781 -49.712  11.635  1.00  0.00     0.026 A 
HETATM    2  C   UNL     1     -39.792 -48.811  11.989  1.00  0.00     0.078 A 
HETATM    3  S   UNL     1     -40.174 -47.260  11.388  1.00  0.00    -0.064 SA
HETATM    4  C   UNL     1     -41.614 -47.879  10.708  1.00  0.00     0.155 A 
HETATM    5  N   UNL     1     -41.797 -49.174  10.858  1.00  0.00    -0.339 N 
ATOM      6  HN  UNL     1     -42.573 -49.704  10.462  1.00  0.00     0.168 HD
ENDROOT
BRANCH   1   7
HETATM    7  C   UNL     1     -40.918 -51.113  12.121  1.00  0.00     0.160 C 
BRANCH   7   8
HETATM    8  C   UNL     1     -42.298 -51.483  12.640  1.00  0.00     0.225 C 
HETATM    9  O   UNL     1     -43.179 -50.642  12.826  1.00  0.00    -0.273 OA
HETATM   10  N   UNL     1     -42.509 -52.840  12.898  1.00  0.00    -0.352 N 
HETATM   11  C   UNL     1     -43.791 -53.276  13.452  1.00  0.00     0.125 C 
HETATM   12  C   UNL     1     -41.465 -53.866  12.906  1.00  0.00     0.125 C 
HETATM   13  C   UNL     1     -43.610 -53.786  14.883  1.00  0.00     0.020 C 
HETATM   14  C   UNL     1     -42.502 -54.841  14.965  1.00  0.00     0.003 C 
HETATM   15  C   UNL     1     -41.208 -54.326  14.336  1.00  0.00     0.020 C 
ENDBRANCH   7   8
ENDBRANCH   1   7
BRANCH   4  16
HETATM   16  N   UNL     1     -42.510 -47.069  10.047  1.00  0.00    -0.278 N 
HETATM   17  C   UNL     1     -43.294 -47.503   8.913  1.00  0.00     0.155 C 
HETATM   18  C   UNL     1     -44.345 -46.417   8.751  1.00  0.00     0.145 C 
HETATM   19  N   UNL     1     -43.860 -45.337   9.558  1.00  0.00    -0.341 N 
HETATM   20  C   UNL     1     -42.854 -45.769  10.419  1.00  0.00     0.324 C 
HETATM   21  H   UNL     1     -44.378 -44.504   9.809  1.00  0.00     0.164 HD
HETATM   22  O   UNL     1     -42.460 -45.071  11.338  1.00  0.00    -0.247 OA
ENDBRANCH   4  16
TORSDOF 3
ENDMDL
MODEL 5
REMARK VINA RESULT:      -5.5      2.641      7.299
REMARK  3 active torsions:
REMARK  status: ('A' for Active; 'I' for Inactive)
REMARK    1  A    between atoms: C_2  and  C_3 
REMARK       I    between atoms: C_2  and  N_16 
REMARK    2  A    between atoms: C_3  and  C_4 
REMARK    3  A    between atoms: C_7  and  N_10 
ROOT
HETATM    1  C   UNL     1     -43.217 -50.006  13.230  1.00  0.00     0.026 A 
HETATM    2  C   UNL     1     -43.334 -49.519  14.521  1.00  0.00     0.078 A 
HETATM    3  S   UNL     1     -44.212 -50.622  15.483  1.00  0.00    -0.064 SA
HETATM    4  C   UNL     1     -44.374 -51.664  14.139  1.00  0.00     0.155 A 
HETATM    5  N   UNL     1     -43.860 -51.216  13.012  1.00  0.00    -0.339 N 
ATOM      6  HN  UNL     1     -43.924 -51.689  12.112  1.00  0.00     0.168 HD
ENDROOT
BRANCH   1   7
HETATM    7  C   UNL     1     -42.371 -49.440  12.143  1.00  0.00     0.160 C 
BRANCH   7   8
HETATM    8  C   UNL     1     -41.057 -50.165  11.907  1.00  0.00     0.225 C 
HETATM    9  O   UNL     1     -41.003 -51.376  11.684  1.00  0.00    -0.273 OA
HETATM   10  N   UNL     1     -39.905 -49.375  11.959  1.00  0.00    -0.352 N 
HETATM   11  C   UNL     1     -38.594 -50.002  11.797  1.00  0.00     0.125 C 
HETATM   12  C   UNL     1     -39.861 -47.986  12.420  1.00  0.00     0.125 C 
HETATM   13  C   UNL     1     -37.807 -49.942  13.107  1.00  0.00     0.020 C 
HETATM   14  C   UNL     1     -37.752 -48.515  13.662  1.00  0.00     0.003 C 
HETATM   15  C   UNL     1     -39.154 -47.916  13.769  1.00  0.00     0.020 C 
ENDBRANCH   7   8
ENDBRANCH   1   7
BRANCH   4  16
HETATM   16  N   UNL     1     -45.003 -52.884  14.239  1.00  0.00    -0.278 N 
HETATM   17  C   UNL     1     -45.866 -53.252  15.340  1.00  0.00     0.155 C 
HETATM   18  C   UNL     1     -46.571 -54.508  14.855  1.00  0.00     0.145 C 
HETATM   19  N   UNL     1     -45.813 -54.916  13.710  1.00  0.00    -0.341 N 
HETATM   20  C   UNL     1     -44.975 -53.892  13.274  1.00  0.00     0.324 C 
HETATM   21  H   UNL     1     -46.081 -55.629  13.044  1.00  0.00     0.164 HD
HETATM   22  O   UNL     1     -44.412 -53.947  12.194  1.00  0.00    -0.247 OA
ENDBRANCH   4  16
TORSDOF 3
ENDMDL
MODEL 6
REMARK VINA RESULT:      -5.4      2.387      2.908
REMARK  3 active torsions:
REMARK  status: ('A' for Active; 'I' for Inactive)
REMARK    1  A    between atoms: C_2  and  C_3 
REMARK       I    between atoms: C_2  and  N_16 
REMARK    2  A    between atoms: C_3  and  C_4 
REMARK    3  A    between atoms: C_7  and  N_10 
ROOT
HETATM    1  C   UNL     1     -42.886 -49.098  13.294  1.00  0.00     0.026 A 
HETATM    2  C   UNL     1     -42.712 -47.927  14.012  1.00  0.00     0.078 A 
HETATM    3  S   UNL     1     -42.927 -46.579  12.989  1.00  0.00    -0.064 SA
HETATM    4  C   UNL     1     -43.238 -47.625  11.675  1.00  0.00     0.155 A 
HETATM    5  N   UNL     1     -43.140 -48.911  11.943  1.00  0.00    -0.339 N 
ATOM      6  HN  UNL     1     -43.237 -49.660  11.257  1.00  0.00     0.168 HD
ENDROOT
BRANCH   1   7
HETATM    7  C   UNL     1     -42.968 -50.476  13.853  1.00  0.00     0.160 C 
BRANCH   7   8
HETATM    8  C   UNL     1     -44.101 -51.327  13.304  1.00  0.00     0.225 C 
HETATM    9  O   UNL     1     -45.202 -50.853  13.018  1.00  0.00    -0.273 OA
HETATM   10  N   UNL     1     -43.820 -52.686  13.142  1.00  0.00    -0.352 N 
HETATM   11  C   UNL     1     -44.871 -53.588  12.671  1.00  0.00     0.125 C 
HETATM   12  C   UNL     1     -42.624 -53.362  13.648  1.00  0.00     0.125 C 
HETATM   13  C   UNL     1     -45.283 -54.556  13.781  1.00  0.00     0.020 C 
HETATM   14  C   UNL     1     -44.067 -55.273  14.378  1.00  0.00     0.003 C 
HETATM   15  C   UNL     1     -43.000 -54.269  14.813  1.00  0.00     0.020 C 
ENDBRANCH   7   8
ENDBRANCH   1   7
BRANCH   4  16
HETATM   16  N   UNL     1     -43.564 -47.145  10.426  1.00  0.00    -0.278 N 
HETATM   17  C   UNL     1     -42.715 -46.258   9.663  1.00  0.00     0.155 C 
HETATM   18  C   UNL     1     -43.315 -46.281   8.267  1.00  0.00     0.145 C 
HETATM   19  N   UNL     1     -44.603 -46.881   8.448  1.00  0.00    -0.341 N 
HETATM   20  C   UNL     1     -44.694 -47.505   9.690  1.00  0.00     0.324 C 
HETATM   21  H   UNL     1     -45.221 -47.194   7.710  1.00  0.00     0.164 HD
HETATM   22  O   UNL     1     -45.614 -48.258   9.957  1.00  0.00    -0.247 OA
ENDBRANCH   4  16
TORSDOF 3
ENDMDL
MODEL 7
REMARK VINA RESULT:      -5.4      2.953      4.136
REMARK  3 active torsions:
REMARK  status: ('A' for Active; 'I' for Inactive)
REMARK    1  A    between atoms: C_2  and  C_3 
REMARK       I    between atoms: C_2  and  N_16 
REMARK    2  A    between atoms: C_3  and  C_4 
REMARK    3  A    between atoms: C_7  and  N_10 
ROOT
HETATM    1  C   UNL     1     -42.089 -52.946  16.222  1.00  0.00     0.026 A 
HETATM    2  C   UNL     1     -41.299 -52.140  17.024  1.00  0.00     0.078 A 
HETATM    3  S   UNL     1     -40.441 -51.023  16.061  1.00  0.00    -0.064 SA
HETATM    4  C   UNL     1     -41.169 -51.672  14.659  1.00  0.00     0.155 A 
HETATM    5  N   UNL     1     -41.969 -52.698  14.862  1.00  0.00    -0.339 N 
ATOM      6  HN  UNL     1     -42.432 -53.233  14.127  1.00  0.00     0.168 HD
ENDROOT
BRANCH   1   7
HETATM    7  C   UNL     1     -43.125 -53.912  16.684  1.00  0.00     0.160 C 
BRANCH   7   8
HETATM    8  C   UNL     1     -44.151 -54.306  15.634  1.00  0.00     0.225 C 
HETATM    9  O   UNL     1     -43.940 -55.195  14.808  1.00  0.00    -0.273 OA
HETATM   10  N   UNL     1     -45.354 -53.596  15.661  1.00  0.00    -0.352 N 
HETATM   11  C   UNL     1     -46.376 -53.873  14.652  1.00  0.00     0.125 C 
HETATM   12  C   UNL     1     -45.604 -52.397  16.463  1.00  0.00     0.125 C 
HETATM   13  C   UNL     1     -46.540 -52.676  13.714  1.00  0.00     0.020 C 
HETATM   14  C   UNL     1     -46.770 -51.379  14.496  1.00  0.00     0.003 C 
HETATM   15  C   UNL     1     -45.685 -51.177  15.553  1.00  0.00     0.020 C 
ENDBRANCH   7   8
ENDBRANCH   1   7
BRANCH   4  16
HETATM   16  N   UNL     1     -40.926 -51.151  13.408  1.00  0.00    -0.278 N 
HETATM   17  C   UNL     1     -40.001 -50.068  13.158  1.00  0.00     0.155 C 
HETATM   18  C   UNL     1     -39.821 -50.076  11.649  1.00  0.00     0.145 C 
HETATM   19  N   UNL     1     -40.890 -50.902  11.172  1.00  0.00    -0.341 N 
HETATM   20  C   UNL     1     -41.457 -51.636  12.212  1.00  0.00     0.324 C 
HETATM   21  H   UNL     1     -40.993 -51.253  10.229  1.00  0.00     0.164 HD
HETATM   22  O   UNL     1     -42.224 -52.557  11.995  1.00  0.00    -0.247 OA
ENDBRANCH   4  16
TORSDOF 3
ENDMDL
MODEL 8
REMARK VINA RESULT:      -5.4      3.206      4.297
REMARK  3 active torsions:
REMARK  status: ('A' for Active; 'I' for Inactive)
REMARK    1  A    between atoms: C_2  and  C_3 
REMARK       I    between atoms: C_2  and  N_16 
REMARK    2  A    between atoms: C_3  and  C_4 
REMARK    3  A    between atoms: C_7  and  N_10 
ROOT
HETATM    1  C   UNL     1     -39.720 -48.209  12.251  1.00  0.00     0.026 A 
HETATM    2  C   UNL     1     -39.165 -48.060  13.511  1.00  0.00     0.078 A 
HETATM    3  S   UNL     1     -39.102 -46.407  13.928  1.00  0.00    -0.064 SA
HETATM    4  C   UNL     1     -39.812 -46.001  12.428  1.00  0.00     0.155 A 
HETATM    5  N   UNL     1     -40.043 -47.016  11.621  1.00  0.00    -0.339 N 
ATOM      6  HN  UNL     1     -40.407 -46.937  10.671  1.00  0.00     0.168 HD
ENDROOT
BRANCH   1   7
HETATM    7  C   UNL     1     -40.121 -49.490  11.606  1.00  0.00     0.160 C 
BRANCH   7   8
HETATM    8  C   UNL     1     -39.535 -50.741  12.240  1.00  0.00     0.225 C 
HETATM    9  O   UNL     1     -38.370 -51.092  12.050  1.00  0.00    -0.273 OA
HETATM   10  N   UNL     1     -40.402 -51.475  13.055  1.00  0.00    -0.352 N 
HETATM   11  C   UNL     1     -39.936 -52.722  13.660  1.00  0.00     0.125 C 
HETATM   12  C   UNL     1     -41.844 -51.248  13.166  1.00  0.00     0.125 C 
HETATM   13  C   UNL     1     -40.673 -53.918  13.055  1.00  0.00     0.020 C 
HETATM   14  C   UNL     1     -42.192 -53.726  13.109  1.00  0.00     0.003 C 
HETATM   15  C   UNL     1     -42.597 -52.389  12.491  1.00  0.00     0.020 C 
ENDBRANCH   7   8
ENDBRANCH   1   7
BRANCH   4  16
HETATM   16  N   UNL     1     -40.114 -44.700  12.096  1.00  0.00    -0.278 N 
HETATM   17  C   UNL     1     -40.299 -43.648  13.070  1.00  0.00     0.155 C 
HETATM   18  C   UNL     1     -40.273 -42.371  12.247  1.00  0.00     0.145 C 
HETATM   19  N   UNL     1     -40.423 -42.822  10.895  1.00  0.00    -0.341 N 
HETATM   20  C   UNL     1     -40.198 -44.194  10.798  1.00  0.00     0.324 C 
HETATM   21  H   UNL     1     -40.299 -42.258  10.064  1.00  0.00     0.164 HD
HETATM   22  O   UNL     1     -40.056 -44.740   9.718  1.00  0.00    -0.247 OA
ENDBRANCH   4  16
TORSDOF 3
ENDMDL
MODEL 9
REMARK VINA RESULT:      -5.4      5.393      6.569
REMARK  3 active torsions:
REMARK  status: ('A' for Active; 'I' for Inactive)
REMARK    1  A    between atoms: C_2  and  C_3 
REMARK       I    between atoms: C_2  and  N_16 
REMARK    2  A    between atoms: C_3  and  C_4 
REMARK    3  A    between atoms: C_7  and  N_10 
ROOT
HETATM    1  C   UNL     1     -42.468 -54.549  14.486  1.00  0.00     0.026 A 
HETATM    2  C   UNL     1     -41.923 -54.040  13.319  1.00  0.00     0.078 A 
HETATM    3  S   UNL     1     -40.301 -53.582  13.585  1.00  0.00    -0.064 SA
HETATM    4  C   UNL     1     -40.426 -54.087  15.212  1.00  0.00     0.155 A 
HETATM    5  N   UNL     1     -41.613 -54.525  15.578  1.00  0.00    -0.339 N 
ATOM      6  HN  UNL     1     -41.866 -54.806  16.525  1.00  0.00     0.168 HD
ENDROOT
BRANCH   1   7
HETATM    7  C   UNL     1     -43.787 -55.227  14.625  1.00  0.00     0.160 C 
BRANCH   7   8
HETATM    8  C   UNL     1     -44.960 -54.487  14.003  1.00  0.00     0.225 C 
HETATM    9  O   UNL     1     -45.204 -54.533  12.797  1.00  0.00    -0.273 OA
HETATM   10  N   UNL     1     -45.750 -53.746  14.886  1.00  0.00    -0.352 N 
HETATM   11  C   UNL     1     -46.868 -52.959  14.365  1.00  0.00     0.125 C 
HETATM   12  C   UNL     1     -45.414 -53.470  16.284  1.00  0.00     0.125 C 
HETATM   13  C   UNL     1     -46.587 -51.464  14.519  1.00  0.00     0.020 C 
HETATM   14  C   UNL     1     -46.193 -51.113  15.958  1.00  0.00     0.003 C 
HETATM   15  C   UNL     1     -45.047 -51.999  16.443  1.00  0.00     0.020 C 
ENDBRANCH   7   8
ENDBRANCH   1   7
BRANCH   4  16
HETATM   16  N   UNL     1     -39.353 -54.030  16.074  1.00  0.00    -0.278 N 
HETATM   17  C   UNL     1     -38.979 -52.844  16.810  1.00  0.00     0.155 C 
HETATM   18  C   UNL     1     -37.987 -53.347  17.845  1.00  0.00     0.145 C 
HETATM   19  N   UNL     1     -37.639 -54.660  17.389  1.00  0.00    -0.341 N 
HETATM   20  C   UNL     1     -38.539 -55.108  16.424  1.00  0.00     0.324 C 
HETATM   21  H   UNL     1     -37.116 -55.350  17.912  1.00  0.00     0.164 HD
HETATM   22  O   UNL     1     -38.559 -56.273  16.067  1.00  0.00    -0.247 OA
ENDBRANCH   4  16
TORSDOF 3
ENDMDL
