MODEL 1
REMARK VINA RESULT:      -6.5      0.000      0.000
REMARK  6 active torsions:
REMARK  status: ('A' for Active; 'I' for Inactive)
REMARK    1  A    between atoms: C_2  and  C_4 
REMARK    2  A    between atoms: C_4  and  C_7 
REMARK    3  A    between atoms: C_7  and  O_8 
REMARK    4  A    between atoms: O_8  and  C_9 
REMARK    5  A    between atoms: C_12  and  N_13 
REMARK       I    between atoms: N_13  and  C_14 
REMARK    6  A    between atoms: C_14  and  C_16 
ROOT
HETATM    1  C   UNL     1     -42.241 -48.381  10.752  1.00  0.00     0.142 A 
HETATM    2  C   UNL     1     -42.751 -48.620  12.012  1.00  0.00     0.058 A 
HETATM    3  C   UNL     1     -42.040 -49.459  12.868  1.00  0.00     0.035 A 
HETATM    4  C   UNL     1     -40.834 -50.017  12.455  1.00  0.00     0.050 A 
HETATM    5  C   UNL     1     -40.392 -49.679  11.175  1.00  0.00     0.119 A 
HETATM    6  N   UNL     1     -41.071 -48.883  10.306  1.00  0.00    -0.345 N 
ATOM      7  HN  UNL     1     -40.715 -48.677   9.372  1.00  0.00     0.167 HD
ENDROOT
BRANCH   4   8
HETATM    8  N   UNL     1     -40.053 -50.869  13.268  1.00  0.00    -0.324 N 
HETATM    9  C   UNL     1     -39.974 -52.251  13.155  1.00  0.00     0.253 C 
HETATM   10  O   UNL     1     -40.461 -52.917  12.246  1.00  0.00    -0.270 OA
HETATM   11  H   UNL     1     -39.465 -50.448  13.982  1.00  0.00     0.169 HD
BRANCH   9  12
HETATM   12  C   UNL     1     -39.082 -52.896  14.234  1.00  0.00     0.237 C 
HETATM   13  C   UNL     1     -39.306 -54.416  14.289  1.00  0.00     0.209 C 
HETATM   14  O   UNL     1     -40.512 -54.750  14.991  1.00  0.00    -0.386 OA
HETATM   15  C   UNL     1     -40.489 -54.198  16.309  1.00  0.00     0.193 C 
HETATM   16  C   UNL     1     -40.349 -52.681  16.237  1.00  0.00     0.195 C 
HETATM   17  O   UNL     1     -39.162 -52.287  15.531  1.00  0.00    -0.372 OA
ENDBRANCH   9  12
ENDBRANCH   4   8
BRANCH   1  18
HETATM   18  O   UNL     1     -42.974 -47.529   9.954  1.00  0.00    -0.330 OA
BRANCH  18  19
HETATM   19  C   UNL     1     -44.375 -47.551  10.261  1.00  0.00     0.262 C 
BRANCH  19  20
HETATM   20  C   UNL     1     -45.166 -47.451   8.964  1.00  0.00     0.322 C 
HETATM   21  F   UNL     1     -44.413 -47.892   7.917  1.00  0.00    -0.198 F 
HETATM   22  F   UNL     1     -45.462 -46.149   8.690  1.00  0.00    -0.198 F 
BRANCH  20  23
HETATM   23  C   UNL     1     -46.452 -48.256   9.034  1.00  0.00     0.427 C 
HETATM   24  F   UNL     1     -47.533 -47.438   9.130  1.00  0.00    -0.208 F 
HETATM   25  F   UNL     1     -46.629 -48.982   7.897  1.00  0.00    -0.208 F 
ENDBRANCH  20  23
ENDBRANCH  19  20
ENDBRANCH  18  19
ENDBRANCH   1  18
TORSDOF 6
ENDMDL
MODEL 2
REMARK VINA RESULT:      -6.4      4.624      6.037
REMARK  6 active torsions:
REMARK  status: ('A' for Active; 'I' for Inactive)
REMARK    1  A    between atoms: C_2  and  C_4 
REMARK    2  A    between atoms: C_4  and  C_7 
REMARK    3  A    between atoms: C_7  and  O_8 
REMARK    4  A    between atoms: O_8  and  C_9 
REMARK    5  A    between atoms: C_12  and  N_13 
REMARK       I    between atoms: N_13  and  C_14 
REMARK    6  A    between atoms: C_14  and  C_16 
ROOT
HETATM    1  C   UNL     1     -43.787 -53.864  12.946  1.00  0.00     0.142 A 
HETATM    2  C   UNL     1     -43.008 -54.193  14.037  1.00  0.00     0.058 A 
HETATM    3  C   UNL     1     -41.780 -53.553  14.192  1.00  0.00     0.035 A 
HETATM    4  C   UNL     1     -41.373 -52.591  13.272  1.00  0.00     0.050 A 
HETATM    5  C   UNL     1     -42.254 -52.309  12.227  1.00  0.00     0.119 A 
HETATM    6  N   UNL     1     -43.449 -52.930  12.033  1.00  0.00    -0.345 N 
ATOM      7  HN  UNL     1     -44.054 -52.702  11.243  1.00  0.00     0.167 HD
ENDROOT
BRANCH   4   8
HETATM    8  N   UNL     1     -40.148 -51.894  13.367  1.00  0.00    -0.324 N 
HETATM    9  C   UNL     1     -38.901 -52.469  13.583  1.00  0.00     0.253 C 
HETATM   10  O   UNL     1     -38.668 -53.674  13.584  1.00  0.00    -0.270 OA
HETATM   11  H   UNL     1     -40.154 -50.886  13.235  1.00  0.00     0.169 HD
BRANCH   9  12
HETATM   12  C   UNL     1     -37.769 -51.430  13.700  1.00  0.00     0.237 C 
HETATM   13  C   UNL     1     -38.336 -50.044  14.050  1.00  0.00     0.209 C 
HETATM   14  O   UNL     1     -38.903 -49.396  12.902  1.00  0.00    -0.386 OA
HETATM   15  C   UNL     1     -37.931 -49.293  11.859  1.00  0.00     0.193 C 
HETATM   16  C   UNL     1     -37.438 -50.681  11.465  1.00  0.00     0.195 C 
HETATM   17  O   UNL     1     -36.871 -51.383  12.583  1.00  0.00    -0.372 OA
ENDBRANCH   9  12
ENDBRANCH   4   8
BRANCH   1  18
HETATM   18  O   UNL     1     -45.000 -54.512  12.851  1.00  0.00    -0.330 OA
BRANCH  18  19
HETATM   19  C   UNL     1     -45.709 -54.545  14.098  1.00  0.00     0.262 C 
BRANCH  19  20
HETATM   20  C   UNL     1     -46.557 -53.286  14.218  1.00  0.00     0.322 C 
HETATM   21  F   UNL     1     -47.830 -53.610  14.585  1.00  0.00    -0.198 F 
HETATM   22  F   UNL     1     -46.663 -52.669  13.007  1.00  0.00    -0.198 F 
BRANCH  20  23
HETATM   23  C   UNL     1     -45.972 -52.315  15.229  1.00  0.00     0.427 C 
HETATM   24  F   UNL     1     -45.171 -52.962  16.115  1.00  0.00    -0.208 F 
HETATM   25  F   UNL     1     -45.184 -51.394  14.612  1.00  0.00    -0.208 F 
ENDBRANCH  20  23
ENDBRANCH  19  20
ENDBRANCH  18  19
ENDBRANCH   1  18
TORSDOF 6
ENDMDL
MODEL 3
REMARK VINA RESULT:      -6.4      1.497      1.821
REMARK  6 active torsions:
REMARK  status: ('A' for Active; 'I' for Inactive)
REMARK    1  A    between atoms: C_2  and  C_4 
REMARK    2  A    between atoms: C_4  and  C_7 
REMARK    3  A    between atoms: C_7  and  O_8 
REMARK    4  A    between atoms: O_8  and  C_9 
REMARK    5  A    between atoms: C_12  and  N_13 
REMARK       I    between atoms: N_13  and  C_14 
REMARK    6  A    between atoms: C_14  and  C_16 
ROOT
HETATM    1  C   UNL     1     -41.842 -48.218  10.727  1.00  0.00     0.142 A 
HETATM    2  C   UNL     1     -42.729 -48.467  11.755  1.00  0.00     0.058 A 
HETATM    3  C   UNL     1     -42.556 -49.622  12.515  1.00  0.00     0.035 A 
HETATM    4  C   UNL     1     -41.497 -50.483  12.246  1.00  0.00     0.050 A 
HETATM    5  C   UNL     1     -40.639 -50.116  11.209  1.00  0.00     0.119 A 
HETATM    6  N   UNL     1     -40.790 -49.010  10.433  1.00  0.00    -0.345 N 
ATOM      7  HN  UNL     1     -40.145 -48.791   9.672  1.00  0.00     0.167 HD
ENDROOT
BRANCH   4   8
HETATM    8  N   UNL     1     -41.252 -51.666  12.978  1.00  0.00    -0.324 N 
HETATM    9  C   UNL     1     -40.505 -51.759  14.146  1.00  0.00     0.253 C 
HETATM   10  O   UNL     1     -40.069 -50.805  14.785  1.00  0.00    -0.270 OA
HETATM   11  H   UNL     1     -41.678 -52.531  12.655  1.00  0.00     0.169 HD
BRANCH   9  12
HETATM   12  C   UNL     1     -40.373 -53.204  14.666  1.00  0.00     0.237 C 
HETATM   13  C   UNL     1     -40.783 -54.212  13.580  1.00  0.00     0.209 C 
HETATM   14  O   UNL     1     -42.210 -54.315  13.460  1.00  0.00    -0.386 OA
HETATM   15  C   UNL     1     -42.788 -54.667  14.719  1.00  0.00     0.193 C 
HETATM   16  C   UNL     1     -42.442 -53.615  15.767  1.00  0.00     0.195 C 
HETATM   17  O   UNL     1     -41.022 -53.460  15.918  1.00  0.00    -0.372 OA
ENDBRANCH   9  12
ENDBRANCH   4   8
BRANCH   1  18
HETATM   18  O   UNL     1     -42.047 -47.053  10.020  1.00  0.00    -0.330 OA
BRANCH  18  19
HETATM   19  C   UNL     1     -43.321 -46.455  10.295  1.00  0.00     0.262 C 
BRANCH  19  20
HETATM   20  C   UNL     1     -44.068 -46.258   8.983  1.00  0.00     0.322 C 
HETATM   21  F   UNL     1     -43.203 -46.335   7.932  1.00  0.00    -0.198 F 
HETATM   22  F   UNL     1     -44.611 -45.009   8.930  1.00  0.00    -0.198 F 
BRANCH  20  23
HETATM   23  C   UNL     1     -45.167 -47.293   8.808  1.00  0.00     0.427 C 
HETATM   24  F   UNL     1     -44.792 -48.253   7.922  1.00  0.00    -0.208 F 
HETATM   25  F   UNL     1     -45.414 -47.937   9.980  1.00  0.00    -0.208 F 
ENDBRANCH  20  23
ENDBRANCH  19  20
ENDBRANCH  18  19
ENDBRANCH   1  18
TORSDOF 6
ENDMDL
MODEL 4
REMARK VINA RESULT:      -6.3      5.016      6.332
REMARK  6 active torsions:
REMARK  status: ('A' for Active; 'I' for Inactive)
REMARK    1  A    between atoms: C_2  and  C_4 
REMARK    2  A    between atoms: C_4  and  C_7 
REMARK    3  A    between atoms: C_7  and  O_8 
REMARK    4  A    between atoms: O_8  and  C_9 
REMARK    5  A    between atoms: C_12  and  N_13 
REMARK       I    between atoms: N_13  and  C_14 
REMARK    6  A    between atoms: C_14  and  C_16 
ROOT
HETATM    1  C   UNL     1     -44.403 -52.532  12.584  1.00  0.00     0.142 A 
HETATM    2  C   UNL     1     -44.414 -51.356  13.306  1.00  0.00     0.058 A 
HETATM    3  C   UNL     1     -43.217 -50.661  13.459  1.00  0.00     0.035 A 
HETATM    4  C   UNL     1     -42.050 -51.142  12.873  1.00  0.00     0.050 A 
HETATM    5  C   UNL     1     -42.159 -52.321  12.134  1.00  0.00     0.119 A 
HETATM    6  N   UNL     1     -43.305 -53.037  11.982  1.00  0.00    -0.345 N 
ATOM      7  HN  UNL     1     -43.333 -53.904  11.446  1.00  0.00     0.167 HD
ENDROOT
BRANCH   4   8
HETATM    8  N   UNL     1     -40.801 -50.489  12.977  1.00  0.00    -0.324 N 
HETATM    9  C   UNL     1     -39.922 -50.584  14.049  1.00  0.00     0.253 C 
HETATM   10  O   UNL     1     -40.039 -51.358  14.995  1.00  0.00    -0.270 OA
HETATM   11  H   UNL     1     -40.487 -49.921  12.195  1.00  0.00     0.169 HD
BRANCH   9  12
HETATM   12  C   UNL     1     -38.671 -49.698  13.884  1.00  0.00     0.237 C 
HETATM   13  C   UNL     1     -38.855 -48.708  12.722  1.00  0.00     0.209 C 
HETATM   14  O   UNL     1     -38.657 -49.340  11.449  1.00  0.00    -0.386 OA
HETATM   15  C   UNL     1     -37.364 -49.948  11.392  1.00  0.00     0.193 C 
HETATM   16  C   UNL     1     -37.226 -50.986  12.500  1.00  0.00     0.195 C 
HETATM   17  O   UNL     1     -37.429 -50.410  13.800  1.00  0.00    -0.372 OA
ENDBRANCH   9  12
ENDBRANCH   4   8
BRANCH   1  18
HETATM   18  O   UNL     1     -45.617 -53.170  12.446  1.00  0.00    -0.330 OA
BRANCH  18  19
HETATM   19  C   UNL     1     -46.357 -53.224  13.674  1.00  0.00     0.262 C 
BRANCH  19  20
HETATM   20  C   UNL     1     -46.043 -54.533  14.384  1.00  0.00     0.322 C 
HETATM   21  F   UNL     1     -45.461 -55.410  13.517  1.00  0.00    -0.198 F 
HETATM   22  F   UNL     1     -47.194 -55.131  14.804  1.00  0.00    -0.198 F 
BRANCH  20  23
HETATM   23  C   UNL     1     -45.124 -54.315  15.573  1.00  0.00     0.427 C 
HETATM   24  F   UNL     1     -43.822 -54.451  15.211  1.00  0.00    -0.208 F 
HETATM   25  F   UNL     1     -45.252 -53.049  16.055  1.00  0.00    -0.208 F 
ENDBRANCH  20  23
ENDBRANCH  19  20
ENDBRANCH  18  19
ENDBRANCH   1  18
TORSDOF 6
ENDMDL
MODEL 5
REMARK VINA RESULT:      -6.1      4.404      7.607
REMARK  6 active torsions:
REMARK  status: ('A' for Active; 'I' for Inactive)
REMARK    1  A    between atoms: C_2  and  C_4 
REMARK    2  A    between atoms: C_4  and  C_7 
REMARK    3  A    between atoms: C_7  and  O_8 
REMARK    4  A    between atoms: O_8  and  C_9 
REMARK    5  A    between atoms: C_12  and  N_13 
REMARK       I    between atoms: N_13  and  C_14 
REMARK    6  A    between atoms: C_14  and  C_16 
ROOT
HETATM    1  C   UNL     1     -39.895 -51.353  12.561  1.00  0.00     0.142 A 
HETATM    2  C   UNL     1     -39.361 -50.339  13.329  1.00  0.00     0.058 A 
HETATM    3  C   UNL     1     -39.437 -49.033  12.851  1.00  0.00     0.035 A 
HETATM    4  C   UNL     1     -40.061 -48.771  11.634  1.00  0.00     0.050 A 
HETATM    5  C   UNL     1     -40.600 -49.865  10.957  1.00  0.00     0.119 A 
HETATM    6  N   UNL     1     -40.524 -51.154  11.383  1.00  0.00    -0.345 N 
ATOM      7  HN  UNL     1     -40.919 -51.925  10.844  1.00  0.00     0.167 HD
ENDROOT
BRANCH   4   8
HETATM    8  N   UNL     1     -40.185 -47.473  11.088  1.00  0.00    -0.324 N 
HETATM    9  C   UNL     1     -41.375 -46.781  10.904  1.00  0.00     0.253 C 
HETATM   10  O   UNL     1     -42.474 -47.139  11.317  1.00  0.00    -0.270 OA
HETATM   11  H   UNL     1     -39.337 -46.974  10.833  1.00  0.00     0.169 HD
BRANCH   9  12
HETATM   12  C   UNL     1     -41.178 -45.411  10.226  1.00  0.00     0.237 C 
HETATM   13  C   UNL     1     -39.706 -44.974  10.300  1.00  0.00     0.209 C 
HETATM   14  O   UNL     1     -39.369 -44.456  11.595  1.00  0.00    -0.386 OA
HETATM   15  C   UNL     1     -40.233 -43.370  11.935  1.00  0.00     0.193 C 
HETATM   16  C   UNL     1     -41.684 -43.838  11.939  1.00  0.00     0.195 C 
HETATM   17  O   UNL     1     -42.073 -44.381  10.667  1.00  0.00    -0.372 OA
ENDBRANCH   9  12
ENDBRANCH   4   8
BRANCH   1  18
HETATM   18  O   UNL     1     -39.811 -52.623  13.090  1.00  0.00    -0.330 OA
BRANCH  18  19
HETATM   19  C   UNL     1     -40.861 -52.904  14.025  1.00  0.00     0.262 C 
BRANCH  19  20
HETATM   20  C   UNL     1     -41.734 -54.020  13.468  1.00  0.00     0.322 C 
HETATM   21  F   UNL     1     -42.029 -54.920  14.449  1.00  0.00    -0.198 F 
HETATM   22  F   UNL     1     -41.059 -54.717  12.511  1.00  0.00    -0.198 F 
BRANCH  20  23
HETATM   23  C   UNL     1     -43.024 -53.475  12.879  1.00  0.00     0.427 C 
HETATM   24  F   UNL     1     -44.106 -54.062  13.455  1.00  0.00    -0.208 F 
HETATM   25  F   UNL     1     -43.142 -52.142  13.127  1.00  0.00    -0.208 F 
ENDBRANCH  20  23
ENDBRANCH  19  20
ENDBRANCH  18  19
ENDBRANCH   1  18
TORSDOF 6
ENDMDL
MODEL 6
REMARK VINA RESULT:      -6.1      4.494      7.310
REMARK  6 active torsions:
REMARK  status: ('A' for Active; 'I' for Inactive)
REMARK    1  A    between atoms: C_2  and  C_4 
REMARK    2  A    between atoms: C_4  and  C_7 
REMARK    3  A    between atoms: C_7  and  O_8 
REMARK    4  A    between atoms: O_8  and  C_9 
REMARK    5  A    between atoms: C_12  and  N_13 
REMARK       I    between atoms: N_13  and  C_14 
REMARK    6  A    between atoms: C_14  and  C_16 
ROOT
HETATM    1  C   UNL     1     -42.237 -51.520  12.556  1.00  0.00     0.142 A 
HETATM    2  C   UNL     1     -43.008 -50.515  13.103  1.00  0.00     0.058 A 
HETATM    3  C   UNL     1     -42.672 -49.193  12.821  1.00  0.00     0.035 A 
HETATM    4  C   UNL     1     -41.593 -48.909  11.989  1.00  0.00     0.050 A 
HETATM    5  C   UNL     1     -40.904 -50.001  11.460  1.00  0.00     0.119 A 
HETATM    6  N   UNL     1     -41.191 -51.302  11.731  1.00  0.00    -0.345 N 
ATOM      7  HN  UNL     1     -40.647 -52.069  11.334  1.00  0.00     0.167 HD
ENDROOT
BRANCH   4   8
HETATM    8  N   UNL     1     -41.197 -47.595  11.651  1.00  0.00    -0.324 N 
HETATM    9  C   UNL     1     -41.646 -46.868  10.556  1.00  0.00     0.253 C 
HETATM   10  O   UNL     1     -42.555 -47.208   9.804  1.00  0.00    -0.270 OA
HETATM   11  H   UNL     1     -40.552 -47.111  12.270  1.00  0.00     0.169 HD
BRANCH   9  12
HETATM   12  C   UNL     1     -40.974 -45.487  10.431  1.00  0.00     0.237 C 
HETATM   13  C   UNL     1     -39.856 -45.329  11.474  1.00  0.00     0.209 C 
HETATM   14  O   UNL     1     -40.381 -45.030  12.776  1.00  0.00    -0.386 OA
HETATM   15  C   UNL     1     -41.191 -43.853  12.725  1.00  0.00     0.193 C 
HETATM   16  C   UNL     1     -42.344 -44.054  11.747  1.00  0.00     0.195 C 
HETATM   17  O   UNL     1     -41.875 -44.371  10.427  1.00  0.00    -0.372 OA
ENDBRANCH   9  12
ENDBRANCH   4   8
BRANCH   1  18
HETATM   18  O   UNL     1     -42.625 -52.809  12.849  1.00  0.00    -0.330 OA
BRANCH  18  19
HETATM   19  C   UNL     1     -43.769 -52.860  13.713  1.00  0.00     0.262 C 
BRANCH  19  20
HETATM   20  C   UNL     1     -44.766 -53.866  13.156  1.00  0.00     0.322 C 
HETATM   21  F   UNL     1     -44.269 -54.444  12.025  1.00  0.00    -0.198 F 
HETATM   22  F   UNL     1     -45.915 -53.236  12.781  1.00  0.00    -0.198 F 
BRANCH  20  23
HETATM   23  C   UNL     1     -45.092 -54.947  14.172  1.00  0.00     0.427 C 
HETATM   24  F   UNL     1     -45.867 -55.916  13.617  1.00  0.00    -0.208 F 
HETATM   25  F   UNL     1     -43.959 -55.567  14.597  1.00  0.00    -0.208 F 
ENDBRANCH  20  23
ENDBRANCH  19  20
ENDBRANCH  18  19
ENDBRANCH   1  18
TORSDOF 6
ENDMDL
MODEL 7
REMARK VINA RESULT:      -6.0      4.565      5.731
REMARK  6 active torsions:
REMARK  status: ('A' for Active; 'I' for Inactive)
REMARK    1  A    between atoms: C_2  and  C_4 
REMARK    2  A    between atoms: C_4  and  C_7 
REMARK    3  A    between atoms: C_7  and  O_8 
REMARK    4  A    between atoms: O_8  and  C_9 
REMARK    5  A    between atoms: C_12  and  N_13 
REMARK       I    between atoms: N_13  and  C_14 
REMARK    6  A    between atoms: C_14  and  C_16 
ROOT
HETATM    1  C   UNL     1     -43.639 -53.316  12.730  1.00  0.00     0.142 A 
HETATM    2  C   UNL     1     -42.576 -54.101  13.131  1.00  0.00     0.058 A 
HETATM    3  C   UNL     1     -41.304 -53.532  13.155  1.00  0.00     0.035 A 
HETATM    4  C   UNL     1     -41.129 -52.198  12.801  1.00  0.00     0.050 A 
HETATM    5  C   UNL     1     -42.276 -51.487  12.446  1.00  0.00     0.119 A 
HETATM    6  N   UNL     1     -43.528 -52.015  12.390  1.00  0.00    -0.345 N 
ATOM      7  HN  UNL     1     -44.336 -51.459  12.109  1.00  0.00     0.167 HD
ENDROOT
BRANCH   4   8
HETATM    8  N   UNL     1     -39.873 -51.550  12.809  1.00  0.00    -0.324 N 
HETATM    9  C   UNL     1     -39.467 -50.555  11.928  1.00  0.00     0.253 C 
HETATM   10  O   UNL     1     -40.190 -49.998  11.107  1.00  0.00    -0.270 OA
HETATM   11  H   UNL     1     -39.207 -51.798  13.535  1.00  0.00     0.169 HD
BRANCH   9  12
HETATM   12  C   UNL     1     -38.014 -50.098  12.161  1.00  0.00     0.237 C 
HETATM   13  C   UNL     1     -37.288 -51.058  13.118  1.00  0.00     0.209 C 
HETATM   14  O   UNL     1     -37.653 -50.823  14.486  1.00  0.00    -0.386 OA
HETATM   15  C   UNL     1     -37.390 -49.464  14.843  1.00  0.00     0.193 C 
HETATM   16  C   UNL     1     -38.180 -48.524  13.939  1.00  0.00     0.195 C 
HETATM   17  O   UNL     1     -37.864 -48.726  12.552  1.00  0.00    -0.372 OA
ENDBRANCH   9  12
ENDBRANCH   4   8
BRANCH   1  18
HETATM   18  O   UNL     1     -44.877 -53.921  12.744  1.00  0.00    -0.330 OA
BRANCH  18  19
HETATM   19  C   UNL     1     -45.944 -52.992  12.977  1.00  0.00     0.262 C 
BRANCH  19  20
HETATM   20  C   UNL     1     -46.341 -53.053  14.445  1.00  0.00     0.322 C 
HETATM   21  F   UNL     1     -45.554 -53.946  15.109  1.00  0.00    -0.198 F 
HETATM   22  F   UNL     1     -47.618 -53.512  14.572  1.00  0.00    -0.198 F 
BRANCH  20  23
HETATM   23  C   UNL     1     -46.227 -51.691  15.109  1.00  0.00     0.427 C 
HETATM   24  F   UNL     1     -45.624 -50.797  14.282  1.00  0.00    -0.208 F 
HETATM   25  F   UNL     1     -47.459 -51.182  15.379  1.00  0.00    -0.208 F 
ENDBRANCH  20  23
ENDBRANCH  19  20
ENDBRANCH  18  19
ENDBRANCH   1  18
TORSDOF 6
ENDMDL
MODEL 8
REMARK VINA RESULT:      -6.0      2.891      3.471
REMARK  6 active torsions:
REMARK  status: ('A' for Active; 'I' for Inactive)
REMARK    1  A    between atoms: C_2  and  C_4 
REMARK    2  A    between atoms: C_4  and  C_7 
REMARK    3  A    between atoms: C_7  and  O_8 
REMARK    4  A    between atoms: O_8  and  C_9 
REMARK    5  A    between atoms: C_12  and  N_13 
REMARK       I    between atoms: N_13  and  C_14 
REMARK    6  A    between atoms: C_14  and  C_16 
ROOT
HETATM    1  C   UNL     1     -41.272 -48.299  10.611  1.00  0.00     0.142 A 
HETATM    2  C   UNL     1     -40.875 -47.265  11.436  1.00  0.00     0.058 A 
HETATM    3  C   UNL     1     -39.841 -47.497  12.340  1.00  0.00     0.035 A 
HETATM    4  C   UNL     1     -39.219 -48.741  12.384  1.00  0.00     0.050 A 
HETATM    5  C   UNL     1     -39.673 -49.703  11.481  1.00  0.00     0.119 A 
HETATM    6  N   UNL     1     -40.694 -49.518  10.601  1.00  0.00    -0.345 N 
ATOM      7  HN  UNL     1     -41.003 -50.258   9.971  1.00  0.00     0.167 HD
ENDROOT
BRANCH   4   8
HETATM    8  N   UNL     1     -38.159 -49.049  13.267  1.00  0.00    -0.324 N 
HETATM    9  C   UNL     1     -38.293 -49.602  14.535  1.00  0.00     0.253 C 
HETATM   10  O   UNL     1     -39.339 -50.031  15.013  1.00  0.00    -0.270 OA
HETATM   11  H   UNL     1     -37.206 -48.889  12.952  1.00  0.00     0.169 HD
BRANCH   9  12
HETATM   12  C   UNL     1     -36.948 -49.757  15.271  1.00  0.00     0.237 C 
HETATM   13  C   UNL     1     -37.136 -50.524  16.591  1.00  0.00     0.209 C 
HETATM   14  O   UNL     1     -37.679 -49.685  17.621  1.00  0.00    -0.386 OA
HETATM   15  C   UNL     1     -36.847 -48.540  17.818  1.00  0.00     0.193 C 
HETATM   16  C   UNL     1     -36.737 -47.744  16.522  1.00  0.00     0.195 C 
HETATM   17  O   UNL     1     -36.210 -48.541  15.450  1.00  0.00    -0.372 OA
ENDBRANCH   9  12
ENDBRANCH   4   8
BRANCH   1  18
HETATM   18  O   UNL     1     -42.284 -48.010   9.723  1.00  0.00    -0.330 OA
BRANCH  18  19
HETATM   19  C   UNL     1     -42.970 -46.791  10.042  1.00  0.00     0.262 C 
BRANCH  19  20
HETATM   20  C   UNL     1     -43.870 -46.410   8.875  1.00  0.00     0.322 C 
HETATM   21  F   UNL     1     -43.203 -46.565   7.696  1.00  0.00    -0.198 F 
HETATM   22  F   UNL     1     -44.203 -45.089   8.945  1.00  0.00    -0.198 F 
BRANCH  20  23
HETATM   23  C   UNL     1     -45.137 -47.248   8.851  1.00  0.00     0.427 C 
HETATM   24  F   UNL     1     -45.015 -48.287   7.984  1.00  0.00    -0.208 F 
HETATM   25  F   UNL     1     -45.372 -47.801  10.071  1.00  0.00    -0.208 F 
ENDBRANCH  20  23
ENDBRANCH  19  20
ENDBRANCH  18  19
ENDBRANCH   1  18
TORSDOF 6
ENDMDL
MODEL 9
REMARK VINA RESULT:      -6.0      5.834      8.679
REMARK  6 active torsions:
REMARK  status: ('A' for Active; 'I' for Inactive)
REMARK    1  A    between atoms: C_2  and  C_4 
REMARK    2  A    between atoms: C_4  and  C_7 
REMARK    3  A    between atoms: C_7  and  O_8 
REMARK    4  A    between atoms: O_8  and  C_9 
REMARK    5  A    between atoms: C_12  and  N_13 
REMARK       I    between atoms: N_13  and  C_14 
REMARK    6  A    between atoms: C_14  and  C_16 
ROOT
HETATM    1  C   UNL     1     -41.921 -45.899  10.516  1.00  0.00     0.142 A 
HETATM    2  C   UNL     1     -40.566 -45.688  10.362  1.00  0.00     0.058 A 
HETATM    3  C   UNL     1     -40.044 -44.443  10.706  1.00  0.00     0.035 A 
HETATM    4  C   UNL     1     -40.880 -43.452  11.213  1.00  0.00     0.050 A 
HETATM    5  C   UNL     1     -42.227 -43.784  11.363  1.00  0.00     0.119 A 
HETATM    6  N   UNL     1     -42.773 -44.980  11.017  1.00  0.00    -0.345 N 
ATOM      7  HN  UNL     1     -43.769 -45.172  11.129  1.00  0.00     0.167 HD
ENDROOT
BRANCH   4   8
HETATM    8  N   UNL     1     -40.424 -42.170  11.592  1.00  0.00    -0.324 N 
HETATM    9  C   UNL     1     -39.941 -41.818  12.847  1.00  0.00     0.253 C 
HETATM   10  O   UNL     1     -39.712 -42.602  13.763  1.00  0.00    -0.270 OA
HETATM   11  H   UNL     1     -40.408 -41.435  10.889  1.00  0.00     0.169 HD
BRANCH   9  12
HETATM   12  C   UNL     1     -39.582 -40.323  12.958  1.00  0.00     0.237 C 
HETATM   13  C   UNL     1     -39.658 -39.853  14.420  1.00  0.00     0.209 C 
HETATM   14  O   UNL     1     -41.013 -39.627  14.837  1.00  0.00    -0.386 OA
HETATM   15  C   UNL     1     -41.647 -38.683  13.971  1.00  0.00     0.193 C 
HETATM   16  C   UNL     1     -41.637 -39.200  12.537  1.00  0.00     0.195 C 
HETATM   17  O   UNL     1     -40.303 -39.457  12.071  1.00  0.00    -0.372 OA
ENDBRANCH   9  12
ENDBRANCH   4   8
BRANCH   1  18
HETATM   18  O   UNL     1     -42.381 -47.153  10.180  1.00  0.00    -0.330 OA
BRANCH  18  19
HETATM   19  C   UNL     1     -43.795 -47.295  10.373  1.00  0.00     0.262 C 
BRANCH  19  20
HETATM   20  C   UNL     1     -44.481 -47.314   9.014  1.00  0.00     0.322 C 
HETATM   21  F   UNL     1     -44.907 -46.061   8.685  1.00  0.00    -0.198 F 
HETATM   22  F   UNL     1     -45.600 -48.090   9.060  1.00  0.00    -0.198 F 
BRANCH  20  23
HETATM   23  C   UNL     1     -43.552 -47.831   7.929  1.00  0.00     0.427 C 
HETATM   24  F   UNL     1     -44.235 -48.576   7.021  1.00  0.00    -0.208 F 
HETATM   25  F   UNL     1     -43.001 -46.800   7.234  1.00  0.00    -0.208 F 
ENDBRANCH  20  23
ENDBRANCH  19  20
ENDBRANCH  18  19
ENDBRANCH   1  18
TORSDOF 6
ENDMDL
