MODEL 1
REMARK VINA RESULT:      -5.9      0.000      0.000
REMARK  4 active torsions:
REMARK  status: ('A' for Active; 'I' for Inactive)
REMARK    1  A    between atoms: C_2  and  C_5 
REMARK    2  A    between atoms: C_10  and  N_11 
REMARK       I    between atoms: N_11  and  C_12 
REMARK    3  A    between atoms: C_12  and  C_14 
REMARK    4  A    between atoms: C_14  and  N_15 
ROOT
HETATM    1  N   UNL     1     -43.070 -51.416  13.093  1.00  0.00    -0.354 N 
HETATM    2  C   UNL     1     -42.519 -50.149  12.981  1.00  0.00     0.237 C 
HETATM    3  O   UNL     1     -42.939 -49.186  13.617  1.00  0.00    -0.272 OA
HETATM    4  H   UNL     1     -42.820 -52.109  12.393  1.00  0.00     0.162 HD
ENDROOT
BRANCH   1   5
HETATM    5  C   UNL     1     -44.232 -51.667  13.938  1.00  0.00     0.097 C 
HETATM    6  C   UNL     1     -44.192 -53.044  14.633  1.00  0.00     0.116 C 
HETATM    7  C   UNL     1     -45.418 -53.185  15.551  1.00  0.00     0.015 C 
HETATM    8  C   UNL     1     -46.738 -52.964  14.814  1.00  0.00     0.001 C 
HETATM    9  C   UNL     1     -46.765 -51.624  14.089  1.00  0.00     0.002 C 
HETATM   10  C   UNL     1     -45.551 -51.429  13.180  1.00  0.00     0.026 C 
BRANCH   6  11
HETATM   11  C   UNL     1     -44.042 -54.222  13.670  1.00  0.00     0.393 C 
HETATM   12  F   UNL     1     -44.686 -54.032  12.499  1.00  0.00    -0.171 F 
HETATM   13  F   UNL     1     -44.563 -55.342  14.228  1.00  0.00    -0.171 F 
HETATM   14  F   UNL     1     -42.753 -54.507  13.383  1.00  0.00    -0.171 F 
ENDBRANCH   6  11
ENDBRANCH   1   5
BRANCH   2  15
HETATM   15  C   UNL     1     -41.354 -50.031  12.030  1.00  0.00     0.252 C 
BRANCH  15  16
HETATM   16  N   UNL     1     -41.451 -48.823  11.244  1.00  0.00    -0.278 N 
HETATM   17  C   UNL     1     -40.532 -47.827  11.119  1.00  0.00     0.201 A 
HETATM   18  N   UNL     1     -41.019 -46.877  10.354  1.00  0.00    -0.346 N 
HETATM   19  C   UNL     1     -42.262 -47.344  10.035  1.00  0.00     0.198 A 
ATOM     20  HN  UNL     1     -40.577 -46.003  10.067  1.00  0.00     0.167 HD
HETATM   21  N   UNL     1     -42.579 -48.529  10.565  1.00  0.00    -0.293 N 
ATOM     22  HN  UNL     1     -43.442 -49.067  10.479  1.00  0.00     0.188 HD
ENDBRANCH  15  16
ENDBRANCH   2  15
TORSDOF 4
ENDMDL
MODEL 2
REMARK VINA RESULT:      -5.8      2.563      3.385
REMARK  4 active torsions:
REMARK  status: ('A' for Active; 'I' for Inactive)
REMARK    1  A    between atoms: C_2  and  C_5 
REMARK    2  A    between atoms: C_10  and  N_11 
REMARK       I    between atoms: N_11  and  C_12 
REMARK    3  A    between atoms: C_12  and  C_14 
REMARK    4  A    between atoms: C_14  and  N_15 
ROOT
HETATM    1  N   UNL     1     -42.723 -51.702  12.455  1.00  0.00    -0.354 N 
HETATM    2  C   UNL     1     -41.414 -51.526  12.035  1.00  0.00     0.237 C 
HETATM    3  O   UNL     1     -40.616 -52.455  11.945  1.00  0.00    -0.272 OA
HETATM    4  H   UNL     1     -43.259 -50.878  12.708  1.00  0.00     0.162 HD
ENDROOT
BRANCH   1   5
HETATM    5  C   UNL     1     -43.215 -53.010  12.877  1.00  0.00     0.097 C 
HETATM    6  C   UNL     1     -44.736 -53.178  12.681  1.00  0.00     0.116 C 
HETATM    7  C   UNL     1     -45.145 -54.604  13.086  1.00  0.00     0.015 C 
HETATM    8  C   UNL     1     -44.717 -54.962  14.508  1.00  0.00     0.001 C 
HETATM    9  C   UNL     1     -43.222 -54.755  14.719  1.00  0.00     0.002 C 
HETATM   10  C   UNL     1     -42.764 -53.355  14.308  1.00  0.00     0.026 C 
BRANCH   6  11
HETATM   11  C   UNL     1     -45.575 -52.108  13.379  1.00  0.00     0.393 C 
HETATM   12  F   UNL     1     -45.028 -51.680  14.537  1.00  0.00    -0.171 F 
HETATM   13  F   UNL     1     -46.798 -52.606  13.683  1.00  0.00    -0.171 F 
HETATM   14  F   UNL     1     -45.792 -51.021  12.606  1.00  0.00    -0.171 F 
ENDBRANCH   6  11
ENDBRANCH   1   5
BRANCH   2  15
HETATM   15  C   UNL     1     -41.034 -50.109  11.681  1.00  0.00     0.252 C 
BRANCH  15  16
HETATM   16  N   UNL     1     -39.617 -49.895  11.864  1.00  0.00    -0.278 N 
HETATM   17  C   UNL     1     -38.980 -49.381  12.951  1.00  0.00     0.201 A 
HETATM   18  N   UNL     1     -37.692 -49.300  12.705  1.00  0.00    -0.346 N 
HETATM   19  C   UNL     1     -37.591 -49.779  11.430  1.00  0.00     0.198 A 
ATOM     20  HN  UNL     1     -36.949 -48.962  13.316  1.00  0.00     0.167 HD
HETATM   21  N   UNL     1     -38.746 -50.148  10.867  1.00  0.00    -0.293 N 
ATOM     22  HN  UNL     1     -38.921 -50.521   9.933  1.00  0.00     0.188 HD
ENDBRANCH  15  16
ENDBRANCH   2  15
TORSDOF 4
ENDMDL
MODEL 3
REMARK VINA RESULT:      -5.8      2.078      2.987
REMARK  4 active torsions:
REMARK  status: ('A' for Active; 'I' for Inactive)
REMARK    1  A    between atoms: C_2  and  C_5 
REMARK    2  A    between atoms: C_10  and  N_11 
REMARK       I    between atoms: N_11  and  C_12 
REMARK    3  A    between atoms: C_12  and  C_14 
REMARK    4  A    between atoms: C_14  and  N_15 
ROOT
HETATM    1  N   UNL     1     -43.700 -50.270  12.702  1.00  0.00    -0.354 N 
HETATM    2  C   UNL     1     -42.663 -49.548  12.135  1.00  0.00     0.237 C 
HETATM    3  O   UNL     1     -41.587 -50.059  11.833  1.00  0.00    -0.272 OA
HETATM    4  H   UNL     1     -44.470 -49.755  13.118  1.00  0.00     0.162 HD
ENDROOT
BRANCH   1   5
HETATM    5  C   UNL     1     -43.550 -51.684  13.032  1.00  0.00     0.097 C 
HETATM    6  C   UNL     1     -44.816 -52.514  12.733  1.00  0.00     0.116 C 
HETATM    7  C   UNL     1     -44.537 -53.994  13.045  1.00  0.00     0.015 C 
HETATM    8  C   UNL     1     -44.042 -54.215  14.474  1.00  0.00     0.001 C 
HETATM    9  C   UNL     1     -42.818 -53.363  14.788  1.00  0.00     0.002 C 
HETATM   10  C   UNL     1     -43.042 -51.884  14.471  1.00  0.00     0.026 C 
BRANCH   6  11
HETATM   11  C   UNL     1     -46.077 -51.998  13.425  1.00  0.00     0.393 C 
HETATM   12  F   UNL     1     -46.917 -52.986  13.798  1.00  0.00    -0.171 F 
HETATM   13  F   UNL     1     -46.767 -51.191  12.583  1.00  0.00    -0.171 F 
HETATM   14  F   UNL     1     -45.809 -51.257  14.523  1.00  0.00    -0.171 F 
ENDBRANCH   6  11
ENDBRANCH   1   5
BRANCH   2  15
HETATM   15  C   UNL     1     -42.945 -48.085  11.900  1.00  0.00     0.252 C 
BRANCH  15  16
HETATM   16  N   UNL     1     -43.326 -47.847  10.528  1.00  0.00    -0.278 N 
HETATM   17  C   UNL     1     -44.529 -47.422  10.052  1.00  0.00     0.201 A 
HETATM   18  N   UNL     1     -44.489 -47.380   8.740  1.00  0.00    -0.346 N 
HETATM   19  C   UNL     1     -43.221 -47.800   8.456  1.00  0.00     0.198 A 
ATOM     20  HN  UNL     1     -45.225 -47.101   8.091  1.00  0.00     0.167 HD
HETATM   21  N   UNL     1     -42.471 -48.109   9.518  1.00  0.00    -0.293 N 
ATOM     22  HN  UNL     1     -41.510 -48.450   9.556  1.00  0.00     0.188 HD
ENDBRANCH  15  16
ENDBRANCH   2  15
TORSDOF 4
ENDMDL
MODEL 4
REMARK VINA RESULT:      -5.7      5.518      6.419
REMARK  4 active torsions:
REMARK  status: ('A' for Active; 'I' for Inactive)
REMARK    1  A    between atoms: C_2  and  C_5 
REMARK    2  A    between atoms: C_10  and  N_11 
REMARK       I    between atoms: N_11  and  C_12 
REMARK    3  A    between atoms: C_12  and  C_14 
REMARK    4  A    between atoms: C_14  and  N_15 
ROOT
HETATM    1  N   UNL     1     -39.865 -48.103  11.294  1.00  0.00    -0.354 N 
HETATM    2  C   UNL     1     -41.224 -47.994  11.046  1.00  0.00     0.237 C 
HETATM    3  O   UNL     1     -42.022 -48.885  11.327  1.00  0.00    -0.272 OA
HETATM    4  H   UNL     1     -39.243 -47.433  10.851  1.00  0.00     0.162 HD
ENDROOT
BRANCH   1   5
HETATM    5  C   UNL     1     -39.291 -49.321  11.856  1.00  0.00     0.097 C 
HETATM    6  C   UNL     1     -39.455 -49.419  13.387  1.00  0.00     0.116 C 
HETATM    7  C   UNL     1     -38.884 -50.762  13.873  1.00  0.00     0.015 C 
HETATM    8  C   UNL     1     -37.433 -50.977  13.448  1.00  0.00     0.001 C 
HETATM    9  C   UNL     1     -37.257 -50.837  11.940  1.00  0.00     0.002 C 
HETATM   10  C   UNL     1     -37.832 -49.524  11.407  1.00  0.00     0.026 C 
BRANCH   6  11
HETATM   11  C   UNL     1     -38.881 -48.227  14.152  1.00  0.00     0.393 C 
HETATM   12  F   UNL     1     -37.728 -47.765  13.622  1.00  0.00    -0.171 F 
HETATM   13  F   UNL     1     -38.608 -48.587  15.430  1.00  0.00    -0.171 F 
HETATM   14  F   UNL     1     -39.739 -47.187  14.228  1.00  0.00    -0.171 F 
ENDBRANCH   6  11
ENDBRANCH   1   5
BRANCH   2  15
HETATM   15  C   UNL     1     -41.665 -46.697  10.414  1.00  0.00     0.252 C 
BRANCH  15  16
HETATM   16  N   UNL     1     -42.735 -46.922   9.469  1.00  0.00    -0.278 N 
HETATM   17  C   UNL     1     -43.890 -46.216   9.326  1.00  0.00     0.201 A 
HETATM   18  N   UNL     1     -44.626 -46.769   8.389  1.00  0.00    -0.346 N 
HETATM   19  C   UNL     1     -43.868 -47.831   7.988  1.00  0.00     0.198 A 
ATOM     20  HN  UNL     1     -45.541 -46.477   8.045  1.00  0.00     0.167 HD
HETATM   21  N   UNL     1     -42.703 -47.974   8.627  1.00  0.00    -0.293 N 
ATOM     22  HN  UNL     1     -41.983 -48.688   8.510  1.00  0.00     0.188 HD
ENDBRANCH  15  16
ENDBRANCH   2  15
TORSDOF 4
ENDMDL
MODEL 5
REMARK VINA RESULT:      -5.7      6.207      7.450
REMARK  4 active torsions:
REMARK  status: ('A' for Active; 'I' for Inactive)
REMARK    1  A    between atoms: C_2  and  C_5 
REMARK    2  A    between atoms: C_10  and  N_11 
REMARK       I    between atoms: N_11  and  C_12 
REMARK    3  A    between atoms: C_12  and  C_14 
REMARK    4  A    between atoms: C_14  and  N_15 
ROOT
HETATM    1  N   UNL     1     -41.275 -47.554  10.465  1.00  0.00    -0.354 N 
HETATM    2  C   UNL     1     -42.640 -47.751  10.327  1.00  0.00     0.237 C 
HETATM    3  O   UNL     1     -43.384 -47.934  11.287  1.00  0.00    -0.272 OA
HETATM    4  H   UNL     1     -40.696 -47.620   9.633  1.00  0.00     0.162 HD
ENDROOT
BRANCH   1   5
HETATM    5  C   UNL     1     -40.628 -47.614  11.772  1.00  0.00     0.097 C 
HETATM    6  C   UNL     1     -40.542 -46.242  12.470  1.00  0.00     0.116 C 
HETATM    7  C   UNL     1     -39.911 -46.419  13.862  1.00  0.00     0.015 C 
HETATM    8  C   UNL     1     -38.550 -47.112  13.811  1.00  0.00     0.001 C 
HETATM    9  C   UNL     1     -38.622 -48.449  13.082  1.00  0.00     0.002 C 
HETATM   10  C   UNL     1     -39.264 -48.324  11.700  1.00  0.00     0.026 C 
BRANCH   6  11
HETATM   11  C   UNL     1     -39.840 -45.165  11.643  1.00  0.00     0.393 C 
HETATM   12  F   UNL     1     -38.916 -44.478  12.346  1.00  0.00    -0.171 F 
HETATM   13  F   UNL     1     -40.747 -44.262  11.197  1.00  0.00    -0.171 F 
HETATM   14  F   UNL     1     -39.229 -45.660  10.544  1.00  0.00    -0.171 F 
ENDBRANCH   6  11
ENDBRANCH   1   5
BRANCH   2  15
HETATM   15  C   UNL     1     -43.160 -47.713   8.911  1.00  0.00     0.252 C 
BRANCH  15  16
HETATM   16  N   UNL     1     -44.546 -47.308   8.881  1.00  0.00    -0.278 N 
HETATM   17  C   UNL     1     -45.050 -46.046   8.799  1.00  0.00     0.201 A 
HETATM   18  N   UNL     1     -46.362 -46.096   8.851  1.00  0.00    -0.346 N 
HETATM   19  C   UNL     1     -46.615 -47.432   8.973  1.00  0.00     0.198 A 
ATOM     20  HN  UNL     1     -47.028 -45.325   8.811  1.00  0.00     0.167 HD
HETATM   21  N   UNL     1     -45.534 -48.217   9.006  1.00  0.00    -0.293 N 
ATOM     22  HN  UNL     1     -45.472 -49.231   9.101  1.00  0.00     0.188 HD
ENDBRANCH  15  16
ENDBRANCH   2  15
TORSDOF 4
ENDMDL
MODEL 6
REMARK VINA RESULT:      -5.7      4.356      5.508
REMARK  4 active torsions:
REMARK  status: ('A' for Active; 'I' for Inactive)
REMARK    1  A    between atoms: C_2  and  C_5 
REMARK    2  A    between atoms: C_10  and  N_11 
REMARK       I    between atoms: N_11  and  C_12 
REMARK    3  A    between atoms: C_12  and  C_14 
REMARK    4  A    between atoms: C_14  and  N_15 
ROOT
HETATM    1  N   UNL     1     -41.491 -49.230  10.890  1.00  0.00    -0.354 N 
HETATM    2  C   UNL     1     -42.454 -48.235  10.846  1.00  0.00     0.237 C 
HETATM    3  O   UNL     1     -43.113 -47.906  11.829  1.00  0.00    -0.272 OA
HETATM    4  H   UNL     1     -41.139 -49.595  10.010  1.00  0.00     0.162 HD
ENDROOT
BRANCH   1   5
HETATM    5  C   UNL     1     -41.244 -49.994  12.109  1.00  0.00     0.097 C 
HETATM    6  C   UNL     1     -40.115 -49.402  12.978  1.00  0.00     0.116 C 
HETATM    7  C   UNL     1     -39.979 -50.231  14.266  1.00  0.00     0.015 C 
HETATM    8  C   UNL     1     -39.757 -51.718  13.993  1.00  0.00     0.001 C 
HETATM    9  C   UNL     1     -40.846 -52.298  13.097  1.00  0.00     0.002 C 
HETATM   10  C   UNL     1     -41.034 -51.490  11.812  1.00  0.00     0.026 C 
BRANCH   6  11
HETATM   11  C   UNL     1     -38.785 -49.238  12.244  1.00  0.00     0.393 C 
HETATM   12  F   UNL     1     -38.503 -50.273  11.425  1.00  0.00    -0.171 F 
HETATM   13  F   UNL     1     -37.771 -49.157  13.139  1.00  0.00    -0.171 F 
HETATM   14  F   UNL     1     -38.727 -48.108  11.505  1.00  0.00    -0.171 F 
ENDBRANCH   6  11
ENDBRANCH   1   5
BRANCH   2  15
HETATM   15  C   UNL     1     -42.635 -47.568   9.505  1.00  0.00     0.252 C 
BRANCH  15  16
HETATM   16  N   UNL     1     -44.015 -47.200   9.294  1.00  0.00    -0.278 N 
HETATM   17  C   UNL     1     -44.509 -46.012   8.850  1.00  0.00     0.201 A 
HETATM   18  N   UNL     1     -45.822 -46.060   8.844  1.00  0.00    -0.346 N 
HETATM   19  C   UNL     1     -46.087 -47.317   9.306  1.00  0.00     0.198 A 
ATOM     20  HN  UNL     1     -46.482 -45.334   8.563  1.00  0.00     0.167 HD
HETATM   21  N   UNL     1     -45.012 -48.053   9.606  1.00  0.00    -0.293 N 
ATOM     22  HN  UNL     1     -44.961 -49.004   9.972  1.00  0.00     0.188 HD
ENDBRANCH  15  16
ENDBRANCH   2  15
TORSDOF 4
ENDMDL
MODEL 7
REMARK VINA RESULT:      -5.6      1.933      2.581
REMARK  4 active torsions:
REMARK  status: ('A' for Active; 'I' for Inactive)
REMARK    1  A    between atoms: C_2  and  C_5 
REMARK    2  A    between atoms: C_10  and  N_11 
REMARK       I    between atoms: N_11  and  C_12 
REMARK    3  A    between atoms: C_12  and  C_14 
REMARK    4  A    between atoms: C_14  and  N_15 
ROOT
HETATM    1  N   UNL     1     -42.718 -49.892  12.124  1.00  0.00    -0.354 N 
HETATM    2  C   UNL     1     -42.697 -48.510  12.021  1.00  0.00     0.237 C 
HETATM    3  O   UNL     1     -42.994 -47.772  12.957  1.00  0.00    -0.272 OA
HETATM    4  H   UNL     1     -42.671 -50.436  11.267  1.00  0.00     0.162 HD
ENDROOT
BRANCH   1   5
HETATM    5  C   UNL     1     -43.157 -50.556  13.347  1.00  0.00     0.097 C 
HETATM    6  C   UNL     1     -42.338 -51.820  13.678  1.00  0.00     0.116 C 
HETATM    7  C   UNL     1     -42.826 -52.406  15.014  1.00  0.00     0.015 C 
HETATM    8  C   UNL     1     -44.328 -52.690  15.022  1.00  0.00     0.001 C 
HETATM    9  C   UNL     1     -45.140 -51.455  14.651  1.00  0.00     0.002 C 
HETATM   10  C   UNL     1     -44.673 -50.823  13.338  1.00  0.00     0.026 C 
BRANCH   6  11
HETATM   11  C   UNL     1     -42.314 -52.859  12.557  1.00  0.00     0.393 C 
HETATM   12  F   UNL     1     -43.498 -52.972  11.918  1.00  0.00    -0.171 F 
HETATM   13  F   UNL     1     -42.025 -54.081  13.066  1.00  0.00    -0.171 F 
HETATM   14  F   UNL     1     -41.371 -52.606  11.624  1.00  0.00    -0.171 F 
ENDBRANCH   6  11
ENDBRANCH   1   5
BRANCH   2  15
HETATM   15  C   UNL     1     -42.272 -47.967  10.679  1.00  0.00     0.252 C 
BRANCH  15  16
HETATM   16  N   UNL     1     -43.413 -47.782   9.813  1.00  0.00    -0.278 N 
HETATM   17  C   UNL     1     -43.428 -47.678   8.456  1.00  0.00     0.201 A 
HETATM   18  N   UNL     1     -44.659 -47.465   8.048  1.00  0.00    -0.346 N 
HETATM   19  C   UNL     1     -45.370 -47.441   9.214  1.00  0.00     0.198 A 
ATOM     20  HN  UNL     1     -45.000 -47.346   7.094  1.00  0.00     0.167 HD
HETATM   21  N   UNL     1     -44.650 -47.620  10.325  1.00  0.00    -0.293 N 
ATOM     22  HN  UNL     1     -44.954 -47.632  11.299  1.00  0.00     0.188 HD
ENDBRANCH  15  16
ENDBRANCH   2  15
TORSDOF 4
ENDMDL
MODEL 8
REMARK VINA RESULT:      -5.5      1.559      2.098
REMARK  4 active torsions:
REMARK  status: ('A' for Active; 'I' for Inactive)
REMARK    1  A    between atoms: C_2  and  C_5 
REMARK    2  A    between atoms: C_10  and  N_11 
REMARK       I    between atoms: N_11  and  C_12 
REMARK    3  A    between atoms: C_12  and  C_14 
REMARK    4  A    between atoms: C_14  and  N_15 
ROOT
HETATM    1  N   UNL     1     -43.389 -51.896  12.667  1.00  0.00    -0.354 N 
HETATM    2  C   UNL     1     -42.064 -51.574  12.910  1.00  0.00     0.237 C 
HETATM    3  O   UNL     1     -41.659 -51.221  14.015  1.00  0.00    -0.272 OA
HETATM    4  H   UNL     1     -43.694 -51.971  11.702  1.00  0.00     0.162 HD
ENDROOT
BRANCH   1   5
HETATM    5  C   UNL     1     -44.403 -51.775  13.710  1.00  0.00     0.097 C 
HETATM    6  C   UNL     1     -44.384 -52.946  14.714  1.00  0.00     0.116 C 
HETATM    7  C   UNL     1     -45.435 -52.694  15.808  1.00  0.00     0.015 C 
HETATM    8  C   UNL     1     -46.835 -52.461  15.242  1.00  0.00     0.001 C 
HETATM    9  C   UNL     1     -46.851 -51.334  14.216  1.00  0.00     0.002 C 
HETATM   10  C   UNL     1     -45.803 -51.531  13.119  1.00  0.00     0.026 C 
BRANCH   6  11
HETATM   11  C   UNL     1     -44.531 -54.323  14.067  1.00  0.00     0.393 C 
HETATM   12  F   UNL     1     -45.227 -55.193  14.830  1.00  0.00    -0.171 F 
HETATM   13  F   UNL     1     -43.308 -54.870  13.863  1.00  0.00    -0.171 F 
HETATM   14  F   UNL     1     -45.129 -54.275  12.856  1.00  0.00    -0.171 F 
ENDBRANCH   6  11
ENDBRANCH   1   5
BRANCH   2  15
HETATM   15  C   UNL     1     -41.140 -51.696  11.723  1.00  0.00     0.252 C 
BRANCH  15  16
HETATM   16  N   UNL     1     -40.232 -50.575  11.660  1.00  0.00    -0.278 N 
HETATM   17  C   UNL     1     -40.484 -49.315  11.212  1.00  0.00     0.201 A 
HETATM   18  N   UNL     1     -39.382 -48.602  11.269  1.00  0.00    -0.346 N 
HETATM   19  C   UNL     1     -38.467 -49.489  11.760  1.00  0.00     0.198 A 
ATOM     20  HN  UNL     1     -39.243 -47.626  11.009  1.00  0.00     0.167 HD
HETATM   21  N   UNL     1     -38.936 -50.715  12.007  1.00  0.00    -0.293 N 
ATOM     22  HN  UNL     1     -38.446 -51.537  12.362  1.00  0.00     0.188 HD
ENDBRANCH  15  16
ENDBRANCH   2  15
TORSDOF 4
ENDMDL
MODEL 9
REMARK VINA RESULT:      -5.4      2.298      2.996
REMARK  4 active torsions:
REMARK  status: ('A' for Active; 'I' for Inactive)
REMARK    1  A    between atoms: C_2  and  C_5 
REMARK    2  A    between atoms: C_10  and  N_11 
REMARK       I    between atoms: N_11  and  C_12 
REMARK    3  A    between atoms: C_12  and  C_14 
REMARK    4  A    between atoms: C_14  and  N_15 
ROOT
HETATM    1  N   UNL     1     -42.252 -51.527  12.163  1.00  0.00    -0.354 N 
HETATM    2  C   UNL     1     -42.054 -50.177  12.405  1.00  0.00     0.237 C 
HETATM    3  O   UNL     1     -42.495 -49.611  13.402  1.00  0.00    -0.272 OA
HETATM    4  H   UNL     1     -42.049 -51.880  11.232  1.00  0.00     0.162 HD
ENDROOT
BRANCH   1   5
HETATM    5  C   UNL     1     -43.057 -52.350  13.060  1.00  0.00     0.097 C 
HETATM    6  C   UNL     1     -42.237 -52.983  14.202  1.00  0.00     0.116 C 
HETATM    7  C   UNL     1     -43.180 -53.769  15.129  1.00  0.00     0.015 C 
HETATM    8  C   UNL     1     -44.008 -54.814  14.383  1.00  0.00     0.001 C 
HETATM    9  C   UNL     1     -44.786 -54.200  13.225  1.00  0.00     0.002 C 
HETATM   10  C   UNL     1     -43.891 -53.388  12.288  1.00  0.00     0.026 C 
BRANCH   6  11
HETATM   11  C   UNL     1     -41.051 -53.822  13.725  1.00  0.00     0.393 C 
HETATM   12  F   UNL     1     -39.969 -53.078  13.415  1.00  0.00    -0.171 F 
HETATM   13  F   UNL     1     -41.392 -54.507  12.606  1.00  0.00    -0.171 F 
HETATM   14  F   UNL     1     -40.663 -54.747  14.630  1.00  0.00    -0.171 F 
ENDBRANCH   6  11
ENDBRANCH   1   5
BRANCH   2  15
HETATM   15  C   UNL     1     -41.246 -49.444  11.363  1.00  0.00     0.252 C 
BRANCH  15  16
HETATM   16  N   UNL     1     -39.836 -49.491  11.676  1.00  0.00    -0.278 N 
HETATM   17  C   UNL     1     -39.195 -48.943  12.744  1.00  0.00     0.201 A 
HETATM   18  N   UNL     1     -37.904 -49.165  12.639  1.00  0.00    -0.346 N 
HETATM   19  C   UNL     1     -37.805 -49.859  11.467  1.00  0.00     0.198 A 
ATOM     20  HN  UNL     1     -37.158 -48.886  13.277  1.00  0.00     0.167 HD
HETATM   21  N   UNL     1     -38.962 -50.076  10.834  1.00  0.00    -0.293 N 
ATOM     22  HN  UNL     1     -39.135 -50.556   9.950  1.00  0.00     0.188 HD
ENDBRANCH  15  16
ENDBRANCH   2  15
TORSDOF 4
ENDMDL
