MODEL 1
REMARK VINA RESULT:      -5.9      0.000      0.000
REMARK  6 active torsions:
REMARK  status: ('A' for Active; 'I' for Inactive)
REMARK    1  A    between atoms: C_8  and  C_9 
REMARK    2  A    between atoms: C_9  and  C_10 
REMARK       I    between atoms: C_10  and  N_12 
REMARK    3  A    between atoms: N_12  and  C_13 
REMARK    4  A    between atoms: C_13  and  C_15 
REMARK    5  A    between atoms: C_13  and  C_17 
REMARK    6  A    between atoms: C_15  and  O_16 
ROOT
HETATM    1  C   UNL     1     -41.953 -48.621  11.684  1.00  0.00     0.222 C 
HETATM    2  O   UNL     1     -41.042 -48.263  12.426  1.00  0.00    -0.273 OA
HETATM    3  N   UNL     1     -42.979 -49.456  12.094  1.00  0.00    -0.349 N 
HETATM    4  H   UNL     1     -43.672 -49.722  11.406  1.00  0.00     0.163 HD
ENDROOT
BRANCH   3   5
HETATM    5  C   UNL     1     -43.101 -50.079  13.454  1.00  0.00     0.054 C 
HETATM    6  C   UNL     1     -41.958 -51.082  13.693  1.00  0.00     0.041 C 
BRANCH   5   7
HETATM    7  C   UNL     1     -43.008 -48.954  14.532  1.00  0.00     0.195 C 
BRANCH   7   8
HETATM    8  O   UNL     1     -41.760 -49.018  15.227  1.00  0.00    -0.398 OA
HETATM    9  H   UNL     1     -41.605 -48.128  15.584  1.00  0.00     0.209 HD
ENDBRANCH   7   8
ENDBRANCH   5   7
BRANCH   5  10
HETATM   10  C   UNL     1     -44.512 -50.789  13.521  1.00  0.00     0.015 C 
HETATM   11  C   UNL     1     -44.524 -52.207  12.904  1.00  0.00     0.007 C 
HETATM   12  C   UNL     1     -45.955 -52.734  12.789  1.00  0.00     0.000 C 
HETATM   13  C   UNL     1     -46.663 -52.754  14.139  1.00  0.00     0.000 C 
HETATM   14  C   UNL     1     -46.573 -51.413  14.860  1.00  0.00     0.000 C 
HETATM   15  C   UNL     1     -45.136 -50.886  14.932  1.00  0.00     0.007 C 
ENDBRANCH   5  10
ENDBRANCH   3   5
BRANCH   1  16
HETATM   16  C   UNL     1     -42.029 -48.195  10.224  1.00  0.00     0.146 C 
BRANCH  16  17
HETATM   17  C   UNL     1     -42.723 -46.892   9.981  1.00  0.00     0.006 A 
HETATM   18  C   UNL     1     -44.000 -46.615   9.406  1.00  0.00     0.038 A 
HETATM   19  C   UNL     1     -45.042 -47.548   8.915  1.00  0.00     0.071 C 
HETATM   20  N   UNL     1     -44.223 -45.300   9.316  1.00  0.00    -0.265 N 
HETATM   21  O   UNL     1     -43.107 -44.688   9.836  1.00  0.00    -0.242 OA
ATOM     22  HN  UNL     1     -45.052 -44.842   8.938  1.00  0.00     0.194 HD
HETATM   23  C   UNL     1     -42.215 -45.630  10.230  1.00  0.00     0.081 A 
HETATM   24  C   UNL     1     -40.953 -45.114  10.796  1.00  0.00     0.079 C 
ENDBRANCH  16  17
ENDBRANCH   1  16
TORSDOF 6
ENDMDL
MODEL 2
REMARK VINA RESULT:      -5.8      2.242      4.283
REMARK  6 active torsions:
REMARK  status: ('A' for Active; 'I' for Inactive)
REMARK    1  A    between atoms: C_8  and  C_9 
REMARK    2  A    between atoms: C_9  and  C_10 
REMARK       I    between atoms: C_10  and  N_12 
REMARK    3  A    between atoms: N_12  and  C_13 
REMARK    4  A    between atoms: C_13  and  C_15 
REMARK    5  A    between atoms: C_13  and  C_17 
REMARK    6  A    between atoms: C_15  and  O_16 
ROOT
HETATM    1  C   UNL     1     -42.128 -48.722  11.386  1.00  0.00     0.222 C 
HETATM    2  O   UNL     1     -42.452 -48.064  12.371  1.00  0.00    -0.273 OA
HETATM    3  N   UNL     1     -41.726 -50.046  11.460  1.00  0.00    -0.349 N 
HETATM    4  H   UNL     1     -41.449 -50.502  10.599  1.00  0.00     0.163 HD
ENDROOT
BRANCH   3   5
HETATM    5  C   UNL     1     -41.575 -50.839  12.725  1.00  0.00     0.054 C 
HETATM    6  C   UNL     1     -42.787 -50.617  13.650  1.00  0.00     0.041 C 
BRANCH   5   7
HETATM    7  C   UNL     1     -41.501 -52.355  12.361  1.00  0.00     0.195 C 
BRANCH   7   8
HETATM    8  O   UNL     1     -41.300 -52.532  10.957  1.00  0.00    -0.398 OA
HETATM    9  H   UNL     1     -42.171 -52.412  10.543  1.00  0.00     0.209 HD
ENDBRANCH   7   8
ENDBRANCH   5   7
BRANCH   5  10
HETATM   10  C   UNL     1     -40.232 -50.373  13.415  1.00  0.00     0.015 C 
HETATM   11  C   UNL     1     -39.774 -51.294  14.570  1.00  0.00     0.007 C 
HETATM   12  C   UNL     1     -38.612 -50.660  15.338  1.00  0.00     0.000 C 
HETATM   13  C   UNL     1     -37.430 -50.353  14.426  1.00  0.00     0.000 C 
HETATM   14  C   UNL     1     -37.842 -49.554  13.193  1.00  0.00     0.000 C 
HETATM   15  C   UNL     1     -39.030 -50.186  12.461  1.00  0.00     0.007 C 
ENDBRANCH   5  10
ENDBRANCH   3   5
BRANCH   1  16
HETATM   16  C   UNL     1     -42.115 -48.135   9.981  1.00  0.00     0.146 C 
BRANCH  16  17
HETATM   17  C   UNL     1     -42.815 -46.820   9.840  1.00  0.00     0.006 A 
HETATM   18  C   UNL     1     -44.117 -46.512   9.343  1.00  0.00     0.038 A 
HETATM   19  C   UNL     1     -45.185 -47.417   8.856  1.00  0.00     0.071 C 
HETATM   20  N   UNL     1     -44.339 -45.193   9.331  1.00  0.00    -0.265 N 
HETATM   21  O   UNL     1     -43.197 -44.610   9.828  1.00  0.00    -0.242 OA
ATOM     22  HN  UNL     1     -45.184 -44.716   9.018  1.00  0.00     0.194 HD
HETATM   23  C   UNL     1     -42.290 -45.573  10.129  1.00  0.00     0.081 A 
HETATM   24  C   UNL     1     -41.000 -45.088  10.658  1.00  0.00     0.079 C 
ENDBRANCH  16  17
ENDBRANCH   1  16
TORSDOF 6
ENDMDL
MODEL 3
REMARK VINA RESULT:      -5.7      4.440      7.183
REMARK  6 active torsions:
REMARK  status: ('A' for Active; 'I' for Inactive)
REMARK    1  A    between atoms: C_8  and  C_9 
REMARK    2  A    between atoms: C_9  and  C_10 
REMARK       I    between atoms: C_10  and  N_12 
REMARK    3  A    between atoms: N_12  and  C_13 
REMARK    4  A    between atoms: C_13  and  C_15 
REMARK    5  A    between atoms: C_13  and  C_17 
REMARK    6  A    between atoms: C_15  and  O_16 
ROOT
HETATM    1  C   UNL     1     -42.298 -53.488  15.459  1.00  0.00     0.222 C 
HETATM    2  O   UNL     1     -41.955 -54.520  16.030  1.00  0.00    -0.273 OA
HETATM    3  N   UNL     1     -41.418 -52.692  14.743  1.00  0.00    -0.349 N 
HETATM    4  H   UNL     1     -41.784 -51.843  14.329  1.00  0.00     0.163 HD
ENDROOT
BRANCH   3   5
HETATM    5  C   UNL     1     -39.943 -52.931  14.608  1.00  0.00     0.054 C 
HETATM    6  C   UNL     1     -39.222 -52.628  15.934  1.00  0.00     0.041 C 
BRANCH   5   7
HETATM    7  C   UNL     1     -39.710 -54.432  14.249  1.00  0.00     0.195 C 
BRANCH   7   8
HETATM    8  O   UNL     1     -38.655 -54.569  13.294  1.00  0.00    -0.398 OA
HETATM    9  H   UNL     1     -38.023 -53.857  13.486  1.00  0.00     0.209 HD
ENDBRANCH   7   8
ENDBRANCH   5   7
BRANCH   5  10
HETATM   10  C   UNL     1     -39.421 -51.999  13.443  1.00  0.00     0.015 C 
HETATM   11  C   UNL     1     -40.457 -50.950  12.975  1.00  0.00     0.007 C 
HETATM   12  C   UNL     1     -39.978 -50.249  11.703  1.00  0.00     0.000 C 
HETATM   13  C   UNL     1     -38.622 -49.581  11.899  1.00  0.00     0.000 C 
HETATM   14  C   UNL     1     -37.586 -50.535  12.485  1.00  0.00     0.000 C 
HETATM   15  C   UNL     1     -38.099 -51.254  13.737  1.00  0.00     0.007 C 
ENDBRANCH   5  10
ENDBRANCH   3   5
BRANCH   1  16
HETATM   16  C   UNL     1     -43.729 -52.970  15.502  1.00  0.00     0.146 C 
BRANCH  16  17
HETATM   17  C   UNL     1     -44.409 -52.880  14.172  1.00  0.00     0.006 A 
HETATM   18  C   UNL     1     -44.555 -51.778  13.278  1.00  0.00     0.038 A 
HETATM   19  C   UNL     1     -44.033 -50.394  13.384  1.00  0.00     0.071 C 
HETATM   20  N   UNL     1     -45.290 -52.106  12.210  1.00  0.00    -0.265 N 
HETATM   21  O   UNL     1     -45.633 -53.427  12.375  1.00  0.00    -0.242 OA
ATOM     22  HN  UNL     1     -45.545 -51.499  11.431  1.00  0.00     0.194 HD
HETATM   23  C   UNL     1     -45.114 -53.889  13.539  1.00  0.00     0.081 A 
HETATM   24  C   UNL     1     -45.419 -55.297  13.857  1.00  0.00     0.079 C 
ENDBRANCH  16  17
ENDBRANCH   1  16
TORSDOF 6
ENDMDL
MODEL 4
REMARK VINA RESULT:      -5.7      2.626      6.743
REMARK  6 active torsions:
REMARK  status: ('A' for Active; 'I' for Inactive)
REMARK    1  A    between atoms: C_8  and  C_9 
REMARK    2  A    between atoms: C_9  and  C_10 
REMARK       I    between atoms: C_10  and  N_12 
REMARK    3  A    between atoms: N_12  and  C_13 
REMARK    4  A    between atoms: C_13  and  C_15 
REMARK    5  A    between atoms: C_13  and  C_17 
REMARK    6  A    between atoms: C_15  and  O_16 
ROOT
HETATM    1  C   UNL     1     -42.503 -51.980  12.740  1.00  0.00     0.222 C 
HETATM    2  O   UNL     1     -41.912 -52.167  13.800  1.00  0.00    -0.273 OA
HETATM    3  N   UNL     1     -42.345 -50.833  11.979  1.00  0.00    -0.349 N 
HETATM    4  H   UNL     1     -42.895 -50.751  11.132  1.00  0.00     0.163 HD
ENDROOT
BRANCH   3   5
HETATM    5  C   UNL     1     -41.495 -49.653  12.350  1.00  0.00     0.054 C 
HETATM    6  C   UNL     1     -41.750 -49.243  13.813  1.00  0.00     0.041 C 
BRANCH   5   7
HETATM    7  C   UNL     1     -39.993 -50.051  12.201  1.00  0.00     0.195 C 
BRANCH   7   8
HETATM    8  O   UNL     1     -39.634 -50.177  10.823  1.00  0.00    -0.398 OA
HETATM    9  H   UNL     1     -38.663 -50.209  10.800  1.00  0.00     0.209 HD
ENDBRANCH   7   8
ENDBRANCH   5   7
BRANCH   5  10
HETATM   10  C   UNL     1     -41.856 -48.481  11.353  1.00  0.00     0.015 C 
HETATM   11  C   UNL     1     -43.363 -48.138  11.317  1.00  0.00     0.007 C 
HETATM   12  C   UNL     1     -43.670 -47.171  10.172  1.00  0.00     0.000 C 
HETATM   13  C   UNL     1     -42.853 -45.888  10.278  1.00  0.00     0.000 C 
HETATM   14  C   UNL     1     -41.362 -46.164  10.449  1.00  0.00     0.000 C 
HETATM   15  C   UNL     1     -41.080 -47.163  11.576  1.00  0.00     0.007 C 
ENDBRANCH   5  10
ENDBRANCH   3   5
BRANCH   1  16
HETATM   16  C   UNL     1     -43.491 -52.987  12.168  1.00  0.00     0.146 C 
BRANCH  16  17
HETATM   17  C   UNL     1     -44.653 -53.308  13.056  1.00  0.00     0.006 A 
HETATM   18  C   UNL     1     -45.974 -52.769  13.082  1.00  0.00     0.038 A 
HETATM   19  C   UNL     1     -46.604 -51.756  12.203  1.00  0.00     0.071 C 
HETATM   20  N   UNL     1     -46.697 -53.292  14.079  1.00  0.00    -0.265 N 
HETATM   21  O   UNL     1     -45.872 -54.187  14.718  1.00  0.00    -0.242 OA
ATOM     22  HN  UNL     1     -47.663 -53.072  14.316  1.00  0.00     0.194 HD
HETATM   23  C   UNL     1     -44.658 -54.198  14.114  1.00  0.00     0.081 A 
HETATM   24  C   UNL     1     -43.659 -55.106  14.711  1.00  0.00     0.079 C 
ENDBRANCH  16  17
ENDBRANCH   1  16
TORSDOF 6
ENDMDL
MODEL 5
REMARK VINA RESULT:      -5.7      2.649      4.517
REMARK  6 active torsions:
REMARK  status: ('A' for Active; 'I' for Inactive)
REMARK    1  A    between atoms: C_8  and  C_9 
REMARK    2  A    between atoms: C_9  and  C_10 
REMARK       I    between atoms: C_10  and  N_12 
REMARK    3  A    between atoms: N_12  and  C_13 
REMARK    4  A    between atoms: C_13  and  C_15 
REMARK    5  A    between atoms: C_13  and  C_17 
REMARK    6  A    between atoms: C_15  and  O_16 
ROOT
HETATM    1  C   UNL     1     -43.474 -49.839  13.935  1.00  0.00     0.222 C 
HETATM    2  O   UNL     1     -43.558 -49.917  15.157  1.00  0.00    -0.273 OA
HETATM    3  N   UNL     1     -44.103 -50.725  13.076  1.00  0.00    -0.349 N 
HETATM    4  H   UNL     1     -43.954 -50.602  12.081  1.00  0.00     0.163 HD
ENDROOT
BRANCH   3   5
HETATM    5  C   UNL     1     -44.915 -51.915  13.496  1.00  0.00     0.054 C 
HETATM    6  C   UNL     1     -46.157 -51.469  14.290  1.00  0.00     0.041 C 
BRANCH   5   7
HETATM    7  C   UNL     1     -45.391 -52.675  12.218  1.00  0.00     0.195 C 
BRANCH   7   8
HETATM    8  O   UNL     1     -46.816 -52.772  12.185  1.00  0.00    -0.398 OA
HETATM    9  H   UNL     1     -47.152 -51.886  12.397  1.00  0.00     0.209 HD
ENDBRANCH   7   8
ENDBRANCH   5   7
BRANCH   5  10
HETATM   10  C   UNL     1     -43.976 -52.840  14.369  1.00  0.00     0.015 C 
HETATM   11  C   UNL     1     -44.746 -53.794  15.312  1.00  0.00     0.007 C 
HETATM   12  C   UNL     1     -43.787 -54.481  16.285  1.00  0.00     0.000 C 
HETATM   13  C   UNL     1     -42.694 -55.253  15.555  1.00  0.00     0.000 C 
HETATM   14  C   UNL     1     -41.981 -54.398  14.511  1.00  0.00     0.000 C 
HETATM   15  C   UNL     1     -42.961 -53.690  13.571  1.00  0.00     0.007 C 
ENDBRANCH   5  10
ENDBRANCH   3   5
BRANCH   1  16
HETATM   16  C   UNL     1     -42.644 -48.767  13.242  1.00  0.00     0.146 C 
BRANCH  16  17
HETATM   17  C   UNL     1     -41.639 -49.282  12.259  1.00  0.00     0.006 A 
HETATM   18  C   UNL     1     -41.458 -48.980  10.876  1.00  0.00     0.038 A 
HETATM   19  C   UNL     1     -42.191 -48.028  10.008  1.00  0.00     0.071 C 
HETATM   20  N   UNL     1     -40.470 -49.707  10.341  1.00  0.00    -0.265 N 
HETATM   21  O   UNL     1     -39.979 -50.489  11.359  1.00  0.00    -0.242 OA
ATOM     22  HN  UNL     1     -40.147 -49.685   9.374  1.00  0.00     0.194 HD
HETATM   23  C   UNL     1     -40.671 -50.241  12.498  1.00  0.00     0.081 A 
HETATM   24  C   UNL     1     -40.261 -51.028  13.677  1.00  0.00     0.079 C 
ENDBRANCH  16  17
ENDBRANCH   1  16
TORSDOF 6
ENDMDL
MODEL 6
REMARK VINA RESULT:      -5.7      4.357      7.769
REMARK  6 active torsions:
REMARK  status: ('A' for Active; 'I' for Inactive)
REMARK    1  A    between atoms: C_8  and  C_9 
REMARK    2  A    between atoms: C_9  and  C_10 
REMARK       I    between atoms: C_10  and  N_12 
REMARK    3  A    between atoms: N_12  and  C_13 
REMARK    4  A    between atoms: C_13  and  C_15 
REMARK    5  A    between atoms: C_13  and  C_17 
REMARK    6  A    between atoms: C_15  and  O_16 
ROOT
HETATM    1  C   UNL     1     -40.468 -52.960  14.457  1.00  0.00     0.222 C 
HETATM    2  O   UNL     1     -39.833 -53.177  13.429  1.00  0.00    -0.273 OA
HETATM    3  N   UNL     1     -41.686 -52.300  14.469  1.00  0.00    -0.349 N 
HETATM    4  H   UNL     1     -42.125 -52.139  15.368  1.00  0.00     0.163 HD
ENDROOT
BRANCH   3   5
HETATM    5  C   UNL     1     -42.369 -51.715  13.268  1.00  0.00     0.054 C 
HETATM    6  C   UNL     1     -41.597 -50.486  12.752  1.00  0.00     0.041 C 
BRANCH   5   7
HETATM    7  C   UNL     1     -42.402 -52.790  12.137  1.00  0.00     0.195 C 
BRANCH   7   8
HETATM    8  O   UNL     1     -41.432 -52.499  11.129  1.00  0.00    -0.398 OA
HETATM    9  H   UNL     1     -40.808 -51.870  11.528  1.00  0.00     0.209 HD
ENDBRANCH   7   8
ENDBRANCH   5   7
BRANCH   5  10
HETATM   10  C   UNL     1     -43.839 -51.329  13.704  1.00  0.00     0.015 C 
HETATM   11  C   UNL     1     -44.938 -52.080  12.916  1.00  0.00     0.007 C 
HETATM   12  C   UNL     1     -46.317 -51.492  13.220  1.00  0.00     0.000 C 
HETATM   13  C   UNL     1     -46.635 -51.531  14.711  1.00  0.00     0.000 C 
HETATM   14  C   UNL     1     -45.521 -50.920  15.556  1.00  0.00     0.000 C 
HETATM   15  C   UNL     1     -44.145 -51.496  15.210  1.00  0.00     0.007 C 
ENDBRANCH   5  10
ENDBRANCH   3   5
BRANCH   1  16
HETATM   16  C   UNL     1     -39.962 -53.380  15.831  1.00  0.00     0.146 C 
BRANCH  16  17
HETATM   17  C   UNL     1     -40.160 -54.826  16.163  1.00  0.00     0.006 A 
HETATM   18  C   UNL     1     -41.359 -55.574  16.365  1.00  0.00     0.038 A 
HETATM   19  C   UNL     1     -42.774 -55.145  16.264  1.00  0.00     0.071 C 
HETATM   20  N   UNL     1     -41.095 -56.840  16.705  1.00  0.00    -0.265 N 
HETATM   21  O   UNL     1     -39.724 -56.953  16.722  1.00  0.00    -0.242 OA
ATOM     22  HN  UNL     1     -41.772 -57.575  16.909  1.00  0.00     0.194 HD
HETATM   23  C   UNL     1     -39.167 -55.758  16.402  1.00  0.00     0.081 A 
HETATM   24  C   UNL     1     -37.692 -55.726  16.400  1.00  0.00     0.079 C 
ENDBRANCH  16  17
ENDBRANCH   1  16
TORSDOF 6
ENDMDL
MODEL 7
REMARK VINA RESULT:      -5.6      3.164      4.884
REMARK  6 active torsions:
REMARK  status: ('A' for Active; 'I' for Inactive)
REMARK    1  A    between atoms: C_8  and  C_9 
REMARK    2  A    between atoms: C_9  and  C_10 
REMARK       I    between atoms: C_10  and  N_12 
REMARK    3  A    between atoms: N_12  and  C_13 
REMARK    4  A    between atoms: C_13  and  C_15 
REMARK    5  A    between atoms: C_13  and  C_17 
REMARK    6  A    between atoms: C_15  and  O_16 
ROOT
HETATM    1  C   UNL     1     -43.828 -50.815  13.346  1.00  0.00     0.222 C 
HETATM    2  O   UNL     1     -45.016 -50.929  13.058  1.00  0.00    -0.273 OA
HETATM    3  N   UNL     1     -43.041 -51.884  13.745  1.00  0.00    -0.349 N 
HETATM    4  H   UNL     1     -42.077 -51.691  13.992  1.00  0.00     0.163 HD
ENDROOT
BRANCH   3   5
HETATM    5  C   UNL     1     -43.520 -53.293  13.934  1.00  0.00     0.054 C 
HETATM    6  C   UNL     1     -44.612 -53.352  15.017  1.00  0.00     0.041 C 
BRANCH   5   7
HETATM    7  C   UNL     1     -44.127 -53.801  12.589  1.00  0.00     0.195 C 
BRANCH   7   8
HETATM    8  O   UNL     1     -45.551 -53.899  12.678  1.00  0.00    -0.398 OA
HETATM    9  H   UNL     1     -45.791 -54.733  12.242  1.00  0.00     0.209 HD
ENDBRANCH   7   8
ENDBRANCH   5   7
BRANCH   5  10
HETATM   10  C   UNL     1     -42.264 -54.167  14.335  1.00  0.00     0.015 C 
HETATM   11  C   UNL     1     -40.926 -53.617  13.788  1.00  0.00     0.007 C 
HETATM   12  C   UNL     1     -39.798 -54.626  14.010  1.00  0.00     0.000 C 
HETATM   13  C   UNL     1     -39.642 -54.990  15.482  1.00  0.00     0.000 C 
HETATM   14  C   UNL     1     -40.963 -55.416  16.116  1.00  0.00     0.000 C 
HETATM   15  C   UNL     1     -42.087 -54.410  15.851  1.00  0.00     0.007 C 
ENDBRANCH   5  10
ENDBRANCH   3   5
BRANCH   1  16
HETATM   16  C   UNL     1     -43.106 -49.475  13.316  1.00  0.00     0.146 C 
BRANCH  16  17
HETATM   17  C   UNL     1     -42.341 -49.197  12.060  1.00  0.00     0.006 A 
HETATM   18  C   UNL     1     -41.054 -49.650  11.640  1.00  0.00     0.038 A 
HETATM   19  C   UNL     1     -40.106 -50.570  12.312  1.00  0.00     0.071 C 
HETATM   20  N   UNL     1     -40.707 -49.119  10.463  1.00  0.00    -0.265 N 
HETATM   21  O   UNL     1     -41.759 -48.318  10.082  1.00  0.00    -0.242 OA
ATOM     22  HN  UNL     1     -39.840 -49.276   9.951  1.00  0.00     0.194 HD
HETATM   23  C   UNL     1     -42.729 -48.362  11.028  1.00  0.00     0.081 A 
HETATM   24  C   UNL     1     -43.918 -47.530  10.758  1.00  0.00     0.079 C 
ENDBRANCH  16  17
ENDBRANCH   1  16
TORSDOF 6
ENDMDL
MODEL 8
REMARK VINA RESULT:      -5.6      4.092      7.887
REMARK  6 active torsions:
REMARK  status: ('A' for Active; 'I' for Inactive)
REMARK    1  A    between atoms: C_8  and  C_9 
REMARK    2  A    between atoms: C_9  and  C_10 
REMARK       I    between atoms: C_10  and  N_12 
REMARK    3  A    between atoms: N_12  and  C_13 
REMARK    4  A    between atoms: C_13  and  C_15 
REMARK    5  A    between atoms: C_13  and  C_17 
REMARK    6  A    between atoms: C_15  and  O_16 
ROOT
HETATM    1  C   UNL     1     -40.502 -51.990  12.933  1.00  0.00     0.222 C 
HETATM    2  O   UNL     1     -41.203 -51.237  13.603  1.00  0.00    -0.273 OA
HETATM    3  N   UNL     1     -39.395 -51.557  12.220  1.00  0.00    -0.349 N 
HETATM    4  H   UNL     1     -38.892 -52.244  11.671  1.00  0.00     0.163 HD
ENDROOT
BRANCH   3   5
HETATM    5  C   UNL     1     -38.931 -50.134  12.115  1.00  0.00     0.054 C 
HETATM    6  C   UNL     1     -37.663 -50.042  11.246  1.00  0.00     0.041 C 
BRANCH   5   7
HETATM    7  C   UNL     1     -40.056 -49.287  11.443  1.00  0.00     0.195 C 
BRANCH   7   8
HETATM    8  O   UNL     1     -40.445 -49.860  10.192  1.00  0.00    -0.398 OA
HETATM    9  H   UNL     1     -39.710 -50.432   9.917  1.00  0.00     0.209 HD
ENDBRANCH   7   8
ENDBRANCH   5   7
BRANCH   5  10
HETATM   10  C   UNL     1     -38.658 -49.619  13.585  1.00  0.00     0.015 C 
HETATM   11  C   UNL     1     -37.462 -50.315  14.275  1.00  0.00     0.007 C 
HETATM   12  C   UNL     1     -37.404 -49.944  15.758  1.00  0.00     0.000 C 
HETATM   13  C   UNL     1     -37.311 -48.436  15.963  1.00  0.00     0.000 C 
HETATM   14  C   UNL     1     -38.391 -47.680  15.196  1.00  0.00     0.000 C 
HETATM   15  C   UNL     1     -38.456 -48.093  13.723  1.00  0.00     0.007 C 
ENDBRANCH   5  10
ENDBRANCH   3   5
BRANCH   1  16
HETATM   16  C   UNL     1     -40.796 -53.478  12.802  1.00  0.00     0.146 C 
BRANCH  16  17
HETATM   17  C   UNL     1     -41.833 -54.003  13.745  1.00  0.00     0.006 A 
HETATM   18  C   UNL     1     -41.694 -54.641  15.014  1.00  0.00     0.038 A 
HETATM   19  C   UNL     1     -40.471 -54.937  15.798  1.00  0.00     0.071 C 
HETATM   20  N   UNL     1     -42.879 -55.012  15.509  1.00  0.00    -0.265 N 
HETATM   21  O   UNL     1     -43.818 -54.618  14.585  1.00  0.00    -0.242 OA
ATOM     22  HN  UNL     1     -43.052 -55.490  16.393  1.00  0.00     0.194 HD
HETATM   23  C   UNL     1     -43.201 -54.020  13.537  1.00  0.00     0.081 A 
HETATM   24  C   UNL     1     -44.091 -53.560  12.453  1.00  0.00     0.079 C 
ENDBRANCH  16  17
ENDBRANCH   1  16
TORSDOF 6
ENDMDL
MODEL 9
REMARK VINA RESULT:      -5.6      2.683      6.839
REMARK  6 active torsions:
REMARK  status: ('A' for Active; 'I' for Inactive)
REMARK    1  A    between atoms: C_8  and  C_9 
REMARK    2  A    between atoms: C_9  and  C_10 
REMARK       I    between atoms: C_10  and  N_12 
REMARK    3  A    between atoms: N_12  and  C_13 
REMARK    4  A    between atoms: C_13  and  C_15 
REMARK    5  A    between atoms: C_13  and  C_17 
REMARK    6  A    between atoms: C_15  and  O_16 
ROOT
HETATM    1  C   UNL     1     -42.322 -52.191  12.548  1.00  0.00     0.222 C 
HETATM    2  O   UNL     1     -41.378 -52.617  13.208  1.00  0.00    -0.273 OA
HETATM    3  N   UNL     1     -42.388 -50.891  12.073  1.00  0.00    -0.349 N 
HETATM    4  H   UNL     1     -43.218 -50.619  11.562  1.00  0.00     0.163 HD
ENDROOT
BRANCH   3   5
HETATM    5  C   UNL     1     -41.371 -49.819  12.333  1.00  0.00     0.054 C 
HETATM    6  C   UNL     1     -41.370 -49.425  13.822  1.00  0.00     0.041 C 
BRANCH   5   7
HETATM    7  C   UNL     1     -39.957 -50.368  11.965  1.00  0.00     0.195 C 
BRANCH   7   8
HETATM    8  O   UNL     1     -39.642 -50.089  10.599  1.00  0.00    -0.398 OA
HETATM    9  H   UNL     1     -39.940 -49.179  10.434  1.00  0.00     0.209 HD
ENDBRANCH   7   8
ENDBRANCH   5   7
BRANCH   5  10
HETATM   10  C   UNL     1     -41.740 -48.588  11.413  1.00  0.00     0.015 C 
HETATM   11  C   UNL     1     -43.246 -48.234  11.422  1.00  0.00     0.007 C 
HETATM   12  C   UNL     1     -43.564 -47.200  10.341  1.00  0.00     0.000 C 
HETATM   13  C   UNL     1     -42.737 -45.930  10.509  1.00  0.00     0.000 C 
HETATM   14  C   UNL     1     -41.245 -46.225  10.639  1.00  0.00     0.000 C 
HETATM   15  C   UNL     1     -40.952 -47.289  11.700  1.00  0.00     0.007 C 
ENDBRANCH   5  10
ENDBRANCH   3   5
BRANCH   1  16
HETATM   16  C   UNL     1     -43.530 -53.052  12.204  1.00  0.00     0.146 C 
BRANCH  16  17
HETATM   17  C   UNL     1     -44.504 -53.250  13.323  1.00  0.00     0.006 A 
HETATM   18  C   UNL     1     -44.453 -54.122  14.452  1.00  0.00     0.038 A 
HETATM   19  C   UNL     1     -43.392 -55.067  14.874  1.00  0.00     0.071 C 
HETATM   20  N   UNL     1     -45.564 -54.033  15.191  1.00  0.00    -0.265 N 
HETATM   21  O   UNL     1     -46.359 -53.097  14.573  1.00  0.00    -0.242 OA
ATOM     22  HN  UNL     1     -45.778 -54.553  16.042  1.00  0.00     0.194 HD
HETATM   23  C   UNL     1     -45.734 -52.632  13.463  1.00  0.00     0.081 A 
HETATM   24  C   UNL     1     -46.484 -51.627  12.684  1.00  0.00     0.079 C 
ENDBRANCH  16  17
ENDBRANCH   1  16
TORSDOF 6
ENDMDL
