MODEL 1
REMARK VINA RESULT:      -6.3      0.000      0.000
REMARK  8 active torsions:
REMARK  status: ('A' for Active; 'I' for Inactive)
REMARK    1  A    between atoms: C_7  and  N_8 
REMARK       I    between atoms: N_8  and  C_9 
REMARK    2  A    between atoms: C_9  and  C_11 
REMARK    3  A    between atoms: C_11  and  S_12 
REMARK    4  A    between atoms: S_12  and  C_13 
REMARK    5  A    between atoms: C_18  and  C_19 
REMARK    6  A    between atoms: C_19  and  C_20 
REMARK    7  A    between atoms: C_20  and  O_21 
REMARK    8  A    between atoms: C_22  and  O_23 
ROOT
HETATM    1  C   UNL     1     -40.882 -50.491  12.363  1.00  0.00     0.146 A 
HETATM    2  N   UNL     1     -40.798 -50.451  13.699  1.00  0.00    -0.340 N 
ATOM      3  HN  UNL     1     -40.839 -49.564  14.201  1.00  0.00     0.167 HD
HETATM    4  C   UNL     1     -40.658 -51.619  14.364  1.00  0.00     0.018 A 
HETATM    5  C   UNL     1     -40.501 -51.469  15.850  1.00  0.00     0.069 C 
HETATM    6  C   UNL     1     -40.618 -52.849  13.717  1.00  0.00     0.017 A 
HETATM    7  C   UNL     1     -40.728 -52.757  12.335  1.00  0.00     0.150 A 
HETATM    8  N   UNL     1     -40.870 -51.613  11.645  1.00  0.00    -0.317 N 
ATOM      9  HN  UNL     1     -40.963 -51.604  10.630  1.00  0.00     0.170 HD
ENDROOT
BRANCH   1  10
HETATM   10  S   UNL     1     -40.968 -48.910  11.560  1.00  0.00    -0.085 SA
BRANCH  10  11
HETATM   11  C   UNL     1     -42.758 -48.584  11.612  1.00  0.00     0.185 C 
BRANCH  11  12
HETATM   12  C   UNL     1     -43.372 -49.243  12.839  1.00  0.00     0.227 C 
HETATM   13  N   UNL     1     -44.123 -50.382  12.576  1.00  0.00    -0.355 N 
HETATM   14  H   UNL     1     -43.975 -50.824  11.676  1.00  0.00     0.162 HD
HETATM   15  O   UNL     1     -43.257 -48.768  13.968  1.00  0.00    -0.273 OA
BRANCH  13  16
HETATM   16  C   UNL     1     -44.723 -51.171  13.644  1.00  0.00     0.088 C 
HETATM   17  C   UNL     1     -44.122 -52.593  13.746  1.00  0.00     0.004 C 
HETATM   18  C   UNL     1     -44.235 -53.403  12.448  1.00  0.00     0.012 C 
HETATM   19  C   UNL     1     -44.783 -53.349  14.915  1.00  0.00     0.006 C 
HETATM   20  C   UNL     1     -46.308 -53.377  14.820  1.00  0.00     0.001 C 
HETATM   21  C   UNL     1     -46.898 -51.980  14.651  1.00  0.00     0.002 C 
HETATM   22  C   UNL     1     -46.251 -51.207  13.503  1.00  0.00     0.025 C 
ENDBRANCH  13  16
ENDBRANCH  11  12
ENDBRANCH  10  11
ENDBRANCH   1  10
BRANCH   7  23
HETATM   23  O   UNL     1     -40.650 -53.846  11.516  1.00  0.00    -0.346 OA
HETATM   24  H   UNL     1     -41.088 -54.610  11.940  1.00  0.00     0.219 HD
ENDBRANCH   7  23
BRANCH   6  25
HETATM   25  C   UNL     1     -40.373 -54.148  14.451  1.00  0.00     0.071 C 
BRANCH  25  26
HETATM   26  C   UNL     1     -38.926 -54.644  14.437  1.00  0.00     0.169 C 
BRANCH  26  27
HETATM   27  O   UNL     1     -38.687 -55.418  13.266  1.00  0.00    -0.401 OA
HETATM   28  H   UNL     1     -37.720 -55.556  13.205  1.00  0.00     0.209 HD
ENDBRANCH  26  27
ENDBRANCH  25  26
ENDBRANCH   6  25
TORSDOF 8
ENDMDL
MODEL 2
REMARK VINA RESULT:      -6.0      2.865      5.074
REMARK  8 active torsions:
REMARK  status: ('A' for Active; 'I' for Inactive)
REMARK    1  A    between atoms: C_7  and  N_8 
REMARK       I    between atoms: N_8  and  C_9 
REMARK    2  A    between atoms: C_9  and  C_11 
REMARK    3  A    between atoms: C_11  and  S_12 
REMARK    4  A    between atoms: S_12  and  C_13 
REMARK    5  A    between atoms: C_18  and  C_19 
REMARK    6  A    between atoms: C_19  and  C_20 
REMARK    7  A    between atoms: C_20  and  O_21 
REMARK    8  A    between atoms: C_22  and  O_23 
ROOT
HETATM    1  C   UNL     1     -40.322 -49.891  12.097  1.00  0.00     0.146 A 
HETATM    2  N   UNL     1     -39.792 -48.931  12.865  1.00  0.00    -0.340 N 
ATOM      3  HN  UNL     1     -39.266 -49.165  13.708  1.00  0.00     0.167 HD
HETATM    4  C   UNL     1     -39.972 -47.645  12.493  1.00  0.00     0.018 A 
HETATM    5  C   UNL     1     -39.403 -46.638  13.454  1.00  0.00     0.069 C 
HETATM    6  C   UNL     1     -40.665 -47.287  11.343  1.00  0.00     0.017 A 
HETATM    7  C   UNL     1     -41.153 -48.373  10.625  1.00  0.00     0.150 A 
HETATM    8  N   UNL     1     -40.989 -49.662  10.967  1.00  0.00    -0.317 N 
ATOM      9  HN  UNL     1     -41.356 -50.422  10.394  1.00  0.00     0.170 HD
ENDROOT
BRANCH   1  10
HETATM   10  S   UNL     1     -40.123 -51.547  12.704  1.00  0.00    -0.085 SA
BRANCH  10  11
HETATM   11  C   UNL     1     -41.594 -52.359  12.005  1.00  0.00     0.185 C 
BRANCH  11  12
HETATM   12  C   UNL     1     -42.567 -52.722  13.119  1.00  0.00     0.227 C 
HETATM   13  N   UNL     1     -43.545 -51.769  13.373  1.00  0.00    -0.355 N 
HETATM   14  H   UNL     1     -43.702 -51.077  12.648  1.00  0.00     0.162 HD
HETATM   15  O   UNL     1     -42.457 -53.755  13.778  1.00  0.00    -0.273 OA
BRANCH  13  16
HETATM   16  C   UNL     1     -44.595 -51.989  14.360  1.00  0.00     0.088 C 
HETATM   17  C   UNL     1     -45.909 -52.508  13.728  1.00  0.00     0.004 C 
HETATM   18  C   UNL     1     -46.475 -51.585  12.641  1.00  0.00     0.012 C 
HETATM   19  C   UNL     1     -46.953 -52.747  14.836  1.00  0.00     0.006 C 
HETATM   20  C   UNL     1     -47.186 -51.514  15.709  1.00  0.00     0.001 C 
HETATM   21  C   UNL     1     -45.883 -50.960  16.278  1.00  0.00     0.002 C 
HETATM   22  C   UNL     1     -44.827 -50.726  15.199  1.00  0.00     0.025 C 
ENDBRANCH  13  16
ENDBRANCH  11  12
ENDBRANCH  10  11
ENDBRANCH   1  10
BRANCH   7  23
HETATM   23  O   UNL     1     -41.912 -48.231   9.500  1.00  0.00    -0.346 OA
HETATM   24  H   UNL     1     -42.169 -49.111   9.162  1.00  0.00     0.219 HD
ENDBRANCH   7  23
BRANCH   6  25
HETATM   25  C   UNL     1     -40.943 -45.848  10.973  1.00  0.00     0.071 C 
BRANCH  25  26
HETATM   26  C   UNL     1     -39.842 -45.155  10.169  1.00  0.00     0.169 C 
BRANCH  26  27
HETATM   27  O   UNL     1     -40.065 -43.749  10.148  1.00  0.00    -0.401 OA
HETATM   28  H   UNL     1     -39.920 -43.420  11.058  1.00  0.00     0.209 HD
ENDBRANCH  26  27
ENDBRANCH  25  26
ENDBRANCH   6  25
TORSDOF 8
ENDMDL
MODEL 3
REMARK VINA RESULT:      -6.0      2.609      4.334
REMARK  8 active torsions:
REMARK  status: ('A' for Active; 'I' for Inactive)
REMARK    1  A    between atoms: C_7  and  N_8 
REMARK       I    between atoms: N_8  and  C_9 
REMARK    2  A    between atoms: C_9  and  C_11 
REMARK    3  A    between atoms: C_11  and  S_12 
REMARK    4  A    between atoms: S_12  and  C_13 
REMARK    5  A    between atoms: C_18  and  C_19 
REMARK    6  A    between atoms: C_19  and  C_20 
REMARK    7  A    between atoms: C_20  and  O_21 
REMARK    8  A    between atoms: C_22  and  O_23 
ROOT
HETATM    1  C   UNL     1     -39.211 -51.187  13.250  1.00  0.00     0.146 A 
HETATM    2  N   UNL     1     -38.881 -50.106  13.969  1.00  0.00    -0.340 N 
ATOM      3  HN  UNL     1     -38.521 -50.199  14.919  1.00  0.00     0.167 HD
HETATM    4  C   UNL     1     -39.039 -48.891  13.401  1.00  0.00     0.018 A 
HETATM    5  C   UNL     1     -38.711 -47.738  14.307  1.00  0.00     0.069 C 
HETATM    6  C   UNL     1     -39.508 -48.725  12.103  1.00  0.00     0.017 A 
HETATM    7  C   UNL     1     -39.801 -49.922  11.458  1.00  0.00     0.150 A 
HETATM    8  N   UNL     1     -39.654 -51.145  11.995  1.00  0.00    -0.317 N 
ATOM      9  HN  UNL     1     -39.869 -51.992  11.470  1.00  0.00     0.170 HD
ENDROOT
BRANCH   1  10
HETATM   10  S   UNL     1     -39.065 -52.739  14.101  1.00  0.00    -0.085 SA
BRANCH  10  11
HETATM   11  C   UNL     1     -40.572 -53.592  13.539  1.00  0.00     0.185 C 
BRANCH  11  12
HETATM   12  C   UNL     1     -41.753 -53.193  14.413  1.00  0.00     0.227 C 
HETATM   13  N   UNL     1     -42.955 -53.038  13.734  1.00  0.00    -0.355 N 
HETATM   14  H   UNL     1     -43.012 -53.458  12.813  1.00  0.00     0.162 HD
HETATM   15  O   UNL     1     -41.636 -52.971  15.617  1.00  0.00    -0.273 OA
BRANCH  13  16
HETATM   16  C   UNL     1     -44.196 -52.724  14.430  1.00  0.00     0.088 C 
HETATM   17  C   UNL     1     -44.949 -53.989  14.908  1.00  0.00     0.004 C 
HETATM   18  C   UNL     1     -45.283 -54.970  13.776  1.00  0.00     0.012 C 
HETATM   19  C   UNL     1     -46.227 -53.574  15.661  1.00  0.00     0.006 C 
HETATM   20  C   UNL     1     -47.127 -52.648  14.841  1.00  0.00     0.001 C 
HETATM   21  C   UNL     1     -46.369 -51.434  14.313  1.00  0.00     0.002 C 
HETATM   22  C   UNL     1     -45.090 -51.821  13.571  1.00  0.00     0.025 C 
ENDBRANCH  13  16
ENDBRANCH  11  12
ENDBRANCH  10  11
ENDBRANCH   1  10
BRANCH   7  23
HETATM   23  O   UNL     1     -40.331 -49.971  10.202  1.00  0.00    -0.346 OA
HETATM   24  H   UNL     1     -40.789 -49.130  10.004  1.00  0.00     0.219 HD
ENDBRANCH   7  23
BRANCH   6  25
HETATM   25  C   UNL     1     -39.769 -47.365  11.497  1.00  0.00     0.071 C 
BRANCH  25  26
HETATM   26  C   UNL     1     -41.240 -47.033  11.243  1.00  0.00     0.169 C 
BRANCH  26  27
HETATM   27  O   UNL     1     -41.580 -47.329   9.892  1.00  0.00    -0.401 OA
HETATM   28  H   UNL     1     -42.508 -47.048   9.761  1.00  0.00     0.209 HD
ENDBRANCH  26  27
ENDBRANCH  25  26
ENDBRANCH   6  25
TORSDOF 8
ENDMDL
MODEL 4
REMARK VINA RESULT:      -5.9      3.404      5.925
REMARK  8 active torsions:
REMARK  status: ('A' for Active; 'I' for Inactive)
REMARK    1  A    between atoms: C_7  and  N_8 
REMARK       I    between atoms: N_8  and  C_9 
REMARK    2  A    between atoms: C_9  and  C_11 
REMARK    3  A    between atoms: C_11  and  S_12 
REMARK    4  A    between atoms: S_12  and  C_13 
REMARK    5  A    between atoms: C_18  and  C_19 
REMARK    6  A    between atoms: C_19  and  C_20 
REMARK    7  A    between atoms: C_20  and  O_21 
REMARK    8  A    between atoms: C_22  and  O_23 
ROOT
HETATM    1  C   UNL     1     -40.107 -47.552  11.737  1.00  0.00     0.146 A 
HETATM    2  N   UNL     1     -39.690 -46.626  12.611  1.00  0.00    -0.340 N 
ATOM      3  HN  UNL     1     -39.140 -46.888  13.429  1.00  0.00     0.167 HD
HETATM    4  C   UNL     1     -40.019 -45.337  12.378  1.00  0.00     0.018 A 
HETATM    5  C   UNL     1     -39.569 -44.382  13.448  1.00  0.00     0.069 C 
HETATM    6  C   UNL     1     -40.751 -44.939  11.266  1.00  0.00     0.017 A 
HETATM    7  C   UNL     1     -41.111 -45.989  10.430  1.00  0.00     0.150 A 
HETATM    8  N   UNL     1     -40.799 -47.280  10.632  1.00  0.00    -0.317 N 
ATOM      9  HN  UNL     1     -41.075 -48.011   9.976  1.00  0.00     0.170 HD
ENDROOT
BRANCH   1  10
HETATM   10  S   UNL     1     -39.716 -49.230  12.164  1.00  0.00    -0.085 SA
BRANCH  10  11
HETATM   11  C   UNL     1     -41.189 -50.104  11.547  1.00  0.00     0.185 C 
BRANCH  11  12
HETATM   12  C   UNL     1     -42.228 -50.219  12.653  1.00  0.00     0.227 C 
HETATM   13  N   UNL     1     -43.075 -51.315  12.546  1.00  0.00    -0.355 N 
HETATM   14  H   UNL     1     -42.770 -52.066  11.937  1.00  0.00     0.162 HD
HETATM   15  O   UNL     1     -42.342 -49.375  13.540  1.00  0.00    -0.273 OA
BRANCH  13  16
HETATM   16  C   UNL     1     -44.082 -51.611  13.557  1.00  0.00     0.088 C 
HETATM   17  C   UNL     1     -44.056 -53.089  14.012  1.00  0.00     0.004 C 
HETATM   18  C   UNL     1     -44.240 -54.089  12.863  1.00  0.00     0.012 C 
HETATM   19  C   UNL     1     -45.122 -53.312  15.102  1.00  0.00     0.006 C 
HETATM   20  C   UNL     1     -46.519 -52.873  14.665  1.00  0.00     0.001 C 
HETATM   21  C   UNL     1     -46.535 -51.436  14.153  1.00  0.00     0.002 C 
HETATM   22  C   UNL     1     -45.477 -51.187  13.078  1.00  0.00     0.025 C 
ENDBRANCH  13  16
ENDBRANCH  11  12
ENDBRANCH  10  11
ENDBRANCH   1  10
BRANCH   7  23
HETATM   23  O   UNL     1     -41.883 -45.814   9.318  1.00  0.00    -0.346 OA
HETATM   24  H   UNL     1     -41.669 -44.957   8.900  1.00  0.00     0.219 HD
ENDBRANCH   7  23
BRANCH   6  25
HETATM   25  C   UNL     1     -41.195 -43.510  11.050  1.00  0.00     0.071 C 
BRANCH  25  26
HETATM   26  C   UNL     1     -42.656 -43.220  11.397  1.00  0.00     0.169 C 
BRANCH  26  27
HETATM   27  O   UNL     1     -43.477 -43.408  10.249  1.00  0.00    -0.401 OA
HETATM   28  H   UNL     1     -43.311 -44.316   9.923  1.00  0.00     0.209 HD
ENDBRANCH  26  27
ENDBRANCH  25  26
ENDBRANCH   6  25
TORSDOF 8
ENDMDL
MODEL 5
REMARK VINA RESULT:      -5.9      3.768      6.240
REMARK  8 active torsions:
REMARK  status: ('A' for Active; 'I' for Inactive)
REMARK    1  A    between atoms: C_7  and  N_8 
REMARK       I    between atoms: N_8  and  C_9 
REMARK    2  A    between atoms: C_9  and  C_11 
REMARK    3  A    between atoms: C_11  and  S_12 
REMARK    4  A    between atoms: S_12  and  C_13 
REMARK    5  A    between atoms: C_18  and  C_19 
REMARK    6  A    between atoms: C_19  and  C_20 
REMARK    7  A    between atoms: C_20  and  O_21 
REMARK    8  A    between atoms: C_22  and  O_23 
ROOT
HETATM    1  C   UNL     1     -41.516 -50.069  11.696  1.00  0.00     0.146 A 
HETATM    2  N   UNL     1     -42.669 -50.067  12.377  1.00  0.00    -0.340 N 
ATOM      3  HN  UNL     1     -43.167 -49.196  12.562  1.00  0.00     0.167 HD
HETATM    4  C   UNL     1     -43.153 -51.251  12.813  1.00  0.00     0.018 A 
HETATM    5  C   UNL     1     -44.411 -51.142  13.628  1.00  0.00     0.069 C 
HETATM    6  C   UNL     1     -42.513 -52.459  12.565  1.00  0.00     0.017 A 
HETATM    7  C   UNL     1     -41.336 -52.329  11.837  1.00  0.00     0.150 A 
HETATM    8  N   UNL     1     -40.829 -51.168  11.389  1.00  0.00    -0.317 N 
ATOM      9  HN  UNL     1     -39.968 -51.131  10.844  1.00  0.00     0.170 HD
ENDROOT
BRANCH   1  10
HETATM   10  S   UNL     1     -40.899 -48.467  11.242  1.00  0.00    -0.085 SA
BRANCH  10  11
HETATM   11  C   UNL     1     -42.201 -47.896  10.106  1.00  0.00     0.185 C 
BRANCH  11  12
HETATM   12  C   UNL     1     -42.319 -46.379  10.167  1.00  0.00     0.227 C 
HETATM   13  N   UNL     1     -41.964 -45.816  11.386  1.00  0.00    -0.355 N 
HETATM   14  H   UNL     1     -41.412 -46.395  12.010  1.00  0.00     0.162 HD
HETATM   15  O   UNL     1     -42.750 -45.714   9.227  1.00  0.00    -0.273 OA
BRANCH  13  16
HETATM   16  C   UNL     1     -41.955 -44.373  11.593  1.00  0.00     0.088 C 
HETATM   17  C   UNL     1     -40.536 -43.764  11.489  1.00  0.00     0.004 C 
HETATM   18  C   UNL     1     -39.529 -44.382  12.467  1.00  0.00     0.012 C 
HETATM   19  C   UNL     1     -40.616 -42.238  11.684  1.00  0.00     0.006 C 
HETATM   20  C   UNL     1     -41.316 -41.839  12.983  1.00  0.00     0.001 C 
HETATM   21  C   UNL     1     -42.688 -42.493  13.119  1.00  0.00     0.002 C 
HETATM   22  C   UNL     1     -42.636 -44.008  12.918  1.00  0.00     0.025 C 
ENDBRANCH  13  16
ENDBRANCH  11  12
ENDBRANCH  10  11
ENDBRANCH   1  10
BRANCH   7  23
HETATM   23  O   UNL     1     -40.530 -53.390  11.543  1.00  0.00    -0.346 OA
HETATM   24  H   UNL     1     -39.638 -53.239  11.913  1.00  0.00     0.219 HD
ENDBRANCH   7  23
BRANCH   6  25
HETATM   25  C   UNL     1     -43.006 -53.773  13.126  1.00  0.00     0.071 C 
BRANCH  25  26
HETATM   26  C   UNL     1     -42.450 -54.146  14.502  1.00  0.00     0.169 C 
BRANCH  26  27
HETATM   27  O   UNL     1     -41.101 -54.586  14.380  1.00  0.00    -0.401 OA
HETATM   28  H   UNL     1     -40.617 -53.894  13.886  1.00  0.00     0.209 HD
ENDBRANCH  26  27
ENDBRANCH  25  26
ENDBRANCH   6  25
TORSDOF 8
ENDMDL
MODEL 6
REMARK VINA RESULT:      -5.9      2.633      5.705
REMARK  8 active torsions:
REMARK  status: ('A' for Active; 'I' for Inactive)
REMARK    1  A    between atoms: C_7  and  N_8 
REMARK       I    between atoms: N_8  and  C_9 
REMARK    2  A    between atoms: C_9  and  C_11 
REMARK    3  A    between atoms: C_11  and  S_12 
REMARK    4  A    between atoms: S_12  and  C_13 
REMARK    5  A    between atoms: C_18  and  C_19 
REMARK    6  A    between atoms: C_19  and  C_20 
REMARK    7  A    between atoms: C_20  and  O_21 
REMARK    8  A    between atoms: C_22  and  O_23 
ROOT
HETATM    1  C   UNL     1     -40.202 -48.798  11.345  1.00  0.00     0.146 A 
HETATM    2  N   UNL     1     -39.697 -47.588  11.069  1.00  0.00    -0.340 N 
ATOM      3  HN  UNL     1     -38.692 -47.416  11.118  1.00  0.00     0.167 HD
HETATM    4  C   UNL     1     -40.554 -46.603  10.723  1.00  0.00     0.018 A 
HETATM    5  C   UNL     1     -39.904 -45.267  10.503  1.00  0.00     0.069 C 
HETATM    6  C   UNL     1     -41.926 -46.804  10.627  1.00  0.00     0.017 A 
HETATM    7  C   UNL     1     -42.323 -48.103  10.924  1.00  0.00     0.150 A 
HETATM    8  N   UNL     1     -41.495 -49.103  11.269  1.00  0.00    -0.317 N 
ATOM      9  HN  UNL     1     -41.839 -50.044  11.461  1.00  0.00     0.170 HD
ENDROOT
BRANCH   1  10
HETATM   10  S   UNL     1     -39.021 -50.009  11.883  1.00  0.00    -0.085 SA
BRANCH  10  11
HETATM   11  C   UNL     1     -39.814 -50.627  13.400  1.00  0.00     0.185 C 
BRANCH  11  12
HETATM   12  C   UNL     1     -40.568 -51.917  13.106  1.00  0.00     0.227 C 
HETATM   13  N   UNL     1     -41.691 -52.128  13.895  1.00  0.00    -0.355 N 
HETATM   14  H   UNL     1     -42.065 -51.318  14.378  1.00  0.00     0.162 HD
HETATM   15  O   UNL     1     -40.176 -52.733  12.274  1.00  0.00    -0.273 OA
BRANCH  13  16
HETATM   16  C   UNL     1     -42.563 -53.280  13.698  1.00  0.00     0.088 C 
HETATM   17  C   UNL     1     -43.822 -52.940  12.866  1.00  0.00     0.004 C 
HETATM   18  C   UNL     1     -44.670 -51.811  13.466  1.00  0.00     0.012 C 
HETATM   19  C   UNL     1     -44.671 -54.212  12.675  1.00  0.00     0.006 C 
HETATM   20  C   UNL     1     -45.025 -54.895  13.995  1.00  0.00     0.001 C 
HETATM   21  C   UNL     1     -43.790 -55.170  14.848  1.00  0.00     0.002 C 
HETATM   22  C   UNL     1     -42.925 -53.925  15.042  1.00  0.00     0.025 C 
ENDBRANCH  13  16
ENDBRANCH  11  12
ENDBRANCH  10  11
ENDBRANCH   1  10
BRANCH   7  23
HETATM   23  O   UNL     1     -43.632 -48.486  10.945  1.00  0.00    -0.346 OA
HETATM   24  H   UNL     1     -44.117 -48.045  10.220  1.00  0.00     0.219 HD
ENDBRANCH   7  23
BRANCH   6  25
HETATM   25  C   UNL     1     -42.895 -45.683  10.327  1.00  0.00     0.071 C 
BRANCH  25  26
HETATM   26  C   UNL     1     -43.663 -45.817   9.011  1.00  0.00     0.169 C 
BRANCH  26  27
HETATM   27  O   UNL     1     -44.972 -46.320   9.259  1.00  0.00    -0.401 OA
HETATM   28  H   UNL     1     -45.111 -47.074   8.652  1.00  0.00     0.209 HD
ENDBRANCH  26  27
ENDBRANCH  25  26
ENDBRANCH   6  25
TORSDOF 8
ENDMDL
MODEL 7
REMARK VINA RESULT:      -5.8      2.605      4.167
REMARK  8 active torsions:
REMARK  status: ('A' for Active; 'I' for Inactive)
REMARK    1  A    between atoms: C_7  and  N_8 
REMARK       I    between atoms: N_8  and  C_9 
REMARK    2  A    between atoms: C_9  and  C_11 
REMARK    3  A    between atoms: C_11  and  S_12 
REMARK    4  A    between atoms: S_12  and  C_13 
REMARK    5  A    between atoms: C_18  and  C_19 
REMARK    6  A    between atoms: C_19  and  C_20 
REMARK    7  A    between atoms: C_20  and  O_21 
REMARK    8  A    between atoms: C_22  and  O_23 
ROOT
HETATM    1  C   UNL     1     -39.967 -53.427  14.113  1.00  0.00     0.146 A 
HETATM    2  N   UNL     1     -39.126 -52.443  14.456  1.00  0.00    -0.340 N 
ATOM      3  HN  UNL     1     -38.562 -52.508  15.305  1.00  0.00     0.167 HD
HETATM    4  C   UNL     1     -39.044 -51.363  13.649  1.00  0.00     0.018 A 
HETATM    5  C   UNL     1     -38.129 -50.282  14.152  1.00  0.00     0.069 C 
HETATM    6  C   UNL     1     -39.781 -51.247  12.476  1.00  0.00     0.017 A 
HETATM    7  C   UNL     1     -40.605 -52.338  12.224  1.00  0.00     0.150 A 
HETATM    8  N   UNL     1     -40.707 -53.426  13.005  1.00  0.00    -0.317 N 
ATOM      9  HN  UNL     1     -41.316 -54.207  12.764  1.00  0.00     0.170 HD
ENDROOT
BRANCH   1  10
HETATM   10  S   UNL     1     -40.086 -54.765  15.274  1.00  0.00    -0.085 SA
BRANCH  10  11
HETATM   11  C   UNL     1     -41.238 -54.067  16.499  1.00  0.00     0.185 C 
BRANCH  11  12
HETATM   12  C   UNL     1     -42.662 -54.118  15.964  1.00  0.00     0.227 C 
HETATM   13  N   UNL     1     -43.171 -52.896  15.543  1.00  0.00    -0.355 N 
HETATM   14  H   UNL     1     -42.496 -52.160  15.367  1.00  0.00     0.162 HD
HETATM   15  O   UNL     1     -43.327 -55.153  15.959  1.00  0.00    -0.273 OA
BRANCH  13  16
HETATM   16  C   UNL     1     -44.494 -52.780  14.943  1.00  0.00     0.088 C 
HETATM   17  C   UNL     1     -44.454 -52.167  13.523  1.00  0.00     0.004 C 
HETATM   18  C   UNL     1     -43.794 -50.783  13.470  1.00  0.00     0.012 C 
HETATM   19  C   UNL     1     -45.881 -52.110  12.945  1.00  0.00     0.006 C 
HETATM   20  C   UNL     1     -46.863 -51.376  13.858  1.00  0.00     0.001 C 
HETATM   21  C   UNL     1     -46.855 -51.936  15.277  1.00  0.00     0.002 C 
HETATM   22  C   UNL     1     -45.448 -52.013  15.868  1.00  0.00     0.025 C 
ENDBRANCH  13  16
ENDBRANCH  11  12
ENDBRANCH  10  11
ENDBRANCH   1  10
BRANCH   7  23
HETATM   23  O   UNL     1     -41.452 -52.390  11.156  1.00  0.00    -0.346 OA
HETATM   24  H   UNL     1     -42.050 -53.158  11.245  1.00  0.00     0.219 HD
ENDBRANCH   7  23
BRANCH   6  25
HETATM   25  C   UNL     1     -39.757 -50.003  11.618  1.00  0.00     0.071 C 
BRANCH  25  26
HETATM   26  C   UNL     1     -40.916 -49.030  11.844  1.00  0.00     0.169 C 
BRANCH  26  27
HETATM   27  O   UNL     1     -41.966 -49.299  10.921  1.00  0.00    -0.401 OA
HETATM   28  H   UNL     1     -42.546 -48.510  10.907  1.00  0.00     0.209 HD
ENDBRANCH  26  27
ENDBRANCH  25  26
ENDBRANCH   6  25
TORSDOF 8
ENDMDL
MODEL 8
REMARK VINA RESULT:      -5.7      3.047      4.170
REMARK  8 active torsions:
REMARK  status: ('A' for Active; 'I' for Inactive)
REMARK    1  A    between atoms: C_7  and  N_8 
REMARK       I    between atoms: N_8  and  C_9 
REMARK    2  A    between atoms: C_9  and  C_11 
REMARK    3  A    between atoms: C_11  and  S_12 
REMARK    4  A    between atoms: S_12  and  C_13 
REMARK    5  A    between atoms: C_18  and  C_19 
REMARK    6  A    between atoms: C_19  and  C_20 
REMARK    7  A    between atoms: C_20  and  O_21 
REMARK    8  A    between atoms: C_22  and  O_23 
ROOT
HETATM    1  C   UNL     1     -42.882 -53.422  13.857  1.00  0.00     0.146 A 
HETATM    2  N   UNL     1     -42.555 -52.408  14.669  1.00  0.00    -0.340 N 
ATOM      3  HN  UNL     1     -43.066 -52.245  15.537  1.00  0.00     0.167 HD
HETATM    4  C   UNL     1     -41.529 -51.606  14.305  1.00  0.00     0.018 A 
HETATM    5  C   UNL     1     -41.283 -50.455  15.240  1.00  0.00     0.069 C 
HETATM    6  C   UNL     1     -40.797 -51.807  13.141  1.00  0.00     0.017 A 
HETATM    7  C   UNL     1     -41.225 -52.898  12.394  1.00  0.00     0.150 A 
HETATM    8  N   UNL     1     -42.239 -53.714  12.728  1.00  0.00    -0.317 N 
ATOM      9  HN  UNL     1     -42.500 -54.513  12.150  1.00  0.00     0.170 HD
ENDROOT
BRANCH   1  10
HETATM   10  S   UNL     1     -44.298 -54.369  14.358  1.00  0.00    -0.085 SA
BRANCH  10  11
HETATM   11  C   UNL     1     -45.602 -53.623  13.330  1.00  0.00     0.185 C 
BRANCH  11  12
HETATM   12  C   UNL     1     -46.134 -52.362  13.997  1.00  0.00     0.227 C 
HETATM   13  N   UNL     1     -45.991 -52.328  15.378  1.00  0.00    -0.355 N 
HETATM   14  H   UNL     1     -45.323 -52.977  15.781  1.00  0.00     0.162 HD
HETATM   15  O   UNL     1     -46.699 -51.471  13.365  1.00  0.00    -0.273 OA
BRANCH  13  16
HETATM   16  C   UNL     1     -46.386 -51.167  16.164  1.00  0.00     0.088 C 
HETATM   17  C   UNL     1     -45.230 -50.607  17.027  1.00  0.00     0.004 C 
HETATM   18  C   UNL     1     -44.627 -51.639  17.990  1.00  0.00     0.012 C 
HETATM   19  C   UNL     1     -45.717 -49.366  17.799  1.00  0.00     0.006 C 
HETATM   20  C   UNL     1     -46.972 -49.635  18.629  1.00  0.00     0.001 C 
HETATM   21  C   UNL     1     -48.091 -50.249  17.793  1.00  0.00     0.002 C 
HETATM   22  C   UNL     1     -47.629 -51.477  17.009  1.00  0.00     0.025 C 
ENDBRANCH  13  16
ENDBRANCH  11  12
ENDBRANCH  10  11
ENDBRANCH   1  10
BRANCH   7  23
HETATM   23  O   UNL     1     -40.676 -53.226  11.189  1.00  0.00    -0.346 OA
HETATM   24  H   UNL     1     -41.385 -53.408  10.541  1.00  0.00     0.219 HD
ENDBRANCH   7  23
BRANCH   6  25
HETATM   25  C   UNL     1     -39.709 -50.860  12.689  1.00  0.00     0.071 C 
BRANCH  25  26
HETATM   26  C   UNL     1     -40.164 -49.740  11.751  1.00  0.00     0.169 C 
BRANCH  26  27
HETATM   27  O   UNL     1     -40.188 -50.209  10.407  1.00  0.00    -0.401 OA
HETATM   28  H   UNL     1     -39.277 -50.485  10.182  1.00  0.00     0.209 HD
ENDBRANCH  26  27
ENDBRANCH  25  26
ENDBRANCH   6  25
TORSDOF 8
ENDMDL
MODEL 9
REMARK VINA RESULT:      -5.7      2.916      5.205
REMARK  8 active torsions:
REMARK  status: ('A' for Active; 'I' for Inactive)
REMARK    1  A    between atoms: C_7  and  N_8 
REMARK       I    between atoms: N_8  and  C_9 
REMARK    2  A    between atoms: C_9  and  C_11 
REMARK    3  A    between atoms: C_11  and  S_12 
REMARK    4  A    between atoms: S_12  and  C_13 
REMARK    5  A    between atoms: C_18  and  C_19 
REMARK    6  A    between atoms: C_19  and  C_20 
REMARK    7  A    between atoms: C_20  and  O_21 
REMARK    8  A    between atoms: C_22  and  O_23 
ROOT
HETATM    1  C   UNL     1     -44.169 -52.161  12.968  1.00  0.00     0.146 A 
HETATM    2  N   UNL     1     -43.908 -51.083  13.718  1.00  0.00    -0.340 N 
ATOM      3  HN  UNL     1     -44.606 -50.710  14.362  1.00  0.00     0.167 HD
HETATM    4  C   UNL     1     -42.694 -50.501  13.598  1.00  0.00     0.018 A 
HETATM    5  C   UNL     1     -42.520 -49.258  14.424  1.00  0.00     0.069 C 
HETATM    6  C   UNL     1     -41.710 -50.989  12.746  1.00  0.00     0.017 A 
HETATM    7  C   UNL     1     -42.098 -52.119  12.034  1.00  0.00     0.150 A 
HETATM    8  N   UNL     1     -43.295 -52.721  12.133  1.00  0.00    -0.317 N 
ATOM      9  HN  UNL     1     -43.522 -53.559  11.598  1.00  0.00     0.170 HD
ENDROOT
BRANCH   1  10
HETATM   10  S   UNL     1     -45.816 -52.807  13.113  1.00  0.00    -0.085 SA
BRANCH  10  11
HETATM   11  C   UNL     1     -45.744 -53.589  14.755  1.00  0.00     0.185 C 
BRANCH  11  12
HETATM   12  C   UNL     1     -44.620 -54.615  14.796  1.00  0.00     0.227 C 
HETATM   13  N   UNL     1     -43.442 -54.166  15.377  1.00  0.00    -0.355 N 
HETATM   14  H   UNL     1     -43.509 -53.335  15.955  1.00  0.00     0.162 HD
HETATM   15  O   UNL     1     -44.732 -55.735  14.299  1.00  0.00    -0.273 OA
BRANCH  13  16
HETATM   16  C   UNL     1     -42.290 -55.042  15.556  1.00  0.00     0.088 C 
HETATM   17  C   UNL     1     -42.319 -55.799  16.906  1.00  0.00     0.004 C 
HETATM   18  C   UNL     1     -42.397 -54.874  18.128  1.00  0.00     0.012 C 
HETATM   19  C   UNL     1     -41.092 -56.724  17.004  1.00  0.00     0.006 C 
HETATM   20  C   UNL     1     -39.771 -55.986  16.790  1.00  0.00     0.001 C 
HETATM   21  C   UNL     1     -39.765 -55.184  15.492  1.00  0.00     0.002 C 
HETATM   22  C   UNL     1     -40.980 -54.265  15.367  1.00  0.00     0.025 C 
ENDBRANCH  13  16
ENDBRANCH  11  12
ENDBRANCH  10  11
ENDBRANCH   1  10
BRANCH   7  23
HETATM   23  O   UNL     1     -41.298 -52.713  11.103  1.00  0.00    -0.346 OA
HETATM   24  H   UNL     1     -40.864 -53.498  11.493  1.00  0.00     0.219 HD
ENDBRANCH   7  23
BRANCH   6  25
HETATM   25  C   UNL     1     -40.386 -50.290  12.545  1.00  0.00     0.071 C 
BRANCH  25  26
HETATM   26  C   UNL     1     -40.352 -49.268  11.408  1.00  0.00     0.169 C 
BRANCH  26  27
HETATM   27  O   UNL     1     -40.339 -49.936  10.151  1.00  0.00    -0.401 OA
HETATM   28  H   UNL     1     -40.984 -50.670  10.209  1.00  0.00     0.209 HD
ENDBRANCH  26  27
ENDBRANCH  25  26
ENDBRANCH   6  25
TORSDOF 8
ENDMDL
