MODEL 1
REMARK VINA RESULT:      -5.4      0.000      0.000
REMARK  3 active torsions:
REMARK  status: ('A' for Active; 'I' for Inactive)
REMARK    1  A    between atoms: C_4  and  N_5 
REMARK       I    between atoms: N_5  and  C_6 
REMARK       I    between atoms: C_6  and  N_8 
REMARK    2  A    between atoms: N_8  and  C_9 
REMARK    3  A    between atoms: C_9  and  C_10 
ROOT
HETATM    1  N   UNL     1     -42.395 -46.704   9.653  1.00  0.00    -0.293 N 
HETATM    2  C   UNL     1     -41.474 -47.474  10.411  1.00  0.00     0.321 C 
HETATM    3  O   UNL     1     -41.701 -48.615  10.780  1.00  0.00    -0.247 OA
HETATM    4  N   UNL     1     -40.323 -46.802  10.676  1.00  0.00    -0.342 N 
HETATM    5  H   UNL     1     -42.134 -45.773   9.385  1.00  0.00     0.172 HD
HETATM    6  H   UNL     1     -39.668 -47.323  11.247  1.00  0.00     0.164 HD
ENDROOT
BRANCH   1   7
HETATM    7  C   UNL     1     -43.642 -47.142   9.235  1.00  0.00     0.127 A 
HETATM    8  C   UNL     1     -44.859 -46.963   9.847  1.00  0.00     0.076 A 
HETATM    9  C   UNL     1     -45.798 -47.613   9.015  1.00  0.00     0.025 A 
HETATM   10  C   UNL     1     -47.261 -47.728   9.222  1.00  0.00     0.070 C 
HETATM   11  N   UNL     1     -45.215 -48.161   7.944  1.00  0.00    -0.302 N 
HETATM   12  N   UNL     1     -43.911 -47.864   8.095  1.00  0.00    -0.281 N 
ATOM     13  HN  UNL     1     -45.656 -48.683   7.187  1.00  0.00     0.186 HD
HETATM   14  C   UNL     1     -42.989 -48.324   7.084  1.00  0.00     0.179 C 
ENDBRANCH   1   7
BRANCH   4  15
HETATM   15  C   UNL     1     -40.022 -45.438  10.330  1.00  0.00     0.129 C 
BRANCH  15  16
HETATM   16  C   UNL     1     -40.112 -44.538  11.509  1.00  0.00     0.003 A 
HETATM   17  C   UNL     1     -41.432 -44.057  12.054  1.00  0.00     0.007 A 
HETATM   18  C   UNL     1     -40.552 -43.113  11.284  1.00  0.00     0.007 A 
ENDBRANCH  15  16
ENDBRANCH   4  15
TORSDOF 3
ENDMDL
MODEL 2
REMARK VINA RESULT:      -5.1      7.459      9.346
REMARK  3 active torsions:
REMARK  status: ('A' for Active; 'I' for Inactive)
REMARK    1  A    between atoms: C_4  and  N_5 
REMARK       I    between atoms: N_5  and  C_6 
REMARK       I    between atoms: C_6  and  N_8 
REMARK    2  A    between atoms: N_8  and  C_9 
REMARK    3  A    between atoms: C_9  and  C_10 
ROOT
HETATM    1  N   UNL     1     -43.915 -53.739  14.362  1.00  0.00    -0.293 N 
HETATM    2  C   UNL     1     -44.885 -54.164  13.416  1.00  0.00     0.321 C 
HETATM    3  O   UNL     1     -44.610 -54.477  12.269  1.00  0.00    -0.247 OA
HETATM    4  N   UNL     1     -46.143 -54.179  13.929  1.00  0.00    -0.342 N 
HETATM    5  H   UNL     1     -44.219 -53.500  15.287  1.00  0.00     0.172 HD
HETATM    6  H   UNL     1     -46.855 -54.445  13.259  1.00  0.00     0.164 HD
ENDROOT
BRANCH   1   7
HETATM    7  C   UNL     1     -42.555 -53.637  14.112  1.00  0.00     0.127 A 
HETATM    8  C   UNL     1     -41.548 -54.488  14.500  1.00  0.00     0.076 A 
HETATM    9  C   UNL     1     -40.358 -53.918  13.997  1.00  0.00     0.025 A 
HETATM   10  C   UNL     1     -38.977 -54.435  14.143  1.00  0.00     0.070 C 
HETATM   11  N   UNL     1     -40.595 -52.785  13.328  1.00  0.00    -0.302 N 
HETATM   12  N   UNL     1     -41.930 -52.633  13.408  1.00  0.00    -0.281 N 
ATOM     13  HN  UNL     1     -39.921 -52.177  12.864  1.00  0.00     0.186 HD
HETATM   14  C   UNL     1     -42.520 -51.478  12.774  1.00  0.00     0.179 C 
ENDBRANCH   1   7
BRANCH   4  15
HETATM   15  C   UNL     1     -46.543 -53.758  15.246  1.00  0.00     0.129 C 
BRANCH  15  16
HETATM   16  C   UNL     1     -47.197 -52.425  15.224  1.00  0.00     0.003 A 
HETATM   17  C   UNL     1     -46.717 -51.308  14.333  1.00  0.00     0.007 A 
HETATM   18  C   UNL     1     -46.449 -51.254  15.811  1.00  0.00     0.007 A 
ENDBRANCH  15  16
ENDBRANCH   4  15
TORSDOF 3
ENDMDL
MODEL 3
REMARK VINA RESULT:      -5.0      1.827      5.875
REMARK  3 active torsions:
REMARK  status: ('A' for Active; 'I' for Inactive)
REMARK    1  A    between atoms: C_4  and  N_5 
REMARK       I    between atoms: N_5  and  C_6 
REMARK       I    between atoms: C_6  and  N_8 
REMARK    2  A    between atoms: N_8  and  C_9 
REMARK    3  A    between atoms: C_9  and  C_10 
ROOT
HETATM    1  N   UNL     1     -42.671 -46.172  10.608  1.00  0.00    -0.293 N 
HETATM    2  C   UNL     1     -42.265 -47.472  10.207  1.00  0.00     0.321 C 
HETATM    3  O   UNL     1     -41.266 -48.025  10.640  1.00  0.00    -0.247 OA
HETATM    4  N   UNL     1     -43.106 -48.025   9.295  1.00  0.00    -0.342 N 
HETATM    5  H   UNL     1     -43.505 -45.786  10.208  1.00  0.00     0.172 HD
HETATM    6  H   UNL     1     -42.813 -48.939   8.970  1.00  0.00     0.164 HD
ENDROOT
BRANCH   1   7
HETATM    7  C   UNL     1     -42.004 -45.381  11.531  1.00  0.00     0.127 A 
HETATM    8  C   UNL     1     -41.027 -44.442  11.304  1.00  0.00     0.076 A 
HETATM    9  C   UNL     1     -40.684 -43.939  12.579  1.00  0.00     0.025 A 
HETATM   10  C   UNL     1     -39.671 -42.907  12.900  1.00  0.00     0.070 C 
HETATM   11  N   UNL     1     -41.402 -44.515  13.548  1.00  0.00    -0.302 N 
HETATM   12  N   UNL     1     -42.195 -45.384  12.894  1.00  0.00    -0.281 N 
ATOM     13  HN  UNL     1     -41.359 -44.338  14.552  1.00  0.00     0.186 HD
HETATM   14  C   UNL     1     -43.111 -46.185  13.671  1.00  0.00     0.179 C 
ENDBRANCH   1   7
BRANCH   4  15
HETATM   15  C   UNL     1     -44.256 -47.403   8.695  1.00  0.00     0.129 C 
BRANCH  15  16
HETATM   16  C   UNL     1     -45.505 -47.727   9.432  1.00  0.00     0.003 A 
HETATM   17  C   UNL     1     -46.657 -48.451   8.785  1.00  0.00     0.007 A 
HETATM   18  C   UNL     1     -46.762 -46.978   9.067  1.00  0.00     0.007 A 
ENDBRANCH  15  16
ENDBRANCH   4  15
TORSDOF 3
ENDMDL
MODEL 4
REMARK VINA RESULT:      -5.0      7.550      8.520
REMARK  3 active torsions:
REMARK  status: ('A' for Active; 'I' for Inactive)
REMARK    1  A    between atoms: C_4  and  N_5 
REMARK       I    between atoms: N_5  and  C_6 
REMARK       I    between atoms: C_6  and  N_8 
REMARK    2  A    between atoms: N_8  and  C_9 
REMARK    3  A    between atoms: C_9  and  C_10 
ROOT
HETATM    1  N   UNL     1     -44.256 -52.295  13.915  1.00  0.00    -0.293 N 
HETATM    2  C   UNL     1     -44.375 -53.087  12.742  1.00  0.00     0.321 C 
HETATM    3  O   UNL     1     -45.337 -53.802  12.512  1.00  0.00    -0.247 OA
HETATM    4  N   UNL     1     -43.304 -52.961  11.916  1.00  0.00    -0.342 N 
HETATM    5  H   UNL     1     -43.435 -51.732  14.032  1.00  0.00     0.172 HD
HETATM    6  H   UNL     1     -43.353 -53.546  11.090  1.00  0.00     0.164 HD
ENDROOT
BRANCH   1   7
HETATM    7  C   UNL     1     -45.204 -52.226  14.925  1.00  0.00     0.127 A 
HETATM    8  C   UNL     1     -46.273 -51.370  15.036  1.00  0.00     0.076 A 
HETATM    9  C   UNL     1     -46.907 -51.715  16.250  1.00  0.00     0.025 A 
HETATM   10  C   UNL     1     -48.110 -51.091  16.850  1.00  0.00     0.070 C 
HETATM   11  N   UNL     1     -46.285 -52.726  16.865  1.00  0.00    -0.302 N 
HETATM   12  N   UNL     1     -45.258 -53.022  16.047  1.00  0.00    -0.281 N 
ATOM     13  HN  UNL     1     -46.531 -53.171  17.749  1.00  0.00     0.186 HD
HETATM   14  C   UNL     1     -44.370 -54.092  16.432  1.00  0.00     0.179 C 
ENDBRANCH   1   7
BRANCH   4  15
HETATM   15  C   UNL     1     -42.112 -52.192  12.160  1.00  0.00     0.129 C 
BRANCH  15  16
HETATM   16  C   UNL     1     -40.918 -53.062  12.320  1.00  0.00     0.003 A 
HETATM   17  C   UNL     1     -40.874 -54.192  13.315  1.00  0.00     0.007 A 
HETATM   18  C   UNL     1     -40.105 -52.929  13.582  1.00  0.00     0.007 A 
ENDBRANCH  15  16
ENDBRANCH   4  15
TORSDOF 3
ENDMDL
MODEL 5
REMARK VINA RESULT:      -5.0      3.009      6.065
REMARK  3 active torsions:
REMARK  status: ('A' for Active; 'I' for Inactive)
REMARK    1  A    between atoms: C_4  and  N_5 
REMARK       I    between atoms: N_5  and  C_6 
REMARK       I    between atoms: C_6  and  N_8 
REMARK    2  A    between atoms: N_8  and  C_9 
REMARK    3  A    between atoms: C_9  and  C_10 
ROOT
HETATM    1  N   UNL     1     -42.253 -48.677  10.902  1.00  0.00    -0.293 N 
HETATM    2  C   UNL     1     -42.772 -47.476  11.455  1.00  0.00     0.321 C 
HETATM    3  O   UNL     1     -42.391 -47.009  12.516  1.00  0.00    -0.247 OA
HETATM    4  N   UNL     1     -43.732 -46.914  10.676  1.00  0.00    -0.342 N 
HETATM    5  H   UNL     1     -42.616 -48.996  10.024  1.00  0.00     0.172 HD
HETATM    6  H   UNL     1     -44.140 -46.075  11.071  1.00  0.00     0.164 HD
ENDROOT
BRANCH   1   7
HETATM    7  C   UNL     1     -41.261 -49.453  11.480  1.00  0.00     0.127 A 
HETATM    8  C   UNL     1     -39.898 -49.318  11.371  1.00  0.00     0.076 A 
HETATM    9  C   UNL     1     -39.351 -50.367  12.143  1.00  0.00     0.025 A 
HETATM   10  C   UNL     1     -37.919 -50.681  12.355  1.00  0.00     0.070 C 
HETATM   11  N   UNL     1     -40.305 -51.113  12.710  1.00  0.00    -0.302 N 
HETATM   12  N   UNL     1     -41.452 -50.544  12.298  1.00  0.00    -0.281 N 
ATOM     13  HN  UNL     1     -40.189 -51.926  13.315  1.00  0.00     0.186 HD
HETATM   14  C   UNL     1     -42.696 -51.126  12.742  1.00  0.00     0.179 C 
ENDBRANCH   1   7
BRANCH   4  15
HETATM   15  C   UNL     1     -44.273 -47.448   9.454  1.00  0.00     0.129 C 
BRANCH  15  16
HETATM   16  C   UNL     1     -45.686 -47.877   9.617  1.00  0.00     0.003 A 
HETATM   17  C   UNL     1     -46.481 -48.476   8.486  1.00  0.00     0.007 A 
HETATM   18  C   UNL     1     -46.759 -47.068   8.933  1.00  0.00     0.007 A 
ENDBRANCH  15  16
ENDBRANCH   4  15
TORSDOF 3
ENDMDL
MODEL 6
REMARK VINA RESULT:      -4.9      3.489      5.988
REMARK  3 active torsions:
REMARK  status: ('A' for Active; 'I' for Inactive)
REMARK    1  A    between atoms: C_4  and  N_5 
REMARK       I    between atoms: N_5  and  C_6 
REMARK       I    between atoms: C_6  and  N_8 
REMARK    2  A    between atoms: N_8  and  C_9 
REMARK    3  A    between atoms: C_9  and  C_10 
ROOT
HETATM    1  N   UNL     1     -42.623 -48.667  12.007  1.00  0.00    -0.293 N 
HETATM    2  C   UNL     1     -42.134 -49.998  12.088  1.00  0.00     0.321 C 
HETATM    3  O   UNL     1     -41.091 -50.360  11.569  1.00  0.00    -0.247 OA
HETATM    4  N   UNL     1     -42.953 -50.814  12.801  1.00  0.00    -0.342 N 
HETATM    5  H   UNL     1     -43.489 -48.446  12.463  1.00  0.00     0.172 HD
HETATM    6  H   UNL     1     -42.639 -51.777  12.840  1.00  0.00     0.164 HD
ENDROOT
BRANCH   1   7
HETATM    7  C   UNL     1     -41.987 -47.626  11.349  1.00  0.00     0.127 A 
HETATM    8  C   UNL     1     -40.925 -46.867  11.777  1.00  0.00     0.076 A 
HETATM    9  C   UNL     1     -40.678 -45.943  10.737  1.00  0.00     0.025 A 
HETATM   10  C   UNL     1     -39.641 -44.886  10.694  1.00  0.00     0.070 C 
HETATM   11  N   UNL     1     -41.523 -46.111   9.714  1.00  0.00    -0.302 N 
HETATM   12  N   UNL     1     -42.306 -47.134  10.103  1.00  0.00    -0.281 N 
ATOM     13  HN  UNL     1     -41.565 -45.586   8.841  1.00  0.00     0.186 HD
HETATM   14  C   UNL     1     -43.348 -47.572   9.205  1.00  0.00     0.179 C 
ENDBRANCH   1   7
BRANCH   4  15
HETATM   15  C   UNL     1     -44.225 -50.468  13.378  1.00  0.00     0.129 C 
BRANCH  15  16
HETATM   16  C   UNL     1     -45.162 -51.621  13.380  1.00  0.00     0.003 A 
HETATM   17  C   UNL     1     -46.471 -51.596  12.634  1.00  0.00     0.007 A 
HETATM   18  C   UNL     1     -46.461 -51.482  14.132  1.00  0.00     0.007 A 
ENDBRANCH  15  16
ENDBRANCH   4  15
TORSDOF 3
ENDMDL
MODEL 7
REMARK VINA RESULT:      -4.8      3.960      5.806
REMARK  3 active torsions:
REMARK  status: ('A' for Active; 'I' for Inactive)
REMARK    1  A    between atoms: C_4  and  N_5 
REMARK       I    between atoms: N_5  and  C_6 
REMARK       I    between atoms: C_6  and  N_8 
REMARK    2  A    between atoms: N_8  and  C_9 
REMARK    3  A    between atoms: C_9  and  C_10 
ROOT
HETATM    1  N   UNL     1     -41.916 -49.540  11.275  1.00  0.00    -0.293 N 
HETATM    2  C   UNL     1     -40.533 -49.763  11.509  1.00  0.00     0.321 C 
HETATM    3  O   UNL     1     -39.695 -48.877  11.462  1.00  0.00    -0.247 OA
HETATM    4  N   UNL     1     -40.252 -51.063  11.787  1.00  0.00    -0.342 N 
HETATM    5  H   UNL     1     -42.543 -50.320  11.334  1.00  0.00     0.172 HD
HETATM    6  H   UNL     1     -39.265 -51.248  11.922  1.00  0.00     0.164 HD
ENDROOT
BRANCH   1   7
HETATM    7  C   UNL     1     -42.483 -48.310  10.978  1.00  0.00     0.127 A 
HETATM    8  C   UNL     1     -42.805 -47.794   9.747  1.00  0.00     0.076 A 
HETATM    9  C   UNL     1     -43.341 -46.512  10.004  1.00  0.00     0.025 A 
HETATM   10  C   UNL     1     -43.838 -45.526   9.016  1.00  0.00     0.070 C 
HETATM   11  N   UNL     1     -43.364 -46.239  11.312  1.00  0.00    -0.302 N 
HETATM   12  N   UNL     1     -42.842 -47.339  11.885  1.00  0.00    -0.281 N 
ATOM     13  HN  UNL     1     -43.700 -45.392  11.771  1.00  0.00     0.186 HD
HETATM   14  C   UNL     1     -42.721 -47.364  13.323  1.00  0.00     0.179 C 
ENDBRANCH   1   7
BRANCH   4  15
HETATM   15  C   UNL     1     -41.179 -52.163  11.790  1.00  0.00     0.129 C 
BRANCH  15  16
HETATM   16  C   UNL     1     -41.180 -52.879  13.092  1.00  0.00     0.003 A 
HETATM   17  C   UNL     1     -40.730 -54.311  13.223  1.00  0.00     0.007 A 
HETATM   18  C   UNL     1     -42.193 -53.977  13.300  1.00  0.00     0.007 A 
ENDBRANCH  15  16
ENDBRANCH   4  15
TORSDOF 3
ENDMDL
MODEL 8
REMARK VINA RESULT:      -4.7      7.072      9.026
REMARK  3 active torsions:
REMARK  status: ('A' for Active; 'I' for Inactive)
REMARK    1  A    between atoms: C_4  and  N_5 
REMARK       I    between atoms: N_5  and  C_6 
REMARK       I    between atoms: C_6  and  N_8 
REMARK    2  A    between atoms: N_8  and  C_9 
REMARK    3  A    between atoms: C_9  and  C_10 
ROOT
HETATM    1  N   UNL     1     -43.842 -53.208  14.125  1.00  0.00    -0.293 N 
HETATM    2  C   UNL     1     -44.711 -53.988  13.317  1.00  0.00     0.321 C 
HETATM    3  O   UNL     1     -44.422 -54.362  12.191  1.00  0.00    -0.247 OA
HETATM    4  N   UNL     1     -45.889 -54.267  13.932  1.00  0.00    -0.342 N 
HETATM    5  H   UNL     1     -44.151 -52.941  15.041  1.00  0.00     0.172 HD
HETATM    6  H   UNL     1     -46.537 -54.793  13.357  1.00  0.00     0.164 HD
ENDROOT
BRANCH   1   7
HETATM    7  C   UNL     1     -42.575 -52.786  13.752  1.00  0.00     0.127 A 
HETATM    8  C   UNL     1     -42.230 -51.728  12.946  1.00  0.00     0.076 A 
HETATM    9  C   UNL     1     -40.819 -51.747  12.882  1.00  0.00     0.025 A 
HETATM   10  C   UNL     1     -39.936 -50.822  12.134  1.00  0.00     0.070 C 
HETATM   11  N   UNL     1     -40.304 -52.746  13.606  1.00  0.00    -0.302 N 
HETATM   12  N   UNL     1     -41.382 -53.362  14.125  1.00  0.00    -0.281 N 
ATOM     13  HN  UNL     1     -39.322 -52.987  13.735  1.00  0.00     0.186 HD
HETATM   14  C   UNL     1     -41.166 -54.511  14.972  1.00  0.00     0.179 C 
ENDBRANCH   1   7
BRANCH   4  15
HETATM   15  C   UNL     1     -46.318 -53.801  15.225  1.00  0.00     0.129 C 
BRANCH  15  16
HETATM   16  C   UNL     1     -47.225 -52.630  15.115  1.00  0.00     0.003 A 
HETATM   17  C   UNL     1     -46.805 -51.346  14.448  1.00  0.00     0.007 A 
HETATM   18  C   UNL     1     -46.916 -51.409  15.945  1.00  0.00     0.007 A 
ENDBRANCH  15  16
ENDBRANCH   4  15
TORSDOF 3
ENDMDL
MODEL 9
REMARK VINA RESULT:      -4.7      5.578      6.138
REMARK  3 active torsions:
REMARK  status: ('A' for Active; 'I' for Inactive)
REMARK    1  A    between atoms: C_4  and  N_5 
REMARK       I    between atoms: N_5  and  C_6 
REMARK       I    between atoms: C_6  and  N_8 
REMARK    2  A    between atoms: N_8  and  C_9 
REMARK    3  A    between atoms: C_9  and  C_10 
ROOT
HETATM    1  N   UNL     1     -42.362 -51.322  12.246  1.00  0.00    -0.293 N 
HETATM    2  C   UNL     1     -41.028 -51.564  11.825  1.00  0.00     0.321 C 
HETATM    3  O   UNL     1     -40.428 -52.600  12.063  1.00  0.00    -0.247 OA
HETATM    4  N   UNL     1     -40.500 -50.519  11.135  1.00  0.00    -0.342 N 
HETATM    5  H   UNL     1     -42.788 -50.446  12.010  1.00  0.00     0.172 HD
HETATM    6  H   UNL     1     -39.536 -50.659  10.857  1.00  0.00     0.164 HD
ENDROOT
BRANCH   1   7
HETATM    7  C   UNL     1     -43.144 -52.218  12.960  1.00  0.00     0.127 A 
HETATM    8  C   UNL     1     -43.879 -53.277  12.486  1.00  0.00     0.076 A 
HETATM    9  C   UNL     1     -44.491 -53.851  13.623  1.00  0.00     0.025 A 
HETATM   10  C   UNL     1     -45.401 -55.019  13.666  1.00  0.00     0.070 C 
HETATM   11  N   UNL     1     -44.159 -53.202  14.744  1.00  0.00    -0.302 N 
HETATM   12  N   UNL     1     -43.342 -52.219  14.322  1.00  0.00    -0.281 N 
ATOM     13  HN  UNL     1     -44.455 -53.406  15.698  1.00  0.00     0.186 HD
HETATM   14  C   UNL     1     -42.800 -51.317  15.310  1.00  0.00     0.179 C 
ENDBRANCH   1   7
BRANCH   4  15
HETATM   15  C   UNL     1     -41.127 -49.249  10.881  1.00  0.00     0.129 C 
BRANCH  15  16
HETATM   16  C   UNL     1     -40.440 -48.143  11.595  1.00  0.00     0.003 A 
HETATM   17  C   UNL     1     -41.197 -47.050  12.305  1.00  0.00     0.007 A 
HETATM   18  C   UNL     1     -40.510 -46.759  11.000  1.00  0.00     0.007 A 
ENDBRANCH  15  16
ENDBRANCH   4  15
TORSDOF 3
ENDMDL
