MODEL 1
REMARK VINA RESULT:      -6.1      0.000      0.000
REMARK  7 active torsions:
REMARK  status: ('A' for Active; 'I' for Inactive)
REMARK    1  A    between atoms: O_2  and  C_3 
REMARK    2  A    between atoms: C_6  and  O_7 
REMARK    3  A    between atoms: O_7  and  C_8 
REMARK    4  A    between atoms: C_8  and  C_9 
REMARK    5  A    between atoms: C_9  and  N_10 
REMARK    6  A    between atoms: C_11  and  C_12 
REMARK    7  A    between atoms: C_12  and  O_13 
ROOT
HETATM    1  N   UNL     1     -42.662 -52.463  13.988  1.00  0.00    -0.331 N 
HETATM    2  C   UNL     1     -42.440 -53.346  12.950  1.00  0.00     0.108 A 
HETATM    3  N   UNL     1     -43.556 -53.569  12.283  1.00  0.00    -0.342 N 
ATOM      4  HN  UNL     1     -43.671 -54.162  11.461  1.00  0.00     0.167 HD
HETATM    5  C   UNL     1     -44.528 -52.841  12.918  1.00  0.00     0.060 A 
HETATM    6  C   UNL     1     -45.898 -52.745  12.624  1.00  0.00     0.032 A 
HETATM    7  C   UNL     1     -46.709 -51.933  13.426  1.00  0.00     0.002 A 
HETATM    8  C   UNL     1     -46.164 -51.223  14.493  1.00  0.00     0.002 A 
HETATM    9  C   UNL     1     -44.799 -51.302  14.797  1.00  0.00     0.032 A 
HETATM   10  C   UNL     1     -44.001 -52.128  13.993  1.00  0.00     0.062 A 
ENDROOT
BRANCH   1  11
HETATM   11  C   UNL     1     -41.665 -51.965  14.916  1.00  0.00     0.157 C 
BRANCH  11  12
HETATM   12  C   UNL     1     -41.141 -50.588  14.521  1.00  0.00     0.196 C 
BRANCH  12  13
HETATM   13  O   UNL     1     -40.838 -50.526  13.124  1.00  0.00    -0.350 OA
BRANCH  13  14
HETATM   14  C   UNL     1     -41.518 -49.601  12.386  1.00  0.00     0.069 A 
HETATM   15  C   UNL     1     -40.888 -49.180  11.216  1.00  0.00     0.039 A 
HETATM   16  C   UNL     1     -41.509 -48.264  10.364  1.00  0.00     0.039 A 
HETATM   17  C   UNL     1     -42.785 -47.785  10.663  1.00  0.00     0.068 A 
HETATM   18  C   UNL     1     -43.410 -48.192  11.835  1.00  0.00     0.039 A 
HETATM   19  C   UNL     1     -42.782 -49.099  12.690  1.00  0.00     0.039 A 
BRANCH  17  20
HETATM   20  O   UNL     1     -43.495 -46.901   9.899  1.00  0.00    -0.356 OA
HETATM   21  C   UNL     1     -43.667 -47.288   8.540  1.00  0.00     0.210 C 
ENDBRANCH  17  20
ENDBRANCH  13  14
ENDBRANCH  12  13
ENDBRANCH  11  12
ENDBRANCH   1  11
BRANCH   2  22
HETATM   22  C   UNL     1     -41.128 -53.988  12.648  1.00  0.00     0.240 C 
BRANCH  22  23
HETATM   23  O   UNL     1     -40.509 -53.270  11.590  1.00  0.00    -0.393 OA
HETATM   24  H   UNL     1     -40.817 -52.350  11.677  1.00  0.00     0.209 HD
ENDBRANCH  22  23
ENDBRANCH   2  22
TORSDOF 7
ENDMDL
MODEL 2
REMARK VINA RESULT:      -5.8      2.053      2.802
REMARK  7 active torsions:
REMARK  status: ('A' for Active; 'I' for Inactive)
REMARK    1  A    between atoms: O_2  and  C_3 
REMARK    2  A    between atoms: C_6  and  O_7 
REMARK    3  A    between atoms: O_7  and  C_8 
REMARK    4  A    between atoms: C_8  and  C_9 
REMARK    5  A    between atoms: C_9  and  N_10 
REMARK    6  A    between atoms: C_11  and  C_12 
REMARK    7  A    between atoms: C_12  and  O_13 
ROOT
HETATM    1  N   UNL     1     -41.494 -53.211  12.997  1.00  0.00    -0.331 N 
HETATM    2  C   UNL     1     -40.784 -53.889  13.966  1.00  0.00     0.108 A 
HETATM    3  N   UNL     1     -41.588 -54.649  14.685  1.00  0.00    -0.342 N 
ATOM      4  HN  UNL     1     -41.324 -55.269  15.451  1.00  0.00     0.167 HD
HETATM    5  C   UNL     1     -42.850 -54.436  14.194  1.00  0.00     0.060 A 
HETATM    6  C   UNL     1     -44.071 -54.982  14.619  1.00  0.00     0.032 A 
HETATM    7  C   UNL     1     -45.249 -54.608  13.961  1.00  0.00     0.002 A 
HETATM    8  C   UNL     1     -45.208 -53.715  12.892  1.00  0.00     0.002 A 
HETATM    9  C   UNL     1     -43.998 -53.165  12.449  1.00  0.00     0.032 A 
HETATM   10  C   UNL     1     -42.828 -53.540  13.126  1.00  0.00     0.062 A 
ENDROOT
BRANCH   1  11
HETATM   11  C   UNL     1     -40.942 -52.307  12.005  1.00  0.00     0.157 C 
BRANCH  11  12
HETATM   12  C   UNL     1     -40.908 -50.862  12.492  1.00  0.00     0.196 C 
BRANCH  12  13
HETATM   13  O   UNL     1     -41.925 -50.075  11.865  1.00  0.00    -0.350 OA
BRANCH  13  14
HETATM   14  C   UNL     1     -41.568 -48.827  11.444  1.00  0.00     0.069 A 
HETATM   15  C   UNL     1     -42.526 -48.145  10.695  1.00  0.00     0.039 A 
HETATM   16  C   UNL     1     -42.283 -46.846  10.245  1.00  0.00     0.039 A 
HETATM   17  C   UNL     1     -41.086 -46.206  10.568  1.00  0.00     0.068 A 
HETATM   18  C   UNL     1     -40.124 -46.888  11.302  1.00  0.00     0.039 A 
HETATM   19  C   UNL     1     -40.365 -48.190  11.743  1.00  0.00     0.039 A 
BRANCH  17  20
HETATM   20  O   UNL     1     -40.746 -44.935  10.196  1.00  0.00    -0.356 OA
HETATM   21  C   UNL     1     -39.383 -44.764   9.825  1.00  0.00     0.210 C 
ENDBRANCH  17  20
ENDBRANCH  13  14
ENDBRANCH  12  13
ENDBRANCH  11  12
ENDBRANCH   1  11
BRANCH   2  22
HETATM   22  C   UNL     1     -39.316 -53.755  14.193  1.00  0.00     0.240 C 
BRANCH  22  23
HETATM   23  O   UNL     1     -38.647 -54.715  13.388  1.00  0.00    -0.393 OA
HETATM   24  H   UNL     1     -38.022 -55.170  13.982  1.00  0.00     0.209 HD
ENDBRANCH  22  23
ENDBRANCH   2  22
TORSDOF 7
ENDMDL
MODEL 3
REMARK VINA RESULT:      -5.6      2.689      5.506
REMARK  7 active torsions:
REMARK  status: ('A' for Active; 'I' for Inactive)
REMARK    1  A    between atoms: O_2  and  C_3 
REMARK    2  A    between atoms: C_6  and  O_7 
REMARK    3  A    between atoms: O_7  and  C_8 
REMARK    4  A    between atoms: C_8  and  C_9 
REMARK    5  A    between atoms: C_9  and  N_10 
REMARK    6  A    between atoms: C_11  and  C_12 
REMARK    7  A    between atoms: C_12  and  O_13 
ROOT
HETATM    1  N   UNL     1     -39.731 -50.042  13.131  1.00  0.00    -0.331 N 
HETATM    2  C   UNL     1     -38.801 -50.046  12.112  1.00  0.00     0.108 A 
HETATM    3  N   UNL     1     -39.282 -49.444  11.041  1.00  0.00    -0.342 N 
ATOM      4  HN  UNL     1     -38.800 -49.289  10.155  1.00  0.00     0.167 HD
HETATM    5  C   UNL     1     -40.561 -49.069  11.360  1.00  0.00     0.060 A 
HETATM    6  C   UNL     1     -41.518 -48.415  10.568  1.00  0.00     0.032 A 
HETATM    7  C   UNL     1     -42.777 -48.136  11.113  1.00  0.00     0.002 A 
HETATM    8  C   UNL     1     -43.073 -48.493  12.427  1.00  0.00     0.002 A 
HETATM    9  C   UNL     1     -42.129 -49.141  13.235  1.00  0.00     0.032 A 
HETATM   10  C   UNL     1     -40.877 -49.424  12.671  1.00  0.00     0.062 A 
ENDROOT
BRANCH   1  11
HETATM   11  C   UNL     1     -39.545 -50.587  14.463  1.00  0.00     0.157 C 
BRANCH  11  12
HETATM   12  C   UNL     1     -40.021 -52.032  14.569  1.00  0.00     0.196 C 
BRANCH  12  13
HETATM   13  O   UNL     1     -40.591 -52.487  13.339  1.00  0.00    -0.350 OA
BRANCH  13  14
HETATM   14  C   UNL     1     -41.811 -53.096  13.411  1.00  0.00     0.069 A 
HETATM   15  C   UNL     1     -42.753 -52.673  12.475  1.00  0.00     0.039 A 
HETATM   16  C   UNL     1     -44.022 -53.255  12.432  1.00  0.00     0.039 A 
HETATM   17  C   UNL     1     -44.348 -54.289  13.311  1.00  0.00     0.068 A 
HETATM   18  C   UNL     1     -43.416 -54.702  14.254  1.00  0.00     0.039 A 
HETATM   19  C   UNL     1     -42.151 -54.113  14.301  1.00  0.00     0.039 A 
BRANCH  17  20
HETATM   20  O   UNL     1     -45.549 -54.941  13.351  1.00  0.00    -0.356 OA
HETATM   21  C   UNL     1     -46.341 -54.667  14.501  1.00  0.00     0.210 C 
ENDBRANCH  17  20
ENDBRANCH  13  14
ENDBRANCH  12  13
ENDBRANCH  11  12
ENDBRANCH   1  11
BRANCH   2  22
HETATM   22  C   UNL     1     -37.452 -50.677  12.196  1.00  0.00     0.240 C 
BRANCH  22  23
HETATM   23  O   UNL     1     -37.183 -51.330  10.964  1.00  0.00    -0.393 OA
HETATM   24  H   UNL     1     -36.241 -51.170  10.778  1.00  0.00     0.209 HD
ENDBRANCH  22  23
ENDBRANCH   2  22
TORSDOF 7
ENDMDL
MODEL 4
REMARK VINA RESULT:      -5.6      1.874      2.277
REMARK  7 active torsions:
REMARK  status: ('A' for Active; 'I' for Inactive)
REMARK    1  A    between atoms: O_2  and  C_3 
REMARK    2  A    between atoms: C_6  and  O_7 
REMARK    3  A    between atoms: O_7  and  C_8 
REMARK    4  A    between atoms: C_8  and  C_9 
REMARK    5  A    between atoms: C_9  and  N_10 
REMARK    6  A    between atoms: C_11  and  C_12 
REMARK    7  A    between atoms: C_12  and  O_13 
ROOT
HETATM    1  N   UNL     1     -42.608 -52.009  13.252  1.00  0.00    -0.331 N 
HETATM    2  C   UNL     1     -42.229 -53.294  12.921  1.00  0.00     0.108 A 
HETATM    3  N   UNL     1     -43.272 -54.101  12.920  1.00  0.00    -0.342 N 
ATOM      4  HN  UNL     1     -43.279 -55.095  12.692  1.00  0.00     0.167 HD
HETATM    5  C   UNL     1     -44.346 -53.333  13.290  1.00  0.00     0.060 A 
HETATM    6  C   UNL     1     -45.687 -53.708  13.466  1.00  0.00     0.032 A 
HETATM    7  C   UNL     1     -46.618 -52.739  13.856  1.00  0.00     0.002 A 
HETATM    8  C   UNL     1     -46.222 -51.418  14.057  1.00  0.00     0.002 A 
HETATM    9  C   UNL     1     -44.889 -51.023  13.881  1.00  0.00     0.032 A 
HETATM   10  C   UNL     1     -43.966 -52.008  13.501  1.00  0.00     0.062 A 
ENDROOT
BRANCH   1  11
HETATM   11  C   UNL     1     -41.737 -50.851  13.324  1.00  0.00     0.157 C 
BRANCH  11  12
HETATM   12  C   UNL     1     -41.618 -50.130  11.986  1.00  0.00     0.196 C 
BRANCH  12  13
HETATM   13  O   UNL     1     -40.416 -49.357  11.914  1.00  0.00    -0.350 OA
BRANCH  13  14
HETATM   14  C   UNL     1     -40.542 -48.055  11.525  1.00  0.00     0.069 A 
HETATM   15  C   UNL     1     -41.646 -47.769  10.723  1.00  0.00     0.039 A 
HETATM   16  C   UNL     1     -41.895 -46.462  10.297  1.00  0.00     0.039 A 
HETATM   17  C   UNL     1     -41.054 -45.423  10.698  1.00  0.00     0.068 A 
HETATM   18  C   UNL     1     -39.946 -45.708  11.485  1.00  0.00     0.039 A 
HETATM   19  C   UNL     1     -39.693 -47.016  11.902  1.00  0.00     0.039 A 
BRANCH  17  20
HETATM   20  O   UNL     1     -41.207 -44.108  10.357  1.00  0.00    -0.356 OA
HETATM   21  C   UNL     1     -41.541 -43.245  11.437  1.00  0.00     0.210 C 
ENDBRANCH  17  20
ENDBRANCH  13  14
ENDBRANCH  12  13
ENDBRANCH  11  12
ENDBRANCH   1  11
BRANCH   2  22
HETATM   22  C   UNL     1     -40.827 -53.719  12.638  1.00  0.00     0.240 C 
BRANCH  22  23
HETATM   23  O   UNL     1     -40.549 -53.467  11.268  1.00  0.00    -0.393 OA
HETATM   24  H   UNL     1     -41.007 -52.635  11.053  1.00  0.00     0.209 HD
ENDBRANCH  22  23
ENDBRANCH   2  22
TORSDOF 7
ENDMDL
MODEL 5
REMARK VINA RESULT:      -5.5      2.747      3.533
REMARK  7 active torsions:
REMARK  status: ('A' for Active; 'I' for Inactive)
REMARK    1  A    between atoms: O_2  and  C_3 
REMARK    2  A    between atoms: C_6  and  O_7 
REMARK    3  A    between atoms: O_7  and  C_8 
REMARK    4  A    between atoms: C_8  and  C_9 
REMARK    5  A    between atoms: C_9  and  N_10 
REMARK    6  A    between atoms: C_11  and  C_12 
REMARK    7  A    between atoms: C_12  and  O_13 
ROOT
HETATM    1  N   UNL     1     -42.636 -50.566  12.699  1.00  0.00    -0.331 N 
HETATM    2  C   UNL     1     -41.636 -51.326  12.128  1.00  0.00     0.108 A 
HETATM    3  N   UNL     1     -42.024 -52.581  11.998  1.00  0.00    -0.342 N 
ATOM      4  HN  UNL     1     -41.490 -53.348  11.589  1.00  0.00     0.167 HD
HETATM    5  C   UNL     1     -43.288 -52.643  12.523  1.00  0.00     0.060 A 
HETATM    6  C   UNL     1     -44.142 -53.750  12.652  1.00  0.00     0.032 A 
HETATM    7  C   UNL     1     -45.403 -53.572  13.233  1.00  0.00     0.002 A 
HETATM    8  C   UNL     1     -45.809 -52.312  13.669  1.00  0.00     0.002 A 
HETATM    9  C   UNL     1     -44.973 -51.194  13.544  1.00  0.00     0.032 A 
HETATM   10  C   UNL     1     -43.708 -51.391  12.970  1.00  0.00     0.062 A 
ENDROOT
BRANCH   1  11
HETATM   11  C   UNL     1     -42.579 -49.141  12.970  1.00  0.00     0.157 C 
BRANCH  11  12
HETATM   12  C   UNL     1     -43.108 -48.309  11.807  1.00  0.00     0.196 C 
BRANCH  12  13
HETATM   13  O   UNL     1     -42.056 -47.927  10.915  1.00  0.00    -0.350 OA
BRANCH  13  14
HETATM   14  C   UNL     1     -41.568 -46.659  11.043  1.00  0.00     0.069 A 
HETATM   15  C   UNL     1     -42.482 -45.702  11.479  1.00  0.00     0.039 A 
HETATM   16  C   UNL     1     -42.083 -44.379  11.682  1.00  0.00     0.039 A 
HETATM   17  C   UNL     1     -40.753 -44.010  11.477  1.00  0.00     0.068 A 
HETATM   18  C   UNL     1     -39.843 -44.959  11.028  1.00  0.00     0.039 A 
HETATM   19  C   UNL     1     -40.247 -46.279  10.817  1.00  0.00     0.039 A 
BRANCH  17  20
HETATM   20  O   UNL     1     -40.246 -42.753  11.657  1.00  0.00    -0.356 OA
HETATM   21  C   UNL     1     -41.209 -41.706  11.604  1.00  0.00     0.210 C 
ENDBRANCH  17  20
ENDBRANCH  13  14
ENDBRANCH  12  13
ENDBRANCH  11  12
ENDBRANCH   1  11
BRANCH   2  22
HETATM   22  C   UNL     1     -40.290 -50.810  11.745  1.00  0.00     0.240 C 
BRANCH  22  23
HETATM   23  O   UNL     1     -40.387 -50.212  10.460  1.00  0.00    -0.393 OA
HETATM   24  H   UNL     1     -39.872 -49.387  10.512  1.00  0.00     0.209 HD
ENDBRANCH  22  23
ENDBRANCH   2  22
TORSDOF 7
ENDMDL
MODEL 6
REMARK VINA RESULT:      -5.5      3.078      4.630
REMARK  7 active torsions:
REMARK  status: ('A' for Active; 'I' for Inactive)
REMARK    1  A    between atoms: O_2  and  C_3 
REMARK    2  A    between atoms: C_6  and  O_7 
REMARK    3  A    between atoms: O_7  and  C_8 
REMARK    4  A    between atoms: C_8  and  C_9 
REMARK    5  A    between atoms: C_9  and  N_10 
REMARK    6  A    between atoms: C_11  and  C_12 
REMARK    7  A    between atoms: C_12  and  O_13 
ROOT
HETATM    1  N   UNL     1     -42.707 -52.527  14.080  1.00  0.00    -0.331 N 
HETATM    2  C   UNL     1     -42.415 -53.212  12.918  1.00  0.00     0.108 A 
HETATM    3  N   UNL     1     -43.476 -53.270  12.135  1.00  0.00    -0.342 N 
ATOM      4  HN  UNL     1     -43.533 -53.698  11.211  1.00  0.00     0.167 HD
HETATM    5  C   UNL     1     -44.484 -52.638  12.815  1.00  0.00     0.060 A 
HETATM    6  C   UNL     1     -45.822 -52.442  12.437  1.00  0.00     0.032 A 
HETATM    7  C   UNL     1     -46.682 -51.763  13.309  1.00  0.00     0.002 A 
HETATM    8  C   UNL     1     -46.214 -51.279  14.529  1.00  0.00     0.002 A 
HETATM    9  C   UNL     1     -44.880 -51.460  14.920  1.00  0.00     0.032 A 
HETATM   10  C   UNL     1     -44.034 -52.152  14.042  1.00  0.00     0.062 A 
ENDROOT
BRANCH   1  11
HETATM   11  C   UNL     1     -41.781 -52.241  15.160  1.00  0.00     0.157 C 
BRANCH  11  12
HETATM   12  C   UNL     1     -41.095 -50.890  14.995  1.00  0.00     0.196 C 
BRANCH  12  13
HETATM   13  O   UNL     1     -39.851 -51.017  14.299  1.00  0.00    -0.350 OA
BRANCH  13  14
HETATM   14  C   UNL     1     -38.842 -50.179  14.679  1.00  0.00     0.069 A 
HETATM   15  C   UNL     1     -37.984 -50.674  15.659  1.00  0.00     0.039 A 
HETATM   16  C   UNL     1     -36.894 -49.918  16.097  1.00  0.00     0.039 A 
HETATM   17  C   UNL     1     -36.639 -48.668  15.533  1.00  0.00     0.068 A 
HETATM   18  C   UNL     1     -37.500 -48.166  14.566  1.00  0.00     0.039 A 
HETATM   19  C   UNL     1     -38.594 -48.920  14.137  1.00  0.00     0.039 A 
BRANCH  17  20
HETATM   20  O   UNL     1     -35.597 -47.848  15.870  1.00  0.00    -0.356 OA
HETATM   21  C   UNL     1     -35.401 -47.675  17.268  1.00  0.00     0.210 C 
ENDBRANCH  17  20
ENDBRANCH  13  14
ENDBRANCH  12  13
ENDBRANCH  11  12
ENDBRANCH   1  11
BRANCH   2  22
HETATM   22  C   UNL     1     -41.095 -53.833  12.607  1.00  0.00     0.240 C 
BRANCH  22  23
HETATM   23  O   UNL     1     -40.596 -53.250  11.411  1.00  0.00    -0.393 OA
HETATM   24  H   UNL     1     -39.886 -52.644  11.687  1.00  0.00     0.209 HD
ENDBRANCH  22  23
ENDBRANCH   2  22
TORSDOF 7
ENDMDL
MODEL 7
REMARK VINA RESULT:      -5.4      3.149      6.058
REMARK  7 active torsions:
REMARK  status: ('A' for Active; 'I' for Inactive)
REMARK    1  A    between atoms: O_2  and  C_3 
REMARK    2  A    between atoms: C_6  and  O_7 
REMARK    3  A    between atoms: O_7  and  C_8 
REMARK    4  A    between atoms: C_8  and  C_9 
REMARK    5  A    between atoms: C_9  and  N_10 
REMARK    6  A    between atoms: C_11  and  C_12 
REMARK    7  A    between atoms: C_12  and  O_13 
ROOT
HETATM    1  N   UNL     1     -41.940 -53.413  13.855  1.00  0.00    -0.331 N 
HETATM    2  C   UNL     1     -40.745 -53.016  13.289  1.00  0.00     0.108 A 
HETATM    3  N   UNL     1     -39.735 -53.665  13.836  1.00  0.00    -0.342 N 
ATOM      4  HN  UNL     1     -38.748 -53.580  13.593  1.00  0.00     0.167 HD
HETATM    5  C   UNL     1     -40.281 -54.474  14.798  1.00  0.00     0.060 A 
HETATM    6  C   UNL     1     -39.640 -55.353  15.686  1.00  0.00     0.032 A 
HETATM    7  C   UNL     1     -40.414 -56.083  16.597  1.00  0.00     0.002 A 
HETATM    8  C   UNL     1     -41.800 -55.946  16.615  1.00  0.00     0.002 A 
HETATM    9  C   UNL     1     -42.458 -55.079  15.733  1.00  0.00     0.032 A 
HETATM   10  C   UNL     1     -41.669 -54.346  14.834  1.00  0.00     0.062 A 
ENDROOT
BRANCH   1  11
HETATM   11  C   UNL     1     -43.261 -52.938  13.487  1.00  0.00     0.157 C 
BRANCH  11  12
HETATM   12  C   UNL     1     -43.974 -53.889  12.532  1.00  0.00     0.196 C 
BRANCH  12  13
HETATM   13  O   UNL     1     -45.232 -54.317  13.063  1.00  0.00    -0.350 OA
BRANCH  13  14
HETATM   14  C   UNL     1     -45.865 -53.461  13.918  1.00  0.00     0.069 A 
HETATM   15  C   UNL     1     -45.943 -53.881  15.244  1.00  0.00     0.039 A 
HETATM   16  C   UNL     1     -46.535 -53.068  16.213  1.00  0.00     0.039 A 
HETATM   17  C   UNL     1     -47.029 -51.810  15.864  1.00  0.00     0.068 A 
HETATM   18  C   UNL     1     -46.965 -51.396  14.540  1.00  0.00     0.039 A 
HETATM   19  C   UNL     1     -46.381 -52.214  13.571  1.00  0.00     0.039 A 
BRANCH  17  20
HETATM   20  O   UNL     1     -47.614 -50.925  16.726  1.00  0.00    -0.356 OA
HETATM   21  C   UNL     1     -47.150 -51.003  18.069  1.00  0.00     0.210 C 
ENDBRANCH  17  20
ENDBRANCH  13  14
ENDBRANCH  12  13
ENDBRANCH  11  12
ENDBRANCH   1  11
BRANCH   2  22
HETATM   22  C   UNL     1     -40.611 -51.974  12.231  1.00  0.00     0.240 C 
BRANCH  22  23
HETATM   23  O   UNL     1     -41.076 -52.517  11.003  1.00  0.00    -0.393 OA
HETATM   24  H   UNL     1     -41.350 -51.754  10.462  1.00  0.00     0.209 HD
ENDBRANCH  22  23
ENDBRANCH   2  22
TORSDOF 7
ENDMDL
MODEL 8
REMARK VINA RESULT:      -5.2      1.762      2.838
REMARK  7 active torsions:
REMARK  status: ('A' for Active; 'I' for Inactive)
REMARK    1  A    between atoms: O_2  and  C_3 
REMARK    2  A    between atoms: C_6  and  O_7 
REMARK    3  A    between atoms: O_7  and  C_8 
REMARK    4  A    between atoms: C_8  and  C_9 
REMARK    5  A    between atoms: C_9  and  N_10 
REMARK    6  A    between atoms: C_11  and  C_12 
REMARK    7  A    between atoms: C_12  and  O_13 
ROOT
HETATM    1  N   UNL     1     -42.704 -53.137  14.121  1.00  0.00    -0.331 N 
HETATM    2  C   UNL     1     -42.478 -52.540  15.344  1.00  0.00     0.108 A 
HETATM    3  N   UNL     1     -43.519 -51.815  15.707  1.00  0.00    -0.342 N 
ATOM      4  HN  UNL     1     -43.627 -51.286  16.572  1.00  0.00     0.167 HD
HETATM    5  C   UNL     1     -44.426 -51.917  14.684  1.00  0.00     0.060 A 
HETATM    6  C   UNL     1     -45.690 -51.319  14.556  1.00  0.00     0.032 A 
HETATM    7  C   UNL     1     -46.446 -51.567  13.404  1.00  0.00     0.002 A 
HETATM    8  C   UNL     1     -45.956 -52.404  12.404  1.00  0.00     0.002 A 
HETATM    9  C   UNL     1     -44.699 -53.014  12.516  1.00  0.00     0.032 A 
HETATM   10  C   UNL     1     -43.949 -52.746  13.670  1.00  0.00     0.062 A 
ENDROOT
BRANCH   1  11
HETATM   11  C   UNL     1     -41.796 -54.027  13.422  1.00  0.00     0.157 C 
BRANCH  11  12
HETATM   12  C   UNL     1     -41.046 -53.323  12.296  1.00  0.00     0.196 C 
BRANCH  12  13
HETATM   13  O   UNL     1     -39.988 -52.506  12.804  1.00  0.00    -0.350 OA
BRANCH  13  14
HETATM   14  C   UNL     1     -40.013 -51.183  12.467  1.00  0.00     0.069 A 
HETATM   15  C   UNL     1     -38.783 -50.529  12.496  1.00  0.00     0.039 A 
HETATM   16  C   UNL     1     -38.685 -49.184  12.133  1.00  0.00     0.039 A 
HETATM   17  C   UNL     1     -39.818 -48.489  11.708  1.00  0.00     0.068 A 
HETATM   18  C   UNL     1     -41.047 -49.135  11.692  1.00  0.00     0.039 A 
HETATM   19  C   UNL     1     -41.145 -50.477  12.064  1.00  0.00     0.039 A 
BRANCH  17  20
HETATM   20  O   UNL     1     -39.839 -47.180  11.316  1.00  0.00    -0.356 OA
HETATM   21  C   UNL     1     -41.086 -46.730  10.800  1.00  0.00     0.210 C 
ENDBRANCH  17  20
ENDBRANCH  13  14
ENDBRANCH  12  13
ENDBRANCH  11  12
ENDBRANCH   1  11
BRANCH   2  22
HETATM   22  C   UNL     1     -41.218 -52.668  16.132  1.00  0.00     0.240 C 
BRANCH  22  23
HETATM   23  O   UNL     1     -40.314 -51.660  15.700  1.00  0.00    -0.393 OA
HETATM   24  H   UNL     1     -40.356 -51.665  14.727  1.00  0.00     0.209 HD
ENDBRANCH  22  23
ENDBRANCH   2  22
TORSDOF 7
ENDMDL
MODEL 9
REMARK VINA RESULT:      -5.2      2.406      3.907
REMARK  7 active torsions:
REMARK  status: ('A' for Active; 'I' for Inactive)
REMARK    1  A    between atoms: O_2  and  C_3 
REMARK    2  A    between atoms: C_6  and  O_7 
REMARK    3  A    between atoms: O_7  and  C_8 
REMARK    4  A    between atoms: C_8  and  C_9 
REMARK    5  A    between atoms: C_9  and  N_10 
REMARK    6  A    between atoms: C_11  and  C_12 
REMARK    7  A    between atoms: C_12  and  O_13 
ROOT
HETATM    1  N   UNL     1     -42.073 -53.283  13.057  1.00  0.00    -0.331 N 
HETATM    2  C   UNL     1     -43.398 -53.581  13.301  1.00  0.00     0.108 A 
HETATM    3  N   UNL     1     -43.513 -54.350  14.367  1.00  0.00    -0.342 N 
ATOM      4  HN  UNL     1     -44.377 -54.701  14.781  1.00  0.00     0.167 HD
HETATM    5  C   UNL     1     -42.235 -54.582  14.806  1.00  0.00     0.060 A 
HETATM    6  C   UNL     1     -41.796 -55.356  15.891  1.00  0.00     0.032 A 
HETATM    7  C   UNL     1     -40.423 -55.452  16.147  1.00  0.00     0.002 A 
HETATM    8  C   UNL     1     -39.506 -54.780  15.342  1.00  0.00     0.002 A 
HETATM    9  C   UNL     1     -39.925 -53.997  14.259  1.00  0.00     0.032 A 
HETATM   10  C   UNL     1     -41.302 -53.920  14.008  1.00  0.00     0.062 A 
ENDROOT
BRANCH   1  11
HETATM   11  C   UNL     1     -41.568 -52.441  11.989  1.00  0.00     0.157 C 
BRANCH  11  12
HETATM   12  C   UNL     1     -41.245 -51.029  12.466  1.00  0.00     0.196 C 
BRANCH  12  13
HETATM   13  O   UNL     1     -42.298 -50.115  12.145  1.00  0.00    -0.350 OA
BRANCH  13  14
HETATM   14  C   UNL     1     -41.929 -48.906  11.630  1.00  0.00     0.069 A 
HETATM   15  C   UNL     1     -42.971 -48.107  11.161  1.00  0.00     0.039 A 
HETATM   16  C   UNL     1     -42.714 -46.833  10.648  1.00  0.00     0.039 A 
HETATM   17  C   UNL     1     -41.410 -46.337  10.629  1.00  0.00     0.068 A 
HETATM   18  C   UNL     1     -40.368 -47.137  11.082  1.00  0.00     0.039 A 
HETATM   19  C   UNL     1     -40.626 -48.413  11.585  1.00  0.00     0.039 A 
BRANCH  17  20
HETATM   20  O   UNL     1     -41.042 -45.105  10.166  1.00  0.00    -0.356 OA
HETATM   21  C   UNL     1     -39.643 -44.847  10.194  1.00  0.00     0.210 C 
ENDBRANCH  17  20
ENDBRANCH  13  14
ENDBRANCH  12  13
ENDBRANCH  11  12
ENDBRANCH   1  11
BRANCH   2  22
HETATM   22  C   UNL     1     -44.541 -53.128  12.456  1.00  0.00     0.240 C 
BRANCH  22  23
HETATM   23  O   UNL     1     -45.660 -53.959  12.729  1.00  0.00    -0.393 OA
HETATM   24  H   UNL     1     -46.343 -53.705  12.083  1.00  0.00     0.209 HD
ENDBRANCH  22  23
ENDBRANCH   2  22
TORSDOF 7
ENDMDL
