MODEL 1
REMARK VINA RESULT:      -5.8      0.000      0.000
REMARK  3 active torsions:
REMARK  status: ('A' for Active; 'I' for Inactive)
REMARK    1  A    between atoms: C_2  and  C_3 
REMARK       I    between atoms: C_2  and  N_12 
REMARK    2  A    between atoms: C_3  and  N_4 
REMARK    3  A    between atoms: N_12  and  C_13 
ROOT
HETATM    1  C   UNL     1     -42.049 -46.102  10.108  1.00  0.00     0.235 C 
ENDROOT
BRANCH   1   2
HETATM    2  C   UNL     1     -41.597 -46.877  11.351  1.00  0.00     0.236 C 
HETATM    3  O   UNL     1     -42.117 -46.700  12.450  1.00  0.00    -0.272 OA
HETATM    4  N   UNL     1     -40.540 -47.734  11.121  1.00  0.00    -0.355 N 
HETATM    5  H   UNL     1     -40.040 -47.600  10.244  1.00  0.00     0.162 HD
BRANCH   4   6
HETATM    6  C   UNL     1     -39.874 -48.532  12.134  1.00  0.00     0.084 C 
HETATM    7  C   UNL     1     -39.000 -47.764  13.137  1.00  0.00     0.025 C 
HETATM    8  C   UNL     1     -37.791 -48.663  13.416  1.00  0.00     0.002 C 
HETATM    9  C   UNL     1     -38.125 -50.010  12.791  1.00  0.00     0.002 C 
HETATM   10  C   UNL     1     -38.978 -49.643  11.588  1.00  0.00     0.025 C 
ENDBRANCH   4   6
ENDBRANCH   1   2
BRANCH   1  11
HETATM   11  N   UNL     1     -43.445 -46.382   9.768  1.00  0.00    -0.301 N 
HETATM   12  C   UNL     1     -43.943 -47.661   9.909  1.00  0.00     0.102 A 
HETATM   13  C   UNL     1     -45.198 -47.968   9.572  1.00  0.00     0.092 A 
HETATM   14  C   UNL     1     -46.071 -46.913   9.036  1.00  0.00     0.250 A 
HETATM   15  O   UNL     1     -47.223 -47.154   8.693  1.00  0.00    -0.268 OA
HETATM   16  N   UNL     1     -45.511 -45.669   8.947  1.00  0.00    -0.275 N 
HETATM   17  C   UNL     1     -44.232 -45.336   9.307  1.00  0.00     0.329 A 
HETATM   18  H   UNL     1     -46.097 -44.929   8.592  1.00  0.00     0.173 HD
HETATM   19  O   UNL     1     -43.832 -44.175   9.223  1.00  0.00    -0.246 OA
ENDBRANCH   1  11
TORSDOF 3
ENDMDL
MODEL 2
REMARK VINA RESULT:      -5.8      7.746      9.204
REMARK  3 active torsions:
REMARK  status: ('A' for Active; 'I' for Inactive)
REMARK    1  A    between atoms: C_2  and  C_3 
REMARK       I    between atoms: C_2  and  N_12 
REMARK    2  A    between atoms: C_3  and  N_4 
REMARK    3  A    between atoms: N_12  and  C_13 
ROOT
HETATM    1  C   UNL     1     -45.799 -54.516  14.401  1.00  0.00     0.235 C 
ENDROOT
BRANCH   1   2
HETATM    2  C   UNL     1     -45.937 -53.931  15.811  1.00  0.00     0.236 C 
HETATM    3  O   UNL     1     -45.822 -54.627  16.817  1.00  0.00    -0.272 OA
HETATM    4  N   UNL     1     -46.244 -52.585  15.829  1.00  0.00    -0.355 N 
HETATM    5  H   UNL     1     -46.562 -52.188  14.947  1.00  0.00     0.162 HD
BRANCH   4   6
HETATM    6  C   UNL     1     -46.498 -51.800  17.024  1.00  0.00     0.084 C 
HETATM    7  C   UNL     1     -47.961 -51.410  17.282  1.00  0.00     0.025 C 
HETATM    8  C   UNL     1     -47.921 -49.997  17.873  1.00  0.00     0.002 C 
HETATM    9  C   UNL     1     -46.458 -49.722  18.188  1.00  0.00     0.002 C 
HETATM   10  C   UNL     1     -45.712 -50.494  17.111  1.00  0.00     0.025 C 
ENDBRANCH   4   6
ENDBRANCH   1   2
BRANCH   1  11
HETATM   11  N   UNL     1     -44.553 -54.099  13.757  1.00  0.00    -0.301 N 
HETATM   12  C   UNL     1     -43.340 -54.477  14.297  1.00  0.00     0.102 A 
HETATM   13  C   UNL     1     -42.180 -54.084  13.764  1.00  0.00     0.092 A 
HETATM   14  C   UNL     1     -42.198 -53.224  12.572  1.00  0.00     0.250 A 
HETATM   15  O   UNL     1     -41.157 -52.821  12.063  1.00  0.00    -0.268 OA
HETATM   16  N   UNL     1     -43.436 -52.910  12.085  1.00  0.00    -0.275 N 
HETATM   17  C   UNL     1     -44.633 -53.323  12.610  1.00  0.00     0.329 A 
HETATM   18  H   UNL     1     -43.469 -52.330  11.261  1.00  0.00     0.173 HD
HETATM   19  O   UNL     1     -45.698 -53.015  12.075  1.00  0.00    -0.246 OA
ENDBRANCH   1  11
TORSDOF 3
ENDMDL
MODEL 3
REMARK VINA RESULT:      -5.7      4.255      6.401
REMARK  3 active torsions:
REMARK  status: ('A' for Active; 'I' for Inactive)
REMARK    1  A    between atoms: C_2  and  C_3 
REMARK       I    between atoms: C_2  and  N_12 
REMARK    2  A    between atoms: C_3  and  N_4 
REMARK    3  A    between atoms: N_12  and  C_13 
ROOT
HETATM    1  C   UNL     1     -41.939 -49.991  12.914  1.00  0.00     0.235 C 
ENDROOT
BRANCH   1   2
HETATM    2  C   UNL     1     -41.873 -49.214  11.594  1.00  0.00     0.236 C 
HETATM    3  O   UNL     1     -40.856 -49.191  10.905  1.00  0.00    -0.272 OA
HETATM    4  N   UNL     1     -43.029 -48.521  11.296  1.00  0.00    -0.355 N 
HETATM    5  H   UNL     1     -43.694 -48.414  12.060  1.00  0.00     0.162 HD
BRANCH   4   6
HETATM    6  C   UNL     1     -43.211 -47.652  10.148  1.00  0.00     0.084 C 
HETATM    7  C   UNL     1     -42.615 -46.242  10.263  1.00  0.00     0.025 C 
HETATM    8  C   UNL     1     -43.602 -45.309   9.554  1.00  0.00     0.002 C 
HETATM    9  C   UNL     1     -44.583 -46.219   8.829  1.00  0.00     0.002 C 
HETATM   10  C   UNL     1     -44.665 -47.442   9.729  1.00  0.00     0.025 C 
ENDBRANCH   4   6
ENDBRANCH   1   2
BRANCH   1  11
HETATM   11  N   UNL     1     -42.796 -51.173  12.809  1.00  0.00    -0.301 N 
HETATM   12  C   UNL     1     -44.099 -51.118  13.259  1.00  0.00     0.102 A 
HETATM   13  C   UNL     1     -44.902 -52.185  13.219  1.00  0.00     0.092 A 
HETATM   14  C   UNL     1     -44.381 -53.450  12.682  1.00  0.00     0.250 A 
HETATM   15  O   UNL     1     -45.075 -54.460  12.647  1.00  0.00    -0.268 OA
HETATM   16  N   UNL     1     -43.089 -53.418  12.237  1.00  0.00    -0.275 N 
HETATM   17  C   UNL     1     -42.261 -52.326  12.254  1.00  0.00     0.329 A 
HETATM   18  H   UNL     1     -42.716 -54.273  11.855  1.00  0.00     0.173 HD
HETATM   19  O   UNL     1     -41.120 -52.390  11.796  1.00  0.00    -0.246 OA
ENDBRANCH   1  11
TORSDOF 3
ENDMDL
MODEL 4
REMARK VINA RESULT:      -5.5      3.810      5.282
REMARK  3 active torsions:
REMARK  status: ('A' for Active; 'I' for Inactive)
REMARK    1  A    between atoms: C_2  and  C_3 
REMARK       I    between atoms: C_2  and  N_12 
REMARK    2  A    between atoms: C_3  and  N_4 
REMARK    3  A    between atoms: N_12  and  C_13 
ROOT
HETATM    1  C   UNL     1     -42.035 -45.693  11.764  1.00  0.00     0.235 C 
ENDROOT
BRANCH   1   2
HETATM    2  C   UNL     1     -41.026 -44.576  11.471  1.00  0.00     0.236 C 
HETATM    3  O   UNL     1     -39.938 -44.806  10.949  1.00  0.00    -0.272 OA
HETATM    4  N   UNL     1     -41.439 -43.327  11.889  1.00  0.00    -0.355 N 
HETATM    5  H   UNL     1     -42.232 -43.310  12.528  1.00  0.00     0.162 HD
BRANCH   4   6
HETATM    6  C   UNL     1     -40.651 -42.112  11.798  1.00  0.00     0.084 C 
HETATM    7  C   UNL     1     -39.715 -41.819  12.980  1.00  0.00     0.025 C 
HETATM    8  C   UNL     1     -39.746 -40.299  13.174  1.00  0.00     0.002 C 
HETATM    9  C   UNL     1     -40.468 -39.742  11.956  1.00  0.00     0.002 C 
HETATM   10  C   UNL     1     -41.465 -40.834  11.603  1.00  0.00     0.025 C 
ENDBRANCH   4   6
ENDBRANCH   1   2
BRANCH   1  11
HETATM   11  N   UNL     1     -42.487 -46.355  10.540  1.00  0.00    -0.301 N 
HETATM   12  C   UNL     1     -43.372 -45.712   9.698  1.00  0.00     0.102 A 
HETATM   13  C   UNL     1     -43.841 -46.296   8.592  1.00  0.00     0.092 A 
HETATM   14  C   UNL     1     -43.403 -47.662   8.266  1.00  0.00     0.250 A 
HETATM   15  O   UNL     1     -43.825 -48.245   7.274  1.00  0.00    -0.268 OA
HETATM   16  N   UNL     1     -42.511 -48.222   9.137  1.00  0.00    -0.275 N 
HETATM   17  C   UNL     1     -42.007 -47.627  10.264  1.00  0.00     0.329 A 
HETATM   18  H   UNL     1     -42.190 -49.154   8.926  1.00  0.00     0.173 HD
HETATM   19  O   UNL     1     -41.177 -48.203  10.967  1.00  0.00    -0.246 OA
ENDBRANCH   1  11
TORSDOF 3
ENDMDL
MODEL 5
REMARK VINA RESULT:      -5.5      6.693      7.674
REMARK  3 active torsions:
REMARK  status: ('A' for Active; 'I' for Inactive)
REMARK    1  A    between atoms: C_2  and  C_3 
REMARK       I    between atoms: C_2  and  N_12 
REMARK    2  A    between atoms: C_3  and  N_4 
REMARK    3  A    between atoms: N_12  and  C_13 
ROOT
HETATM    1  C   UNL     1     -44.275 -53.503  12.464  1.00  0.00     0.235 C 
ENDROOT
BRANCH   1   2
HETATM    2  C   UNL     1     -42.865 -53.011  12.812  1.00  0.00     0.236 C 
HETATM    3  O   UNL     1     -42.326 -52.097  12.194  1.00  0.00    -0.272 OA
HETATM    4  N   UNL     1     -42.264 -53.718  13.834  1.00  0.00    -0.355 N 
HETATM    5  H   UNL     1     -42.704 -54.601  14.085  1.00  0.00     0.162 HD
BRANCH   4   6
HETATM    6  C   UNL     1     -40.910 -53.507  14.314  1.00  0.00     0.084 C 
HETATM    7  C   UNL     1     -39.849 -54.495  13.808  1.00  0.00     0.025 C 
HETATM    8  C   UNL     1     -38.896 -54.728  14.986  1.00  0.00     0.002 C 
HETATM    9  C   UNL     1     -39.267 -53.685  16.030  1.00  0.00     0.002 C 
HETATM   10  C   UNL     1     -40.763 -53.502  15.835  1.00  0.00     0.025 C 
ENDBRANCH   4   6
ENDBRANCH   1   2
BRANCH   1  11
HETATM   11  N   UNL     1     -45.260 -53.087  13.463  1.00  0.00    -0.301 N 
HETATM   12  C   UNL     1     -45.808 -51.822  13.401  1.00  0.00     0.102 A 
HETATM   13  C   UNL     1     -46.680 -51.387  14.315  1.00  0.00     0.092 A 
HETATM   14  C   UNL     1     -47.063 -52.282  15.417  1.00  0.00     0.250 A 
HETATM   15  O   UNL     1     -47.841 -51.917  16.291  1.00  0.00    -0.268 OA
HETATM   16  N   UNL     1     -46.493 -53.525  15.397  1.00  0.00    -0.275 N 
HETATM   17  C   UNL     1     -45.614 -53.990  14.454  1.00  0.00     0.329 A 
HETATM   18  H   UNL     1     -46.751 -54.157  16.138  1.00  0.00     0.173 HD
HETATM   19  O   UNL     1     -45.183 -55.142  14.504  1.00  0.00    -0.246 OA
ENDBRANCH   1  11
TORSDOF 3
ENDMDL
MODEL 6
REMARK VINA RESULT:      -5.4      4.555      5.767
REMARK  3 active torsions:
REMARK  status: ('A' for Active; 'I' for Inactive)
REMARK    1  A    between atoms: C_2  and  C_3 
REMARK       I    between atoms: C_2  and  N_12 
REMARK    2  A    between atoms: C_3  and  N_4 
REMARK    3  A    between atoms: N_12  and  C_13 
ROOT
HETATM    1  C   UNL     1     -41.792 -49.981  13.173  1.00  0.00     0.235 C 
ENDROOT
BRANCH   1   2
HETATM    2  C   UNL     1     -42.899 -51.000  13.469  1.00  0.00     0.236 C 
HETATM    3  O   UNL     1     -43.552 -50.964  14.509  1.00  0.00    -0.272 OA
HETATM    4  N   UNL     1     -43.046 -51.965  12.493  1.00  0.00    -0.355 N 
HETATM    5  H   UNL     1     -42.287 -52.036  11.818  1.00  0.00     0.162 HD
BRANCH   4   6
HETATM    6  C   UNL     1     -43.968 -53.084  12.555  1.00  0.00     0.084 C 
HETATM    7  C   UNL     1     -45.446 -52.734  12.785  1.00  0.00     0.025 C 
HETATM    8  C   UNL     1     -46.003 -53.837  13.691  1.00  0.00     0.002 C 
HETATM    9  C   UNL     1     -44.930 -54.916  13.736  1.00  0.00     0.002 C 
HETATM   10  C   UNL     1     -43.633 -54.132  13.614  1.00  0.00     0.025 C 
ENDBRANCH   4   6
ENDBRANCH   1   2
BRANCH   1  11
HETATM   11  N   UNL     1     -42.113 -49.150  12.012  1.00  0.00    -0.301 N 
HETATM   12  C   UNL     1     -43.247 -48.362  12.023  1.00  0.00     0.102 A 
HETATM   13  C   UNL     1     -43.598 -47.620  10.971  1.00  0.00     0.092 A 
HETATM   14  C   UNL     1     -42.754 -47.645   9.767  1.00  0.00     0.250 A 
HETATM   15  O   UNL     1     -43.050 -46.998   8.769  1.00  0.00    -0.268 OA
HETATM   16  N   UNL     1     -41.639 -48.433   9.841  1.00  0.00    -0.275 N 
HETATM   17  C   UNL     1     -41.256 -49.183  10.922  1.00  0.00     0.329 A 
HETATM   18  H   UNL     1     -41.041 -48.455   9.029  1.00  0.00     0.173 HD
HETATM   19  O   UNL     1     -40.211 -49.833  10.903  1.00  0.00    -0.246 OA
ENDBRANCH   1  11
TORSDOF 3
ENDMDL
MODEL 7
REMARK VINA RESULT:      -5.4      3.830      5.565
REMARK  3 active torsions:
REMARK  status: ('A' for Active; 'I' for Inactive)
REMARK    1  A    between atoms: C_2  and  C_3 
REMARK       I    between atoms: C_2  and  N_12 
REMARK    2  A    between atoms: C_3  and  N_4 
REMARK    3  A    between atoms: N_12  and  C_13 
ROOT
HETATM    1  C   UNL     1     -41.695 -49.358  11.607  1.00  0.00     0.235 C 
ENDROOT
BRANCH   1   2
HETATM    2  C   UNL     1     -42.827 -49.317  12.640  1.00  0.00     0.236 C 
HETATM    3  O   UNL     1     -43.017 -48.338  13.356  1.00  0.00    -0.272 OA
HETATM    4  N   UNL     1     -43.560 -50.485  12.712  1.00  0.00    -0.355 N 
HETATM    5  H   UNL     1     -43.148 -51.299  12.258  1.00  0.00     0.162 HD
BRANCH   4   6
HETATM    6  C   UNL     1     -44.638 -50.740  13.649  1.00  0.00     0.084 C 
HETATM    7  C   UNL     1     -44.296 -51.631  14.852  1.00  0.00     0.025 C 
HETATM    8  C   UNL     1     -45.542 -52.484  15.112  1.00  0.00     0.002 C 
HETATM    9  C   UNL     1     -46.641 -51.885  14.245  1.00  0.00     0.002 C 
HETATM   10  C   UNL     1     -45.890 -51.361  13.031  1.00  0.00     0.025 C 
ENDBRANCH   4   6
ENDBRANCH   1   2
BRANCH   1  11
HETATM   11  N   UNL     1     -41.288 -48.015  11.191  1.00  0.00    -0.301 N 
HETATM   12  C   UNL     1     -40.216 -47.401  11.806  1.00  0.00     0.102 A 
HETATM   13  C   UNL     1     -39.836 -46.162  11.485  1.00  0.00     0.092 A 
HETATM   14  C   UNL     1     -40.584 -45.433  10.449  1.00  0.00     0.250 A 
HETATM   15  O   UNL     1     -40.285 -44.285  10.139  1.00  0.00    -0.268 OA
HETATM   16  N   UNL     1     -41.618 -46.116   9.873  1.00  0.00    -0.275 N 
HETATM   17  C   UNL     1     -42.005 -47.395  10.178  1.00  0.00     0.329 A 
HETATM   18  H   UNL     1     -42.137 -45.637   9.153  1.00  0.00     0.173 HD
HETATM   19  O   UNL     1     -42.931 -47.937   9.575  1.00  0.00    -0.246 OA
ENDBRANCH   1  11
TORSDOF 3
ENDMDL
MODEL 8
REMARK VINA RESULT:      -5.3      2.816      4.000
REMARK  3 active torsions:
REMARK  status: ('A' for Active; 'I' for Inactive)
REMARK    1  A    between atoms: C_2  and  C_3 
REMARK       I    between atoms: C_2  and  N_12 
REMARK    2  A    between atoms: C_3  and  N_4 
REMARK    3  A    between atoms: N_12  and  C_13 
ROOT
HETATM    1  C   UNL     1     -40.782 -48.221  12.619  1.00  0.00     0.235 C 
ENDROOT
BRANCH   1   2
HETATM    2  C   UNL     1     -40.262 -49.597  12.186  1.00  0.00     0.236 C 
HETATM    3  O   UNL     1     -39.784 -49.788  11.071  1.00  0.00    -0.272 OA
HETATM    4  N   UNL     1     -40.430 -50.582  13.139  1.00  0.00    -0.355 N 
HETATM    5  H   UNL     1     -41.062 -50.358  13.905  1.00  0.00     0.162 HD
BRANCH   4   6
HETATM    6  C   UNL     1     -40.091 -51.982  12.963  1.00  0.00     0.084 C 
HETATM    7  C   UNL     1     -41.211 -52.891  12.435  1.00  0.00     0.025 C 
HETATM    8  C   UNL     1     -41.044 -54.230  13.161  1.00  0.00     0.002 C 
HETATM    9  C   UNL     1     -39.699 -54.150  13.870  1.00  0.00     0.002 C 
HETATM   10  C   UNL     1     -39.568 -52.676  14.219  1.00  0.00     0.025 C 
ENDBRANCH   4   6
ENDBRANCH   1   2
BRANCH   1  11
HETATM   11  N   UNL     1     -41.514 -47.551  11.542  1.00  0.00    -0.301 N 
HETATM   12  C   UNL     1     -42.802 -47.943  11.240  1.00  0.00     0.102 A 
HETATM   13  C   UNL     1     -43.490 -47.387  10.240  1.00  0.00     0.092 A 
HETATM   14  C   UNL     1     -42.855 -46.329   9.439  1.00  0.00     0.250 A 
HETATM   15  O   UNL     1     -43.441 -45.807   8.497  1.00  0.00    -0.268 OA
HETATM   16  N   UNL     1     -41.587 -45.983   9.813  1.00  0.00    -0.275 N 
HETATM   17  C   UNL     1     -40.877 -46.532  10.849  1.00  0.00     0.329 A 
HETATM   18  H   UNL     1     -41.138 -45.253   9.283  1.00  0.00     0.173 HD
HETATM   19  O   UNL     1     -39.751 -46.125  11.131  1.00  0.00    -0.246 OA
ENDBRANCH   1  11
TORSDOF 3
ENDMDL
MODEL 9
REMARK VINA RESULT:      -5.3      4.933      7.258
REMARK  3 active torsions:
REMARK  status: ('A' for Active; 'I' for Inactive)
REMARK    1  A    between atoms: C_2  and  C_3 
REMARK       I    between atoms: C_2  and  N_12 
REMARK    2  A    between atoms: C_3  and  N_4 
REMARK    3  A    between atoms: N_12  and  C_13 
ROOT
HETATM    1  C   UNL     1     -41.132 -51.940  11.742  1.00  0.00     0.235 C 
ENDROOT
BRANCH   1   2
HETATM    2  C   UNL     1     -41.337 -50.494  12.209  1.00  0.00     0.236 C 
HETATM    3  O   UNL     1     -41.181 -50.162  13.381  1.00  0.00    -0.272 OA
HETATM    4  N   UNL     1     -41.754 -49.639  11.208  1.00  0.00    -0.355 N 
HETATM    5  H   UNL     1     -42.090 -50.080  10.355  1.00  0.00     0.162 HD
BRANCH   4   6
HETATM    6  C   UNL     1     -42.088 -48.238  11.391  1.00  0.00     0.084 C 
HETATM    7  C   UNL     1     -43.302 -47.722  10.604  1.00  0.00     0.025 C 
HETATM    8  C   UNL     1     -42.950 -46.293  10.176  1.00  0.00     0.002 C 
HETATM    9  C   UNL     1     -41.684 -45.934  10.941  1.00  0.00     0.002 C 
HETATM   10  C   UNL     1     -40.957 -47.263  11.071  1.00  0.00     0.025 C 
ENDBRANCH   4   6
ENDBRANCH   1   2
BRANCH   1  11
HETATM   11  N   UNL     1     -41.778 -52.900  12.638  1.00  0.00    -0.301 N 
HETATM   12  C   UNL     1     -43.156 -52.975  12.685  1.00  0.00     0.102 A 
HETATM   13  C   UNL     1     -43.787 -53.808  13.517  1.00  0.00     0.092 A 
HETATM   14  C   UNL     1     -42.990 -54.665  14.408  1.00  0.00     0.250 A 
HETATM   15  O   UNL     1     -43.527 -55.427  15.204  1.00  0.00    -0.268 OA
HETATM   16  N   UNL     1     -41.633 -54.546  14.287  1.00  0.00    -0.275 N 
HETATM   17  C   UNL     1     -40.973 -53.712  13.424  1.00  0.00     0.329 A 
HETATM   18  H   UNL     1     -41.069 -55.133  14.882  1.00  0.00     0.173 HD
HETATM   19  O   UNL     1     -39.744 -53.704  13.365  1.00  0.00    -0.246 OA
ENDBRANCH   1  11
TORSDOF 3
ENDMDL
