MODEL 1
REMARK VINA RESULT:      -5.9      0.000      0.000
REMARK  8 active torsions:
REMARK  status: ('A' for Active; 'I' for Inactive)
REMARK    1  A    between atoms: C_2  and  C_3 
REMARK    2  A    between atoms: C_3  and  C_4 
REMARK    3  A    between atoms: C_4  and  N_5 
REMARK    4  A    between atoms: N_5  and  S_7 
REMARK    5  A    between atoms: S_7  and  N_10 
REMARK    6  A    between atoms: N_10  and  C_11 
REMARK    7  A    between atoms: C_11  and  C_12 
REMARK    8  A    between atoms: C_17  and  N_19 
ROOT
HETATM    1  C   UNL     1     -40.843 -50.978  12.445  1.00  0.00    -0.039 A 
HETATM    2  C   UNL     1     -40.272 -50.585  13.651  1.00  0.00     0.025 A 
HETATM    3  C   UNL     1     -40.004 -49.240  13.833  1.00  0.00     0.090 A 
HETATM    4  N   UNL     1     -40.265 -48.279  12.916  1.00  0.00    -0.352 N 
ATOM      5  HN  UNL     1     -40.061 -47.299  13.113  1.00  0.00     0.166 HD
HETATM    6  C   UNL     1     -40.803 -48.650  11.734  1.00  0.00     0.103 A 
HETATM    7  C   UNL     1     -41.126 -49.984  11.500  1.00  0.00     0.056 A 
ENDROOT
BRANCH   1   8
HETATM    8  C   UNL     1     -41.182 -52.415  12.166  1.00  0.00     0.144 C 
BRANCH   8   9
HETATM    9  N   UNL     1     -42.562 -52.670  11.677  1.00  0.00    -0.202 NA
HETATM   10  H   UNL     1     -42.946 -51.811  11.286  1.00  0.00     0.141 HD
BRANCH   9  11
HETATM   11  S   UNL     1     -43.642 -53.169  12.863  1.00  0.00     0.280 S 
HETATM   12  O   UNL     1     -42.890 -53.245  14.090  1.00  0.00    -0.194 OA
HETATM   13  O   UNL     1     -44.452 -54.260  12.388  1.00  0.00    -0.194 OA
BRANCH  11  14
HETATM   14  N   UNL     1     -44.638 -51.788  12.925  1.00  0.00    -0.202 NA
HETATM   15  C   UNL     1     -44.127 -50.836  13.948  1.00  0.00     0.130 C 
BRANCH  14  16
HETATM   16  C   UNL     1     -46.094 -52.098  13.111  1.00  0.00     0.108 C 
BRANCH  16  17
HETATM   17  C   UNL     1     -46.733 -51.311  14.262  1.00  0.00     0.015 C 
BRANCH  17  18
HETATM   18  C   UNL     1     -47.132 -52.188  15.450  1.00  0.00    -0.003 C 
HETATM   19  C   UNL     1     -47.657 -51.347  16.605  1.00  0.00     0.005 C 
ENDBRANCH  17  18
ENDBRANCH  16  17
ENDBRANCH  14  16
ENDBRANCH  11  14
ENDBRANCH   9  11
ENDBRANCH   8   9
ENDBRANCH   1   8
BRANCH   6  20
HETATM   20  N   UNL     1     -41.073 -47.694  10.779  1.00  0.00    -0.363 N 
HETATM   21  C   UNL     1     -40.442 -46.370  10.818  1.00  0.00     0.150 C 
HETATM   22  C   UNL     1     -41.497 -45.259  10.950  1.00  0.00     0.187 C 
HETATM   23  O   UNL     1     -42.528 -45.379   9.958  1.00  0.00    -0.388 OA
HETATM   24  C   UNL     1     -43.208 -46.637  10.116  1.00  0.00     0.187 C 
HETATM   25  C   UNL     1     -42.251 -47.819   9.922  1.00  0.00     0.150 C 
ENDBRANCH   6  20
TORSDOF 8
ENDMDL
MODEL 2
REMARK VINA RESULT:      -5.9      2.579      6.683
REMARK  8 active torsions:
REMARK  status: ('A' for Active; 'I' for Inactive)
REMARK    1  A    between atoms: C_2  and  C_3 
REMARK    2  A    between atoms: C_3  and  C_4 
REMARK    3  A    between atoms: C_4  and  N_5 
REMARK    4  A    between atoms: N_5  and  S_7 
REMARK    5  A    between atoms: S_7  and  N_10 
REMARK    6  A    between atoms: N_10  and  C_11 
REMARK    7  A    between atoms: C_11  and  C_12 
REMARK    8  A    between atoms: C_17  and  N_19 
ROOT
HETATM    1  C   UNL     1     -41.555 -51.670  12.491  1.00  0.00    -0.039 A 
HETATM    2  C   UNL     1     -40.656 -52.728  12.577  1.00  0.00     0.025 A 
HETATM    3  C   UNL     1     -41.168 -53.998  12.775  1.00  0.00     0.090 A 
HETATM    4  N   UNL     1     -42.487 -54.280  12.888  1.00  0.00    -0.352 N 
ATOM      5  HN  UNL     1     -42.806 -55.240  13.016  1.00  0.00     0.166 HD
HETATM    6  C   UNL     1     -43.368 -53.260  12.825  1.00  0.00     0.103 A 
HETATM    7  C   UNL     1     -42.920 -51.961  12.595  1.00  0.00     0.056 A 
ENDROOT
BRANCH   1   8
HETATM    8  C   UNL     1     -41.090 -50.259  12.262  1.00  0.00     0.144 C 
BRANCH   8   9
HETATM    9  N   UNL     1     -41.896 -49.463  11.300  1.00  0.00    -0.202 NA
HETATM   10  H   UNL     1     -41.593 -49.674  10.350  1.00  0.00     0.141 HD
BRANCH   9  11
HETATM   11  S   UNL     1     -41.754 -47.799  11.480  1.00  0.00     0.280 S 
HETATM   12  O   UNL     1     -40.374 -47.478  11.217  1.00  0.00    -0.194 OA
HETATM   13  O   UNL     1     -42.434 -47.356  12.670  1.00  0.00    -0.194 OA
BRANCH  11  14
HETATM   14  N   UNL     1     -42.689 -47.298  10.147  1.00  0.00    -0.202 NA
HETATM   15  C   UNL     1     -42.430 -45.863   9.852  1.00  0.00     0.130 C 
BRANCH  14  16
HETATM   16  C   UNL     1     -44.153 -47.597  10.286  1.00  0.00     0.108 C 
BRANCH  16  17
HETATM   17  C   UNL     1     -44.968 -47.189   9.053  1.00  0.00     0.015 C 
BRANCH  17  18
HETATM   18  C   UNL     1     -46.399 -47.731   9.064  1.00  0.00    -0.003 C 
HETATM   19  C   UNL     1     -46.560 -48.886   8.085  1.00  0.00     0.005 C 
ENDBRANCH  17  18
ENDBRANCH  16  17
ENDBRANCH  14  16
ENDBRANCH  11  14
ENDBRANCH   9  11
ENDBRANCH   8   9
ENDBRANCH   1   8
BRANCH   6  20
HETATM   20  N   UNL     1     -44.717 -53.516  12.944  1.00  0.00    -0.363 N 
HETATM   21  C   UNL     1     -45.719 -52.467  12.726  1.00  0.00     0.150 C 
HETATM   22  C   UNL     1     -46.558 -52.233  13.993  1.00  0.00     0.187 C 
HETATM   23  O   UNL     1     -47.105 -53.458  14.507  1.00  0.00    -0.388 OA
HETATM   24  C   UNL     1     -46.036 -54.354  14.859  1.00  0.00     0.187 C 
HETATM   25  C   UNL     1     -45.183 -54.716  13.638  1.00  0.00     0.150 C 
ENDBRANCH   6  20
TORSDOF 8
ENDMDL
MODEL 3
REMARK VINA RESULT:      -5.8      2.069      3.033
REMARK  8 active torsions:
REMARK  status: ('A' for Active; 'I' for Inactive)
REMARK    1  A    between atoms: C_2  and  C_3 
REMARK    2  A    between atoms: C_3  and  C_4 
REMARK    3  A    between atoms: C_4  and  N_5 
REMARK    4  A    between atoms: N_5  and  S_7 
REMARK    5  A    between atoms: S_7  and  N_10 
REMARK    6  A    between atoms: N_10  and  C_11 
REMARK    7  A    between atoms: C_11  and  C_12 
REMARK    8  A    between atoms: C_17  and  N_19 
ROOT
HETATM    1  C   UNL     1     -42.537 -50.159  12.545  1.00  0.00    -0.039 A 
HETATM    2  C   UNL     1     -41.239 -50.627  12.719  1.00  0.00     0.025 A 
HETATM    3  C   UNL     1     -40.222 -49.986  12.035  1.00  0.00     0.090 A 
HETATM    4  N   UNL     1     -40.406 -48.929  11.209  1.00  0.00    -0.352 N 
ATOM      5  HN  UNL     1     -39.614 -48.486  10.744  1.00  0.00     0.166 HD
HETATM    6  C   UNL     1     -41.663 -48.477  11.017  1.00  0.00     0.103 A 
HETATM    7  C   UNL     1     -42.728 -49.058  11.701  1.00  0.00     0.056 A 
ENDROOT
BRANCH   1   8
HETATM    8  C   UNL     1     -43.702 -50.784  13.260  1.00  0.00     0.144 C 
BRANCH   8   9
HETATM    9  N   UNL     1     -44.326 -51.949  12.580  1.00  0.00    -0.202 NA
HETATM   10  H   UNL     1     -44.291 -51.810  11.571  1.00  0.00     0.141 HD
BRANCH   9  11
HETATM   11  S   UNL     1     -45.941 -52.200  12.965  1.00  0.00     0.280 S 
HETATM   12  O   UNL     1     -46.636 -52.367  11.714  1.00  0.00    -0.194 OA
HETATM   13  O   UNL     1     -46.377 -51.262  13.968  1.00  0.00    -0.194 OA
BRANCH  11  14
HETATM   14  N   UNL     1     -45.810 -53.722  13.719  1.00  0.00    -0.202 NA
HETATM   15  C   UNL     1     -46.037 -53.587  15.183  1.00  0.00     0.130 C 
BRANCH  14  16
HETATM   16  C   UNL     1     -44.536 -54.448  13.403  1.00  0.00     0.108 C 
BRANCH  16  17
HETATM   17  C   UNL     1     -43.770 -54.888  14.657  1.00  0.00     0.015 C 
BRANCH  17  18
HETATM   18  C   UNL     1     -42.332 -54.367  14.705  1.00  0.00    -0.003 C 
HETATM   19  C   UNL     1     -41.742 -54.243  13.307  1.00  0.00     0.005 C 
ENDBRANCH  17  18
ENDBRANCH  16  17
ENDBRANCH  14  16
ENDBRANCH  11  14
ENDBRANCH   9  11
ENDBRANCH   8   9
ENDBRANCH   1   8
BRANCH   6  20
HETATM   20  N   UNL     1     -41.882 -47.407  10.176  1.00  0.00    -0.363 N 
HETATM   21  C   UNL     1     -41.391 -46.063  10.502  1.00  0.00     0.150 C 
HETATM   22  C   UNL     1     -42.554 -45.065  10.623  1.00  0.00     0.187 C 
HETATM   23  O   UNL     1     -43.415 -45.103   9.474  1.00  0.00    -0.388 OA
HETATM   24  C   UNL     1     -43.989 -46.416   9.343  1.00  0.00     0.187 C 
HETATM   25  C   UNL     1     -42.907 -47.482   9.136  1.00  0.00     0.150 C 
ENDBRANCH   6  20
TORSDOF 8
ENDMDL
MODEL 4
REMARK VINA RESULT:      -5.7      3.457      6.703
REMARK  8 active torsions:
REMARK  status: ('A' for Active; 'I' for Inactive)
REMARK    1  A    between atoms: C_2  and  C_3 
REMARK    2  A    between atoms: C_3  and  C_4 
REMARK    3  A    between atoms: C_4  and  N_5 
REMARK    4  A    between atoms: N_5  and  S_7 
REMARK    5  A    between atoms: S_7  and  N_10 
REMARK    6  A    between atoms: N_10  and  C_11 
REMARK    7  A    between atoms: C_11  and  C_12 
REMARK    8  A    between atoms: C_17  and  N_19 
ROOT
HETATM    1  C   UNL     1     -40.238 -49.636  11.515  1.00  0.00    -0.039 A 
HETATM    2  C   UNL     1     -38.965 -49.172  11.832  1.00  0.00     0.025 A 
HETATM    3  C   UNL     1     -38.153 -49.985  12.603  1.00  0.00     0.090 A 
HETATM    4  N   UNL     1     -38.514 -51.204  13.067  1.00  0.00    -0.352 N 
ATOM      5  HN  UNL     1     -37.865 -51.766  13.618  1.00  0.00     0.166 HD
HETATM    6  C   UNL     1     -39.753 -51.658  12.782  1.00  0.00     0.103 A 
HETATM    7  C   UNL     1     -40.608 -50.903  11.983  1.00  0.00     0.056 A 
ENDROOT
BRANCH   1   8
HETATM    8  C   UNL     1     -41.182 -48.828  10.670  1.00  0.00     0.144 C 
BRANCH   8   9
HETATM    9  N   UNL     1     -40.872 -47.379  10.562  1.00  0.00    -0.202 NA
HETATM   10  H   UNL     1     -40.317 -47.091  11.367  1.00  0.00     0.141 HD
BRANCH   9  11
HETATM   11  S   UNL     1     -42.220 -46.377  10.539  1.00  0.00     0.280 S 
HETATM   12  O   UNL     1     -41.827 -45.182   9.835  1.00  0.00    -0.194 OA
HETATM   13  O   UNL     1     -42.846 -46.335  11.836  1.00  0.00    -0.194 OA
BRANCH  11  14
HETATM   14  N   UNL     1     -43.228 -47.297   9.520  1.00  0.00    -0.202 NA
HETATM   15  C   UNL     1     -43.244 -46.710   8.153  1.00  0.00     0.130 C 
BRANCH  14  16
HETATM   16  C   UNL     1     -44.609 -47.511  10.065  1.00  0.00     0.108 C 
BRANCH  16  17
HETATM   17  C   UNL     1     -45.701 -46.869   9.200  1.00  0.00     0.015 C 
BRANCH  17  18
HETATM   18  C   UNL     1     -46.897 -47.789   8.948  1.00  0.00    -0.003 C 
HETATM   19  C   UNL     1     -46.539 -48.906   7.978  1.00  0.00     0.005 C 
ENDBRANCH  17  18
ENDBRANCH  16  17
ENDBRANCH  14  16
ENDBRANCH  11  14
ENDBRANCH   9  11
ENDBRANCH   8   9
ENDBRANCH   1   8
BRANCH   6  20
HETATM   20  N   UNL     1     -40.150 -52.894  13.246  1.00  0.00    -0.363 N 
HETATM   21  C   UNL     1     -41.527 -53.371  13.075  1.00  0.00     0.150 C 
HETATM   22  C   UNL     1     -42.192 -53.634  14.435  1.00  0.00     0.187 C 
HETATM   23  O   UNL     1     -41.387 -54.479  15.272  1.00  0.00    -0.388 OA
HETATM   24  C   UNL     1     -40.123 -53.842  15.529  1.00  0.00     0.187 C 
HETATM   25  C   UNL     1     -39.340 -53.607  14.232  1.00  0.00     0.150 C 
ENDBRANCH   6  20
TORSDOF 8
ENDMDL
MODEL 5
REMARK VINA RESULT:      -5.7      1.249      1.638
REMARK  8 active torsions:
REMARK  status: ('A' for Active; 'I' for Inactive)
REMARK    1  A    between atoms: C_2  and  C_3 
REMARK    2  A    between atoms: C_3  and  C_4 
REMARK    3  A    between atoms: C_4  and  N_5 
REMARK    4  A    between atoms: N_5  and  S_7 
REMARK    5  A    between atoms: S_7  and  N_10 
REMARK    6  A    between atoms: N_10  and  C_11 
REMARK    7  A    between atoms: C_11  and  C_12 
REMARK    8  A    between atoms: C_17  and  N_19 
ROOT
HETATM    1  C   UNL     1     -41.347 -51.202  12.353  1.00  0.00    -0.039 A 
HETATM    2  C   UNL     1     -39.992 -51.456  12.537  1.00  0.00     0.025 A 
HETATM    3  C   UNL     1     -39.089 -50.507  12.090  1.00  0.00     0.090 A 
HETATM    4  N   UNL     1     -39.438 -49.346  11.489  1.00  0.00    -0.352 N 
ATOM      5  HN  UNL     1     -38.727 -48.676  11.195  1.00  0.00     0.166 HD
HETATM    6  C   UNL     1     -40.749 -49.096  11.288  1.00  0.00     0.103 A 
HETATM    7  C   UNL     1     -41.710 -49.996  11.743  1.00  0.00     0.056 A 
ENDROOT
BRANCH   1   8
HETATM    8  C   UNL     1     -42.399 -52.169  12.820  1.00  0.00     0.144 C 
BRANCH   8   9
HETATM    9  N   UNL     1     -43.805 -51.777  12.541  1.00  0.00    -0.202 NA
HETATM   10  H   UNL     1     -44.096 -51.062  13.207  1.00  0.00     0.141 HD
BRANCH   9  11
HETATM   11  S   UNL     1     -44.919 -53.027  12.676  1.00  0.00     0.280 S 
HETATM   12  O   UNL     1     -44.208 -54.240  12.362  1.00  0.00    -0.194 OA
HETATM   13  O   UNL     1     -46.161 -52.675  12.037  1.00  0.00    -0.194 OA
BRANCH  11  14
HETATM   14  N   UNL     1     -45.183 -52.976  14.359  1.00  0.00    -0.202 NA
HETATM   15  C   UNL     1     -46.139 -54.045  14.757  1.00  0.00     0.130 C 
BRANCH  14  16
HETATM   16  C   UNL     1     -45.593 -51.626  14.868  1.00  0.00     0.108 C 
BRANCH  16  17
HETATM   17  C   UNL     1     -47.086 -51.542  15.209  1.00  0.00     0.015 C 
BRANCH  17  18
HETATM   18  C   UNL     1     -47.357 -51.115  16.653  1.00  0.00    -0.003 C 
HETATM   19  C   UNL     1     -46.110 -50.529  17.299  1.00  0.00     0.005 C 
ENDBRANCH  17  18
ENDBRANCH  16  17
ENDBRANCH  14  16
ENDBRANCH  11  14
ENDBRANCH   9  11
ENDBRANCH   8   9
ENDBRANCH   1   8
BRANCH   6  20
HETATM   20  N   UNL     1     -41.134 -47.925  10.672  1.00  0.00    -0.363 N 
HETATM   21  C   UNL     1     -40.522 -46.638  11.022  1.00  0.00     0.150 C 
HETATM   22  C   UNL     1     -41.574 -45.657  11.564  1.00  0.00     0.187 C 
HETATM   23  O   UNL     1     -42.702 -45.540  10.682  1.00  0.00    -0.388 OA
HETATM   24  C   UNL     1     -43.342 -46.821  10.544  1.00  0.00     0.187 C 
HETATM   25  C   UNL     1     -42.393 -47.858   9.932  1.00  0.00     0.150 C 
ENDBRANCH   6  20
TORSDOF 8
ENDMDL
MODEL 6
REMARK VINA RESULT:      -5.6      2.737      3.926
REMARK  8 active torsions:
REMARK  status: ('A' for Active; 'I' for Inactive)
REMARK    1  A    between atoms: C_2  and  C_3 
REMARK    2  A    between atoms: C_3  and  C_4 
REMARK    3  A    between atoms: C_4  and  N_5 
REMARK    4  A    between atoms: N_5  and  S_7 
REMARK    5  A    between atoms: S_7  and  N_10 
REMARK    6  A    between atoms: N_10  and  C_11 
REMARK    7  A    between atoms: C_11  and  C_12 
REMARK    8  A    between atoms: C_17  and  N_19 
ROOT
HETATM    1  C   UNL     1     -41.714 -54.427  14.892  1.00  0.00    -0.039 A 
HETATM    2  C   UNL     1     -40.601 -54.903  15.576  1.00  0.00     0.025 A 
HETATM    3  C   UNL     1     -39.370 -54.347  15.275  1.00  0.00     0.090 A 
HETATM    4  N   UNL     1     -39.177 -53.368  14.361  1.00  0.00    -0.352 N 
ATOM      5  HN  UNL     1     -38.247 -52.985  14.194  1.00  0.00     0.166 HD
HETATM    6  C   UNL     1     -40.247 -52.910  13.677  1.00  0.00     0.103 A 
HETATM    7  C   UNL     1     -41.519 -53.405  13.955  1.00  0.00     0.056 A 
ENDROOT
BRANCH   1   8
HETATM    8  C   UNL     1     -43.093 -54.961  15.164  1.00  0.00     0.144 C 
BRANCH   8   9
HETATM    9  N   UNL     1     -44.214 -54.031  14.871  1.00  0.00    -0.202 NA
HETATM   10  H   UNL     1     -44.830 -53.978  15.682  1.00  0.00     0.141 HD
BRANCH   9  11
HETATM   11  S   UNL     1     -45.181 -54.488  13.576  1.00  0.00     0.280 S 
HETATM   12  O   UNL     1     -45.707 -55.789  13.901  1.00  0.00    -0.194 OA
HETATM   13  O   UNL     1     -44.519 -54.215  12.326  1.00  0.00    -0.194 OA
BRANCH  11  14
HETATM   14  N   UNL     1     -46.430 -53.341  13.748  1.00  0.00    -0.202 NA
HETATM   15  C   UNL     1     -46.189 -52.186  12.843  1.00  0.00     0.130 C 
BRANCH  14  16
HETATM   16  C   UNL     1     -46.670 -52.915  15.166  1.00  0.00     0.108 C 
BRANCH  16  17
HETATM   17  C   UNL     1     -46.836 -51.398  15.316  1.00  0.00     0.015 C 
BRANCH  17  18
HETATM   18  C   UNL     1     -46.103 -50.823  16.530  1.00  0.00    -0.003 C 
HETATM   19  C   UNL     1     -47.063 -50.556  17.680  1.00  0.00     0.005 C 
ENDBRANCH  17  18
ENDBRANCH  16  17
ENDBRANCH  14  16
ENDBRANCH  11  14
ENDBRANCH   9  11
ENDBRANCH   8   9
ENDBRANCH   1   8
BRANCH   6  20
HETATM   20  N   UNL     1     -40.081 -51.917  12.735  1.00  0.00    -0.363 N 
HETATM   21  C   UNL     1     -38.948 -50.987  12.794  1.00  0.00     0.150 C 
HETATM   22  C   UNL     1     -39.433 -49.536  12.941  1.00  0.00     0.187 C 
HETATM   23  O   UNL     1     -40.411 -49.194  11.947  1.00  0.00    -0.388 OA
HETATM   24  C   UNL     1     -41.562 -50.047  12.087  1.00  0.00     0.187 C 
HETATM   25  C   UNL     1     -41.195 -51.520  11.876  1.00  0.00     0.150 C 
ENDBRANCH   6  20
TORSDOF 8
ENDMDL
MODEL 7
REMARK VINA RESULT:      -5.5      2.977      4.399
REMARK  8 active torsions:
REMARK  status: ('A' for Active; 'I' for Inactive)
REMARK    1  A    between atoms: C_2  and  C_3 
REMARK    2  A    between atoms: C_3  and  C_4 
REMARK    3  A    between atoms: C_4  and  N_5 
REMARK    4  A    between atoms: N_5  and  S_7 
REMARK    5  A    between atoms: S_7  and  N_10 
REMARK    6  A    between atoms: N_10  and  C_11 
REMARK    7  A    between atoms: C_11  and  C_12 
REMARK    8  A    between atoms: C_17  and  N_19 
ROOT
HETATM    1  C   UNL     1     -41.550 -53.766  14.943  1.00  0.00    -0.039 A 
HETATM    2  C   UNL     1     -40.666 -54.839  14.973  1.00  0.00     0.025 A 
HETATM    3  C   UNL     1     -39.367 -54.622  14.549  1.00  0.00     0.090 A 
HETATM    4  N   UNL     1     -38.898 -53.431  14.110  1.00  0.00    -0.352 N 
ATOM      5  HN  UNL     1     -37.924 -53.326  13.826  1.00  0.00     0.166 HD
HETATM    6  C   UNL     1     -39.750 -52.385  14.059  1.00  0.00     0.103 A 
HETATM    7  C   UNL     1     -41.063 -52.530  14.502  1.00  0.00     0.056 A 
ENDROOT
BRANCH   1   8
HETATM    8  C   UNL     1     -42.975 -53.906  15.399  1.00  0.00     0.144 C 
BRANCH   8   9
HETATM    9  N   UNL     1     -43.725 -55.054  14.825  1.00  0.00    -0.202 NA
HETATM   10  H   UNL     1     -43.087 -55.641  14.290  1.00  0.00     0.141 HD
BRANCH   9  11
HETATM   11  S   UNL     1     -44.962 -54.624  13.774  1.00  0.00     0.280 S 
HETATM   12  O   UNL     1     -46.047 -55.537  14.027  1.00  0.00    -0.194 OA
HETATM   13  O   UNL     1     -44.447 -54.389  12.450  1.00  0.00    -0.194 OA
BRANCH  11  14
HETATM   14  N   UNL     1     -45.368 -53.107  14.435  1.00  0.00    -0.202 NA
HETATM   15  C   UNL     1     -46.588 -53.228  15.278  1.00  0.00     0.130 C 
BRANCH  14  16
HETATM   16  C   UNL     1     -45.486 -52.012  13.416  1.00  0.00     0.108 C 
BRANCH  16  17
HETATM   17  C   UNL     1     -44.349 -50.987  13.504  1.00  0.00     0.015 C 
BRANCH  17  18
HETATM   18  C   UNL     1     -44.146 -50.423  14.912  1.00  0.00    -0.003 C 
HETATM   19  C   UNL     1     -43.210 -49.223  14.897  1.00  0.00     0.005 C 
ENDBRANCH  17  18
ENDBRANCH  16  17
ENDBRANCH  14  16
ENDBRANCH  11  14
ENDBRANCH   9  11
ENDBRANCH   8   9
ENDBRANCH   1   8
BRANCH   6  20
HETATM   20  N   UNL     1     -39.302 -51.161  13.610  1.00  0.00    -0.363 N 
HETATM   21  C   UNL     1     -40.198 -50.216  12.935  1.00  0.00     0.150 C 
HETATM   22  C   UNL     1     -39.714 -49.921  11.506  1.00  0.00     0.187 C 
HETATM   23  O   UNL     1     -38.333 -49.527  11.480  1.00  0.00    -0.388 OA
HETATM   24  C   UNL     1     -37.516 -50.592  11.997  1.00  0.00     0.187 C 
HETATM   25  C   UNL     1     -37.869 -50.912  13.455  1.00  0.00     0.150 C 
ENDBRANCH   6  20
TORSDOF 8
ENDMDL
MODEL 8
REMARK VINA RESULT:      -5.5      2.813      4.564
REMARK  8 active torsions:
REMARK  status: ('A' for Active; 'I' for Inactive)
REMARK    1  A    between atoms: C_2  and  C_3 
REMARK    2  A    between atoms: C_3  and  C_4 
REMARK    3  A    between atoms: C_4  and  N_5 
REMARK    4  A    between atoms: N_5  and  S_7 
REMARK    5  A    between atoms: S_7  and  N_10 
REMARK    6  A    between atoms: N_10  and  C_11 
REMARK    7  A    between atoms: C_11  and  C_12 
REMARK    8  A    between atoms: C_17  and  N_19 
ROOT
HETATM    1  C   UNL     1     -42.971 -49.756  12.899  1.00  0.00    -0.039 A 
HETATM    2  C   UNL     1     -43.190 -48.628  12.115  1.00  0.00     0.025 A 
HETATM    3  C   UNL     1     -42.086 -47.912  11.687  1.00  0.00     0.090 A 
HETATM    4  N   UNL     1     -40.805 -48.240  11.977  1.00  0.00    -0.352 N 
ATOM      5  HN  UNL     1     -40.030 -47.683  11.618  1.00  0.00     0.166 HD
HETATM    6  C   UNL     1     -40.580 -49.322  12.752  1.00  0.00     0.103 A 
HETATM    7  C   UNL     1     -41.646 -50.104  13.189  1.00  0.00     0.056 A 
ENDROOT
BRANCH   1   8
HETATM    8  C   UNL     1     -44.109 -50.602  13.396  1.00  0.00     0.144 C 
BRANCH   8   9
HETATM    9  N   UNL     1     -44.510 -51.728  12.513  1.00  0.00    -0.202 NA
HETATM   10  H   UNL     1     -44.479 -51.423  11.541  1.00  0.00     0.141 HD
BRANCH   9  11
HETATM   11  S   UNL     1     -46.067 -52.301  12.775  1.00  0.00     0.280 S 
HETATM   12  O   UNL     1     -46.712 -52.332  11.487  1.00  0.00    -0.194 OA
HETATM   13  O   UNL     1     -46.662 -51.656  13.918  1.00  0.00    -0.194 OA
BRANCH  11  14
HETATM   14  N   UNL     1     -45.697 -53.900  13.233  1.00  0.00    -0.202 NA
HETATM   15  C   UNL     1     -46.188 -54.161  14.613  1.00  0.00     0.130 C 
BRANCH  14  16
HETATM   16  C   UNL     1     -44.250 -54.260  13.064  1.00  0.00     0.108 C 
BRANCH  16  17
HETATM   17  C   UNL     1     -43.563 -54.619  14.388  1.00  0.00     0.015 C 
BRANCH  17  18
HETATM   18  C   UNL     1     -42.403 -53.688  14.742  1.00  0.00    -0.003 C 
HETATM   19  C   UNL     1     -41.075 -54.246  14.249  1.00  0.00     0.005 C 
ENDBRANCH  17  18
ENDBRANCH  16  17
ENDBRANCH  14  16
ENDBRANCH  11  14
ENDBRANCH   9  11
ENDBRANCH   8   9
ENDBRANCH   1   8
BRANCH   6  20
HETATM   20  N   UNL     1     -39.286 -49.676  13.069  1.00  0.00    -0.363 N 
HETATM   21  C   UNL     1     -38.158 -49.317  12.202  1.00  0.00     0.150 C 
HETATM   22  C   UNL     1     -37.434 -50.574  11.693  1.00  0.00     0.187 C 
HETATM   23  O   UNL     1     -37.078 -51.460  12.766  1.00  0.00    -0.388 OA
HETATM   24  C   UNL     1     -38.269 -51.898  13.445  1.00  0.00     0.187 C 
HETATM   25  C   UNL     1     -39.028 -50.717  14.062  1.00  0.00     0.150 C 
ENDBRANCH   6  20
TORSDOF 8
ENDMDL
MODEL 9
REMARK VINA RESULT:      -5.5      3.261      7.017
REMARK  8 active torsions:
REMARK  status: ('A' for Active; 'I' for Inactive)
REMARK    1  A    between atoms: C_2  and  C_3 
REMARK    2  A    between atoms: C_3  and  C_4 
REMARK    3  A    between atoms: C_4  and  N_5 
REMARK    4  A    between atoms: N_5  and  S_7 
REMARK    5  A    between atoms: S_7  and  N_10 
REMARK    6  A    between atoms: N_10  and  C_11 
REMARK    7  A    between atoms: C_11  and  C_12 
REMARK    8  A    between atoms: C_17  and  N_19 
ROOT
HETATM    1  C   UNL     1     -41.517 -51.314  12.852  1.00  0.00    -0.039 A 
HETATM    2  C   UNL     1     -41.866 -49.968  12.877  1.00  0.00     0.025 A 
HETATM    3  C   UNL     1     -43.210 -49.648  12.942  1.00  0.00     0.090 A 
HETATM    4  N   UNL     1     -44.210 -50.560  12.986  1.00  0.00    -0.352 N 
ATOM      5  HN  UNL     1     -45.184 -50.265  13.051  1.00  0.00     0.166 HD
HETATM    6  C   UNL     1     -43.885 -51.870  12.944  1.00  0.00     0.103 A 
HETATM    7  C   UNL     1     -42.548 -52.258  12.911  1.00  0.00     0.056 A 
ENDROOT
BRANCH   1   8
HETATM    8  C   UNL     1     -40.080 -51.754  12.797  1.00  0.00     0.144 C 
BRANCH   8   9
HETATM    9  N   UNL     1     -39.266 -51.164  11.703  1.00  0.00    -0.202 NA
HETATM   10  H   UNL     1     -39.101 -51.869  10.986  1.00  0.00     0.141 HD
BRANCH   9  11
HETATM   11  S   UNL     1     -37.752 -50.613  12.178  1.00  0.00     0.280 S 
HETATM   12  O   UNL     1     -37.394 -49.565  11.257  1.00  0.00    -0.194 OA
HETATM   13  O   UNL     1     -36.875 -51.719  12.465  1.00  0.00    -0.194 OA
BRANCH  11  14
HETATM   14  N   UNL     1     -38.175 -49.903  13.668  1.00  0.00    -0.202 NA
HETATM   15  C   UNL     1     -38.400 -48.443  13.491  1.00  0.00     0.130 C 
BRANCH  14  16
HETATM   16  C   UNL     1     -37.209 -50.201  14.777  1.00  0.00     0.108 C 
BRANCH  16  17
HETATM   17  C   UNL     1     -37.866 -50.187  16.163  1.00  0.00     0.015 C 
BRANCH  17  18
HETATM   18  C   UNL     1     -39.182 -50.965  16.220  1.00  0.00    -0.003 C 
HETATM   19  C   UNL     1     -38.934 -52.466  16.268  1.00  0.00     0.005 C 
ENDBRANCH  17  18
ENDBRANCH  16  17
ENDBRANCH  14  16
ENDBRANCH  11  14
ENDBRANCH   9  11
ENDBRANCH   8   9
ENDBRANCH   1   8
BRANCH   6  20
HETATM   20  N   UNL     1     -44.882 -52.821  12.981  1.00  0.00    -0.363 N 
HETATM   21  C   UNL     1     -46.229 -52.501  13.465  1.00  0.00     0.150 C 
HETATM   22  C   UNL     1     -46.593 -53.356  14.690  1.00  0.00     0.187 C 
HETATM   23  O   UNL     1     -46.383 -54.756  14.447  1.00  0.00    -0.388 OA
HETATM   24  C   UNL     1     -44.994 -54.993  14.156  1.00  0.00     0.187 C 
HETATM   25  C   UNL     1     -44.550 -54.242  12.896  1.00  0.00     0.150 C 
ENDBRANCH   6  20
TORSDOF 8
ENDMDL
