MODEL 1
REMARK VINA RESULT:      -5.3      0.000      0.000
REMARK  5 active torsions:
REMARK  status: ('A' for Active; 'I' for Inactive)
REMARK    1  A    between atoms: C_9  and  C_10 
REMARK    2  A    between atoms: C_10  and  C_11 
REMARK       I    between atoms: C_11  and  N_13 
REMARK    3  A    between atoms: N_13  and  C_14 
REMARK    4  A    between atoms: C_14  and  C_15 
REMARK    5  A    between atoms: C_14  and  C_18 
ROOT
HETATM    1  C   UNL     1     -41.208 -53.116  12.802  1.00  0.00     0.222 C 
HETATM    2  O   UNL     1     -40.388 -53.291  11.899  1.00  0.00    -0.273 OA
HETATM    3  N   UNL     1     -42.061 -54.136  13.109  1.00  0.00    -0.355 N 
HETATM    4  H   UNL     1     -41.932 -54.956  12.531  1.00  0.00     0.162 HD
ENDROOT
BRANCH   1   5
HETATM    5  C   UNL     1     -41.261 -51.818  13.589  1.00  0.00     0.145 C 
BRANCH   5   6
HETATM    6  C   UNL     1     -41.843 -50.644  12.865  1.00  0.00    -0.002 A 
HETATM    7  C   UNL     1     -43.171 -50.122  12.907  1.00  0.00     0.030 A 
HETATM    8  C   UNL     1     -44.345 -50.580  13.692  1.00  0.00     0.070 C 
HETATM    9  N   UNL     1     -43.318 -49.074  12.090  1.00  0.00    -0.303 N 
HETATM   10  N   UNL     1     -42.125 -48.933  11.499  1.00  0.00    -0.300 N 
ATOM     11  HN  UNL     1     -44.154 -48.507  11.948  1.00  0.00     0.186 HD
HETATM   12  C   UNL     1     -41.955 -47.895  10.509  1.00  0.00     0.177 C 
HETATM   13  C   UNL     1     -41.195 -49.842  11.930  1.00  0.00     0.033 A 
HETATM   14  C   UNL     1     -39.801 -49.890  11.417  1.00  0.00     0.070 C 
ENDBRANCH   5   6
ENDBRANCH   1   5
BRANCH   3  15
HETATM   15  C   UNL     1     -43.200 -54.105  13.998  1.00  0.00     0.092 C 
BRANCH  15  16
HETATM   16  C   UNL     1     -44.446 -54.400  13.198  1.00  0.00     0.009 A 
HETATM   17  C   UNL     1     -45.794 -53.821  13.555  1.00  0.00     0.007 A 
HETATM   18  C   UNL     1     -45.507 -55.272  13.823  1.00  0.00     0.007 A 
ENDBRANCH  15  16
BRANCH  15  19
HETATM   19  C   UNL     1     -43.041 -55.133  15.090  1.00  0.00     0.009 A 
HETATM   20  C   UNL     1     -42.988 -54.652  16.523  1.00  0.00     0.007 A 
HETATM   21  C   UNL     1     -41.779 -55.287  15.906  1.00  0.00     0.007 A 
ENDBRANCH  15  19
ENDBRANCH   3  15
TORSDOF 5
ENDMDL
MODEL 2
REMARK VINA RESULT:      -5.1      2.180      4.385
REMARK  5 active torsions:
REMARK  status: ('A' for Active; 'I' for Inactive)
REMARK    1  A    between atoms: C_9  and  C_10 
REMARK    2  A    between atoms: C_10  and  C_11 
REMARK       I    between atoms: C_11  and  N_13 
REMARK    3  A    between atoms: N_13  and  C_14 
REMARK    4  A    between atoms: C_14  and  C_15 
REMARK    5  A    between atoms: C_14  and  C_18 
ROOT
HETATM    1  C   UNL     1     -43.547 -49.989  13.195  1.00  0.00     0.222 C 
HETATM    2  O   UNL     1     -43.373 -49.052  12.414  1.00  0.00    -0.273 OA
HETATM    3  N   UNL     1     -44.575 -50.853  12.951  1.00  0.00    -0.355 N 
HETATM    4  H   UNL     1     -45.115 -50.614  12.129  1.00  0.00     0.162 HD
ENDROOT
BRANCH   1   5
HETATM    5  C   UNL     1     -42.629 -50.218  14.384  1.00  0.00     0.145 C 
BRANCH   5   6
HETATM    6  C   UNL     1     -41.698 -51.384  14.269  1.00  0.00    -0.002 A 
HETATM    7  C   UNL     1     -40.726 -51.671  13.264  1.00  0.00     0.030 A 
HETATM    8  C   UNL     1     -40.347 -50.888  12.061  1.00  0.00     0.070 C 
HETATM    9  N   UNL     1     -40.106 -52.834  13.492  1.00  0.00    -0.303 N 
HETATM   10  N   UNL     1     -40.682 -53.316  14.600  1.00  0.00    -0.300 N 
ATOM     11  HN  UNL     1     -39.359 -53.259  12.943  1.00  0.00     0.186 HD
HETATM   12  C   UNL     1     -40.262 -54.603  15.101  1.00  0.00     0.177 C 
HETATM   13  C   UNL     1     -41.641 -52.486  15.118  1.00  0.00     0.033 A 
HETATM   14  C   UNL     1     -42.425 -52.806  16.340  1.00  0.00     0.070 C 
ENDBRANCH   5   6
ENDBRANCH   1   5
BRANCH   3  15
HETATM   15  C   UNL     1     -45.072 -51.908  13.805  1.00  0.00     0.092 C 
BRANCH  15  16
HETATM   16  C   UNL     1     -46.456 -51.538  14.277  1.00  0.00     0.009 A 
HETATM   17  C   UNL     1     -46.755 -51.181  15.714  1.00  0.00     0.007 A 
HETATM   18  C   UNL     1     -47.192 -52.510  15.166  1.00  0.00     0.007 A 
ENDBRANCH  15  16
BRANCH  15  19
HETATM   19  C   UNL     1     -45.123 -53.213  13.049  1.00  0.00     0.009 A 
HETATM   20  C   UNL     1     -44.516 -54.438  13.697  1.00  0.00     0.007 A 
HETATM   21  C   UNL     1     -43.902 -53.873  12.452  1.00  0.00     0.007 A 
ENDBRANCH  15  19
ENDBRANCH   3  15
TORSDOF 5
ENDMDL
MODEL 3
REMARK VINA RESULT:      -5.1      2.477      3.998
REMARK  5 active torsions:
REMARK  status: ('A' for Active; 'I' for Inactive)
REMARK    1  A    between atoms: C_9  and  C_10 
REMARK    2  A    between atoms: C_10  and  C_11 
REMARK       I    between atoms: C_11  and  N_13 
REMARK    3  A    between atoms: N_13  and  C_14 
REMARK    4  A    between atoms: C_14  and  C_15 
REMARK    5  A    between atoms: C_14  and  C_18 
ROOT
HETATM    1  C   UNL     1     -43.049 -49.323  13.268  1.00  0.00     0.222 C 
HETATM    2  O   UNL     1     -42.956 -48.306  13.958  1.00  0.00    -0.273 OA
HETATM    3  N   UNL     1     -43.834 -50.343  13.722  1.00  0.00    -0.355 N 
HETATM    4  H   UNL     1     -44.263 -50.153  14.618  1.00  0.00     0.162 HD
ENDROOT
BRANCH   1   5
HETATM    5  C   UNL     1     -42.345 -49.444  11.928  1.00  0.00     0.145 C 
BRANCH   5   6
HETATM    6  C   UNL     1     -41.942 -48.152  11.288  1.00  0.00    -0.002 A 
HETATM    7  C   UNL     1     -42.664 -47.335  10.367  1.00  0.00     0.030 A 
HETATM    8  C   UNL     1     -44.022 -47.521   9.797  1.00  0.00     0.070 C 
HETATM    9  N   UNL     1     -41.955 -46.264   9.993  1.00  0.00    -0.303 N 
HETATM   10  N   UNL     1     -40.782 -46.394  10.626  1.00  0.00    -0.300 N 
ATOM     11  HN  UNL     1     -42.243 -45.515   9.364  1.00  0.00     0.186 HD
HETATM   12  C   UNL     1     -39.755 -45.405  10.401  1.00  0.00     0.177 C 
HETATM   13  C   UNL     1     -40.718 -47.505  11.425  1.00  0.00     0.033 A 
HETATM   14  C   UNL     1     -39.518 -47.867  12.224  1.00  0.00     0.070 C 
ENDBRANCH   5   6
ENDBRANCH   1   5
BRANCH   3  15
HETATM   15  C   UNL     1     -43.960 -51.677  13.179  1.00  0.00     0.092 C 
BRANCH  15  16
HETATM   16  C   UNL     1     -42.877 -52.544  13.774  1.00  0.00     0.009 A 
HETATM   17  C   UNL     1     -41.872 -53.283  12.923  1.00  0.00     0.007 A 
HETATM   18  C   UNL     1     -42.982 -54.040  13.597  1.00  0.00     0.007 A 
ENDBRANCH  15  16
BRANCH  15  19
HETATM   19  C   UNL     1     -45.314 -52.252  13.512  1.00  0.00     0.009 A 
HETATM   20  C   UNL     1     -46.434 -52.068  12.511  1.00  0.00     0.007 A 
HETATM   21  C   UNL     1     -46.515 -51.401  13.850  1.00  0.00     0.007 A 
ENDBRANCH  15  19
ENDBRANCH   3  15
TORSDOF 5
ENDMDL
MODEL 4
REMARK VINA RESULT:      -5.0      2.635      4.118
REMARK  5 active torsions:
REMARK  status: ('A' for Active; 'I' for Inactive)
REMARK    1  A    between atoms: C_9  and  C_10 
REMARK    2  A    between atoms: C_10  and  C_11 
REMARK       I    between atoms: C_11  and  N_13 
REMARK    3  A    between atoms: N_13  and  C_14 
REMARK    4  A    between atoms: C_14  and  C_15 
REMARK    5  A    between atoms: C_14  and  C_18 
ROOT
HETATM    1  C   UNL     1     -43.185 -54.610  14.689  1.00  0.00     0.222 C 
HETATM    2  O   UNL     1     -43.109 -55.654  15.339  1.00  0.00    -0.273 OA
HETATM    3  N   UNL     1     -44.026 -53.630  15.133  1.00  0.00    -0.355 N 
HETATM    4  H   UNL     1     -44.526 -53.881  15.975  1.00  0.00     0.162 HD
ENDROOT
BRANCH   1   5
HETATM    5  C   UNL     1     -42.347 -54.383  13.442  1.00  0.00     0.145 C 
BRANCH   5   6
HETATM    6  C   UNL     1     -41.099 -53.580  13.638  1.00  0.00    -0.002 A 
HETATM    7  C   UNL     1     -39.979 -53.840  14.484  1.00  0.00     0.030 A 
HETATM    8  C   UNL     1     -39.723 -54.986  15.393  1.00  0.00     0.070 C 
HETATM    9  N   UNL     1     -39.064 -52.867  14.409  1.00  0.00    -0.303 N 
HETATM   10  N   UNL     1     -39.588 -51.973  13.561  1.00  0.00    -0.300 N 
ATOM     11  HN  UNL     1     -38.167 -52.817  14.891  1.00  0.00     0.186 HD
HETATM   12  C   UNL     1     -38.855 -50.759  13.288  1.00  0.00     0.177 C 
HETATM   13  C   UNL     1     -40.805 -52.350  13.059  1.00  0.00     0.033 A 
HETATM   14  C   UNL     1     -41.586 -51.521  12.104  1.00  0.00     0.070 C 
ENDBRANCH   5   6
ENDBRANCH   1   5
BRANCH   3  15
HETATM   15  C   UNL     1     -44.404 -52.410  14.457  1.00  0.00     0.092 C 
BRANCH  15  16
HETATM   16  C   UNL     1     -45.853 -52.513  14.048  1.00  0.00     0.009 A 
HETATM   17  C   UNL     1     -46.444 -51.674  12.940  1.00  0.00     0.007 A 
HETATM   18  C   UNL     1     -46.771 -51.360  14.373  1.00  0.00     0.007 A 
ENDBRANCH  15  16
BRANCH  15  19
HETATM   19  C   UNL     1     -44.216 -51.225  15.372  1.00  0.00     0.009 A 
HETATM   20  C   UNL     1     -43.360 -50.076  14.886  1.00  0.00     0.007 A 
HETATM   21  C   UNL     1     -42.906 -50.902  16.050  1.00  0.00     0.007 A 
ENDBRANCH  15  19
ENDBRANCH   3  15
TORSDOF 5
ENDMDL
MODEL 5
REMARK VINA RESULT:      -5.0      1.434      2.524
REMARK  5 active torsions:
REMARK  status: ('A' for Active; 'I' for Inactive)
REMARK    1  A    between atoms: C_9  and  C_10 
REMARK    2  A    between atoms: C_10  and  C_11 
REMARK       I    between atoms: C_11  and  N_13 
REMARK    3  A    between atoms: N_13  and  C_14 
REMARK    4  A    between atoms: C_14  and  C_15 
REMARK    5  A    between atoms: C_14  and  C_18 
ROOT
HETATM    1  C   UNL     1     -40.006 -53.009  13.807  1.00  0.00     0.222 C 
HETATM    2  O   UNL     1     -38.938 -53.515  13.458  1.00  0.00    -0.273 OA
HETATM    3  N   UNL     1     -41.088 -53.826  13.964  1.00  0.00    -0.355 N 
HETATM    4  H   UNL     1     -40.894 -54.796  13.757  1.00  0.00     0.162 HD
ENDROOT
BRANCH   1   5
HETATM    5  C   UNL     1     -40.127 -51.523  14.096  1.00  0.00     0.145 C 
BRANCH   5   6
HETATM    6  C   UNL     1     -40.170 -50.631  12.895  1.00  0.00    -0.002 A 
HETATM    7  C   UNL     1     -39.106 -50.209  12.042  1.00  0.00     0.030 A 
HETATM    8  C   UNL     1     -37.662 -50.549  12.089  1.00  0.00     0.070 C 
HETATM    9  N   UNL     1     -39.538 -49.381  11.084  1.00  0.00    -0.303 N 
HETATM   10  N   UNL     1     -40.846 -49.234  11.325  1.00  0.00    -0.300 N 
ATOM     11  HN  UNL     1     -38.990 -48.955  10.337  1.00  0.00     0.186 HD
HETATM   12  C   UNL     1     -41.616 -48.352  10.479  1.00  0.00     0.177 C 
HETATM   13  C   UNL     1     -41.287 -49.967  12.395  1.00  0.00     0.033 A 
HETATM   14  C   UNL     1     -42.698 -49.964  12.861  1.00  0.00     0.070 C 
ENDBRANCH   5   6
ENDBRANCH   1   5
BRANCH   3  15
HETATM   15  C   UNL     1     -42.463 -53.444  14.197  1.00  0.00     0.092 C 
BRANCH  15  16
HETATM   16  C   UNL     1     -43.323 -54.050  13.116  1.00  0.00     0.009 A 
HETATM   17  C   UNL     1     -44.453 -53.295  12.459  1.00  0.00     0.007 A 
HETATM   18  C   UNL     1     -44.757 -54.385  13.447  1.00  0.00     0.007 A 
ENDBRANCH  15  16
BRANCH  15  19
HETATM   19  C   UNL     1     -42.921 -53.935  15.548  1.00  0.00     0.009 A 
HETATM   20  C   UNL     1     -43.276 -52.906  16.599  1.00  0.00     0.007 A 
HETATM   21  C   UNL     1     -42.091 -53.800  16.803  1.00  0.00     0.007 A 
ENDBRANCH  15  19
ENDBRANCH   3  15
TORSDOF 5
ENDMDL
MODEL 6
REMARK VINA RESULT:      -4.9      2.246      3.862
REMARK  5 active torsions:
REMARK  status: ('A' for Active; 'I' for Inactive)
REMARK    1  A    between atoms: C_9  and  C_10 
REMARK    2  A    between atoms: C_10  and  C_11 
REMARK       I    between atoms: C_11  and  N_13 
REMARK    3  A    between atoms: N_13  and  C_14 
REMARK    4  A    between atoms: C_14  and  C_15 
REMARK    5  A    between atoms: C_14  and  C_18 
ROOT
HETATM    1  C   UNL     1     -42.919 -49.911  13.618  1.00  0.00     0.222 C 
HETATM    2  O   UNL     1     -42.689 -48.913  14.304  1.00  0.00    -0.273 OA
HETATM    3  N   UNL     1     -43.803 -50.835  14.096  1.00  0.00    -0.355 N 
HETATM    4  H   UNL     1     -44.180 -50.599  15.004  1.00  0.00     0.162 HD
ENDROOT
BRANCH   1   5
HETATM    5  C   UNL     1     -42.274 -50.108  12.258  1.00  0.00     0.145 C 
BRANCH   5   6
HETATM    6  C   UNL     1     -41.532 -48.927  11.714  1.00  0.00    -0.002 A 
HETATM    7  C   UNL     1     -40.129 -48.665  11.708  1.00  0.00     0.030 A 
HETATM    8  C   UNL     1     -39.007 -49.494  12.217  1.00  0.00     0.070 C 
HETATM    9  N   UNL     1     -39.849 -47.478  11.157  1.00  0.00    -0.303 N 
HETATM   10  N   UNL     1     -41.042 -46.959  10.842  1.00  0.00    -0.300 N 
ATOM     11  HN  UNL     1     -38.930 -47.062  11.009  1.00  0.00     0.186 HD
HETATM   12  C   UNL     1     -41.096 -45.641  10.255  1.00  0.00     0.177 C 
HETATM   13  C   UNL     1     -42.091 -47.787  11.146  1.00  0.00     0.033 A 
HETATM   14  C   UNL     1     -43.512 -47.429  10.895  1.00  0.00     0.070 C 
ENDBRANCH   5   6
ENDBRANCH   1   5
BRANCH   3  15
HETATM   15  C   UNL     1     -44.097 -52.144  13.558  1.00  0.00     0.092 C 
BRANCH  15  16
HETATM   16  C   UNL     1     -43.300 -53.172  14.324  1.00  0.00     0.009 A 
HETATM   17  C   UNL     1     -42.412 -54.184  13.641  1.00  0.00     0.007 A 
HETATM   18  C   UNL     1     -43.723 -54.618  14.232  1.00  0.00     0.007 A 
ENDBRANCH  15  16
BRANCH  15  19
HETATM   19  C   UNL     1     -45.570 -52.443  13.684  1.00  0.00     0.009 A 
HETATM   20  C   UNL     1     -46.500 -51.919  12.612  1.00  0.00     0.007 A 
HETATM   21  C   UNL     1     -46.603 -51.392  14.011  1.00  0.00     0.007 A 
ENDBRANCH  15  19
ENDBRANCH   3  15
TORSDOF 5
ENDMDL
MODEL 7
REMARK VINA RESULT:      -4.8      2.206      4.899
REMARK  5 active torsions:
REMARK  status: ('A' for Active; 'I' for Inactive)
REMARK    1  A    between atoms: C_9  and  C_10 
REMARK    2  A    between atoms: C_10  and  C_11 
REMARK       I    between atoms: C_11  and  N_13 
REMARK    3  A    between atoms: N_13  and  C_14 
REMARK    4  A    between atoms: C_14  and  C_15 
REMARK    5  A    between atoms: C_14  and  C_18 
ROOT
HETATM    1  C   UNL     1     -42.875 -51.038  12.882  1.00  0.00     0.222 C 
HETATM    2  O   UNL     1     -42.127 -50.233  12.325  1.00  0.00    -0.273 OA
HETATM    3  N   UNL     1     -43.822 -50.556  13.739  1.00  0.00    -0.355 N 
HETATM    4  H   UNL     1     -43.800 -49.550  13.838  1.00  0.00     0.162 HD
ENDROOT
BRANCH   1   5
HETATM    5  C   UNL     1     -42.785 -52.530  12.610  1.00  0.00     0.145 C 
BRANCH   5   6
HETATM    6  C   UNL     1     -42.054 -53.334  13.640  1.00  0.00    -0.002 A 
HETATM    7  C   UNL     1     -42.548 -54.345  14.517  1.00  0.00     0.030 A 
HETATM    8  C   UNL     1     -43.919 -54.902  14.645  1.00  0.00     0.070 C 
HETATM    9  N   UNL     1     -41.590 -54.814  15.324  1.00  0.00    -0.303 N 
HETATM   10  N   UNL     1     -40.501 -54.102  15.008  1.00  0.00    -0.300 N 
ATOM     11  HN  UNL     1     -41.671 -55.550  16.024  1.00  0.00     0.186 HD
HETATM   12  C   UNL     1     -39.278 -54.338  15.738  1.00  0.00     0.177 C 
HETATM   13  C   UNL     1     -40.715 -53.202  13.998  1.00  0.00     0.033 A 
HETATM   14  C   UNL     1     -39.660 -52.294  13.476  1.00  0.00     0.070 C 
ENDBRANCH   5   6
ENDBRANCH   1   5
BRANCH   3  15
HETATM   15  C   UNL     1     -44.684 -51.307  14.624  1.00  0.00     0.092 C 
BRANCH  15  16
HETATM   16  C   UNL     1     -44.658 -50.660  15.987  1.00  0.00     0.009 A 
HETATM   17  C   UNL     1     -44.608 -51.463  17.265  1.00  0.00     0.007 A 
HETATM   18  C   UNL     1     -45.884 -50.782  16.860  1.00  0.00     0.007 A 
ENDBRANCH  15  16
BRANCH  15  19
HETATM   19  C   UNL     1     -46.096 -51.320  14.093  1.00  0.00     0.009 A 
HETATM   20  C   UNL     1     -46.732 -52.658  13.786  1.00  0.00     0.007 A 
HETATM   21  C   UNL     1     -46.443 -51.698  12.672  1.00  0.00     0.007 A 
ENDBRANCH  15  19
ENDBRANCH   3  15
TORSDOF 5
ENDMDL
MODEL 8
REMARK VINA RESULT:      -4.7      2.429      5.006
REMARK  5 active torsions:
REMARK  status: ('A' for Active; 'I' for Inactive)
REMARK    1  A    between atoms: C_9  and  C_10 
REMARK    2  A    between atoms: C_10  and  C_11 
REMARK       I    between atoms: C_11  and  N_13 
REMARK    3  A    between atoms: N_13  and  C_14 
REMARK    4  A    between atoms: C_14  and  C_15 
REMARK    5  A    between atoms: C_14  and  C_18 
ROOT
HETATM    1  C   UNL     1     -42.199 -52.353  12.740  1.00  0.00     0.222 C 
HETATM    2  O   UNL     1     -41.428 -52.305  11.780  1.00  0.00    -0.273 OA
HETATM    3  N   UNL     1     -43.495 -52.715  12.512  1.00  0.00    -0.355 N 
HETATM    4  H   UNL     1     -43.696 -52.901  11.539  1.00  0.00     0.162 HD
ENDROOT
BRANCH   1   5
HETATM    5  C   UNL     1     -41.731 -52.054  14.154  1.00  0.00     0.145 C 
BRANCH   5   6
HETATM    6  C   UNL     1     -41.492 -53.250  15.023  1.00  0.00    -0.002 A 
HETATM    7  C   UNL     1     -40.519 -54.285  14.890  1.00  0.00     0.030 A 
HETATM    8  C   UNL     1     -39.458 -54.463  13.867  1.00  0.00     0.070 C 
HETATM    9  N   UNL     1     -40.640 -55.206  15.853  1.00  0.00    -0.303 N 
HETATM   10  N   UNL     1     -41.689 -54.802  16.580  1.00  0.00    -0.300 N 
ATOM     11  HN  UNL     1     -40.061 -56.032  16.000  1.00  0.00     0.186 HD
HETATM   12  C   UNL     1     -42.118 -55.614  17.695  1.00  0.00     0.177 C 
HETATM   13  C   UNL     1     -42.239 -53.629  16.135  1.00  0.00     0.033 A 
HETATM   14  C   UNL     1     -43.415 -52.983  16.775  1.00  0.00     0.070 C 
ENDBRANCH   5   6
ENDBRANCH   1   5
BRANCH   3  15
HETATM   15  C   UNL     1     -44.605 -52.676  13.438  1.00  0.00     0.092 C 
BRANCH  15  16
HETATM   16  C   UNL     1     -45.489 -51.505  13.085  1.00  0.00     0.009 A 
HETATM   17  C   UNL     1     -46.818 -51.260  13.758  1.00  0.00     0.007 A 
HETATM   18  C   UNL     1     -46.777 -51.778  12.348  1.00  0.00     0.007 A 
ENDBRANCH  15  16
BRANCH  15  19
HETATM   19  C   UNL     1     -45.399 -53.956  13.358  1.00  0.00     0.009 A 
HETATM   20  C   UNL     1     -45.955 -54.535  14.641  1.00  0.00     0.007 A 
HETATM   21  C   UNL     1     -44.895 -55.278  13.886  1.00  0.00     0.007 A 
ENDBRANCH  15  19
ENDBRANCH   3  15
TORSDOF 5
ENDMDL
MODEL 9
REMARK VINA RESULT:      -4.7      2.042      6.038
REMARK  5 active torsions:
REMARK  status: ('A' for Active; 'I' for Inactive)
REMARK    1  A    between atoms: C_9  and  C_10 
REMARK    2  A    between atoms: C_10  and  C_11 
REMARK       I    between atoms: C_11  and  N_13 
REMARK    3  A    between atoms: N_13  and  C_14 
REMARK    4  A    between atoms: C_14  and  C_15 
REMARK    5  A    between atoms: C_14  and  C_18 
ROOT
HETATM    1  C   UNL     1     -40.490 -52.264  12.681  1.00  0.00     0.222 C 
HETATM    2  O   UNL     1     -40.489 -53.345  12.090  1.00  0.00    -0.273 OA
HETATM    3  N   UNL     1     -39.843 -51.210  12.104  1.00  0.00    -0.355 N 
HETATM    4  H   UNL     1     -39.402 -51.441  11.224  1.00  0.00     0.162 HD
ENDROOT
BRANCH   1   5
HETATM    5  C   UNL     1     -41.218 -52.078  14.001  1.00  0.00     0.145 C 
BRANCH   5   6
HETATM    6  C   UNL     1     -42.691 -52.347  13.973  1.00  0.00    -0.002 A 
HETATM    7  C   UNL     1     -43.767 -51.462  13.665  1.00  0.00     0.030 A 
HETATM    8  C   UNL     1     -43.733 -50.032  13.266  1.00  0.00     0.070 C 
HETATM    9  N   UNL     1     -44.954 -52.067  13.779  1.00  0.00    -0.303 N 
HETATM   10  N   UNL     1     -44.666 -53.308  14.186  1.00  0.00    -0.300 N 
ATOM     11  HN  UNL     1     -45.875 -51.669  13.595  1.00  0.00     0.186 HD
HETATM   12  C   UNL     1     -45.751 -54.225  14.448  1.00  0.00     0.177 C 
HETATM   13  C   UNL     1     -43.322 -53.540  14.313  1.00  0.00     0.033 A 
HETATM   14  C   UNL     1     -42.756 -54.841  14.757  1.00  0.00     0.070 C 
ENDBRANCH   5   6
ENDBRANCH   1   5
BRANCH   3  15
HETATM   15  C   UNL     1     -39.567 -49.913  12.680  1.00  0.00     0.092 C 
BRANCH  15  16
HETATM   16  C   UNL     1     -38.106 -49.848  13.050  1.00  0.00     0.009 A 
HETATM   17  C   UNL     1     -37.624 -49.950  14.477  1.00  0.00     0.007 A 
HETATM   18  C   UNL     1     -37.605 -48.622  13.774  1.00  0.00     0.007 A 
ENDBRANCH  15  16
BRANCH  15  19
HETATM   19  C   UNL     1     -39.892 -48.822  11.691  1.00  0.00     0.009 A 
HETATM   20  C   UNL     1     -40.943 -47.802  12.072  1.00  0.00     0.007 A 
HETATM   21  C   UNL     1     -41.200 -48.748  10.939  1.00  0.00     0.007 A 
ENDBRANCH  15  19
ENDBRANCH   3  15
TORSDOF 5
ENDMDL
