MODEL 1
REMARK VINA RESULT:      -7.4      0.000      0.000
REMARK  3 active torsions:
REMARK  status: ('A' for Active; 'I' for Inactive)
REMARK    1  A    between atoms: C_6  and  N_8 
REMARK       I    between atoms: N_8  and  C_9 
REMARK       I    between atoms: C_9  and  N_11 
REMARK    2  A    between atoms: N_11  and  C_12 
REMARK    3  A    between atoms: C_14  and  C_19 
ROOT
HETATM    1  N   UNL     1     -39.988 -48.760  11.232  1.00  0.00    -0.337 N 
HETATM    2  C   UNL     1     -41.293 -48.340  11.182  1.00  0.00     0.321 C 
HETATM    3  O   UNL     1     -42.027 -48.390  12.163  1.00  0.00    -0.247 OA
HETATM    4  N   UNL     1     -41.673 -47.877   9.947  1.00  0.00    -0.304 N 
HETATM    5  H   UNL     1     -39.375 -48.622  10.441  1.00  0.00     0.164 HD
HETATM    6  H   UNL     1     -41.192 -48.260   9.139  1.00  0.00     0.171 HD
ENDROOT
BRANCH   4   7
HETATM    7  C   UNL     1     -42.901 -47.302   9.672  1.00  0.00     0.105 A 
HETATM    8  C   UNL     1     -44.044 -47.982   9.480  1.00  0.00     0.052 A 
HETATM    9  C   UNL     1     -45.291 -47.326   9.125  1.00  0.00     0.065 A 
HETATM   10  C   UNL     1     -45.310 -45.986   9.044  1.00  0.00     0.107 A 
HETATM   11  N   UNL     1     -44.174 -45.251   9.278  1.00  0.00    -0.331 N 
HETATM   12  C   UNL     1     -42.949 -45.801   9.582  1.00  0.00     0.272 A 
HETATM   13  H   UNL     1     -44.197 -44.241   9.198  1.00  0.00     0.168 HD
HETATM   14  O   UNL     1     -41.939 -45.120   9.753  1.00  0.00    -0.266 OA
BRANCH   9  15
HETATM   15  C   UNL     1     -46.499 -48.172   8.827  1.00  0.00     0.418 C 
HETATM   16  F   UNL     1     -46.485 -48.724   7.587  1.00  0.00    -0.166 F 
HETATM   17  F   UNL     1     -46.616 -49.200   9.708  1.00  0.00    -0.166 F 
HETATM   18  F   UNL     1     -47.645 -47.449   8.920  1.00  0.00    -0.166 F 
ENDBRANCH   9  15
ENDBRANCH   4   7
BRANCH   1  19
HETATM   19  C   UNL     1     -39.482 -49.347  12.467  1.00  0.00     0.114 C 
HETATM   20  C   UNL     1     -38.674 -48.353  13.298  1.00  0.00     0.029 C 
HETATM   21  C   UNL     1     -38.169 -49.033  14.571  1.00  0.00     0.032 C 
HETATM   22  C   UNL     1     -37.399 -50.319  14.259  1.00  0.00     0.272 C 
HETATM   23  N   UNL     1     -38.122 -51.273  13.408  1.00  0.00     0.086 N 
HETATM   24  C   UNL     1     -39.184 -51.972  14.133  1.00  0.00     0.310 C 
HETATM   25  C   UNL     1     -38.640 -50.618  12.194  1.00  0.00     0.296 C 
ENDBRANCH   1  19
TORSDOF 3
ENDMDL
MODEL 2
REMARK VINA RESULT:      -6.9      4.206      6.904
REMARK  3 active torsions:
REMARK  status: ('A' for Active; 'I' for Inactive)
REMARK    1  A    between atoms: C_6  and  N_8 
REMARK       I    between atoms: N_8  and  C_9 
REMARK       I    between atoms: C_9  and  N_11 
REMARK    2  A    between atoms: N_11  and  C_12 
REMARK    3  A    between atoms: C_14  and  C_19 
ROOT
HETATM    1  N   UNL     1     -41.580 -49.626  11.001  1.00  0.00    -0.337 N 
HETATM    2  C   UNL     1     -41.886 -50.441  12.061  1.00  0.00     0.321 C 
HETATM    3  O   UNL     1     -42.159 -49.989  13.168  1.00  0.00    -0.247 OA
HETATM    4  N   UNL     1     -41.851 -51.778  11.752  1.00  0.00    -0.304 N 
HETATM    5  H   UNL     1     -41.453 -50.013  10.077  1.00  0.00     0.164 HD
HETATM    6  H   UNL     1     -41.226 -52.066  11.006  1.00  0.00     0.171 HD
ENDROOT
BRANCH   4   7
HETATM    7  C   UNL     1     -42.223 -52.790  12.619  1.00  0.00     0.105 A 
HETATM    8  C   UNL     1     -43.486 -53.205  12.821  1.00  0.00     0.052 A 
HETATM    9  C   UNL     1     -43.824 -54.228  13.796  1.00  0.00     0.065 A 
HETATM   10  C   UNL     1     -42.828 -54.818  14.476  1.00  0.00     0.107 A 
HETATM   11  N   UNL     1     -41.521 -54.455  14.267  1.00  0.00    -0.331 N 
HETATM   12  C   UNL     1     -41.125 -53.471  13.389  1.00  0.00     0.272 A 
HETATM   13  H   UNL     1     -40.779 -54.897  14.798  1.00  0.00     0.168 HD
HETATM   14  O   UNL     1     -39.948 -53.142  13.246  1.00  0.00    -0.266 OA
BRANCH   9  15
HETATM   15  C   UNL     1     -45.273 -54.559  14.031  1.00  0.00     0.418 C 
HETATM   16  F   UNL     1     -45.623 -55.800  13.607  1.00  0.00    -0.166 F 
HETATM   17  F   UNL     1     -45.589 -54.497  15.350  1.00  0.00    -0.166 F 
HETATM   18  F   UNL     1     -46.091 -53.682  13.393  1.00  0.00    -0.166 F 
ENDBRANCH   9  15
ENDBRANCH   4   7
BRANCH   1  19
HETATM   19  C   UNL     1     -41.507 -48.185  11.216  1.00  0.00     0.114 C 
HETATM   20  C   UNL     1     -42.178 -47.393  10.095  1.00  0.00     0.029 C 
HETATM   21  C   UNL     1     -42.060 -45.895  10.379  1.00  0.00     0.032 C 
HETATM   22  C   UNL     1     -40.606 -45.478  10.623  1.00  0.00     0.272 C 
HETATM   23  N   UNL     1     -39.909 -46.262  11.651  1.00  0.00     0.086 N 
HETATM   24  C   UNL     1     -40.338 -45.909  13.005  1.00  0.00     0.310 C 
HETATM   25  C   UNL     1     -40.046 -47.708  11.403  1.00  0.00     0.296 C 
ENDBRANCH   1  19
TORSDOF 3
ENDMDL
MODEL 3
REMARK VINA RESULT:      -6.8      2.130      2.882
REMARK  3 active torsions:
REMARK  status: ('A' for Active; 'I' for Inactive)
REMARK    1  A    between atoms: C_6  and  N_8 
REMARK       I    between atoms: N_8  and  C_9 
REMARK       I    between atoms: C_9  and  N_11 
REMARK    2  A    between atoms: N_11  and  C_12 
REMARK    3  A    between atoms: C_14  and  C_19 
ROOT
HETATM    1  N   UNL     1     -40.188 -51.037  11.842  1.00  0.00    -0.337 N 
HETATM    2  C   UNL     1     -41.063 -49.980  11.801  1.00  0.00     0.321 C 
HETATM    3  O   UNL     1     -41.880 -49.781  12.693  1.00  0.00    -0.247 OA
HETATM    4  N   UNL     1     -40.925 -49.199  10.680  1.00  0.00    -0.304 N 
HETATM    5  H   UNL     1     -39.462 -51.128  11.147  1.00  0.00     0.164 HD
HETATM    6  H   UNL     1     -40.572 -49.648   9.841  1.00  0.00     0.171 HD
ENDROOT
BRANCH   4   7
HETATM    7  C   UNL     1     -41.615 -48.020  10.460  1.00  0.00     0.105 A 
HETATM    8  C   UNL     1     -42.870 -47.940   9.986  1.00  0.00     0.052 A 
HETATM    9  C   UNL     1     -43.519 -46.669   9.710  1.00  0.00     0.065 A 
HETATM   10  C   UNL     1     -42.857 -45.536   9.995  1.00  0.00     0.107 A 
HETATM   11  N   UNL     1     -41.590 -45.575  10.522  1.00  0.00    -0.331 N 
HETATM   12  C   UNL     1     -40.896 -46.737  10.777  1.00  0.00     0.272 A 
HETATM   13  H   UNL     1     -41.094 -44.713  10.718  1.00  0.00     0.168 HD
HETATM   14  O   UNL     1     -39.748 -46.742  11.218  1.00  0.00    -0.266 OA
BRANCH   9  15
HETATM   15  C   UNL     1     -44.887 -46.671   9.085  1.00  0.00     0.418 C 
HETATM   16  F   UNL     1     -44.977 -47.449   7.975  1.00  0.00    -0.166 F 
HETATM   17  F   UNL     1     -45.830 -47.123   9.952  1.00  0.00    -0.166 F 
HETATM   18  F   UNL     1     -45.266 -45.420   8.717  1.00  0.00    -0.166 F 
ENDBRANCH   9  15
ENDBRANCH   4   7
BRANCH   1  19
HETATM   19  C   UNL     1     -40.283 -51.989  12.943  1.00  0.00     0.114 C 
HETATM   20  C   UNL     1     -38.971 -52.122  13.714  1.00  0.00     0.029 C 
HETATM   21  C   UNL     1     -39.137 -53.136  14.846  1.00  0.00     0.032 C 
HETATM   22  C   UNL     1     -39.670 -54.477  14.331  1.00  0.00     0.272 C 
HETATM   23  N   UNL     1     -40.897 -54.380  13.531  1.00  0.00     0.086 N 
HETATM   24  C   UNL     1     -42.079 -54.118  14.354  1.00  0.00     0.310 C 
HETATM   25  C   UNL     1     -40.757 -53.381  12.457  1.00  0.00     0.296 C 
ENDBRANCH   1  19
TORSDOF 3
ENDMDL
MODEL 4
REMARK VINA RESULT:      -6.6      3.932      4.732
REMARK  3 active torsions:
REMARK  status: ('A' for Active; 'I' for Inactive)
REMARK    1  A    between atoms: C_6  and  N_8 
REMARK       I    between atoms: N_8  and  C_9 
REMARK       I    between atoms: C_9  and  N_11 
REMARK    2  A    between atoms: N_11  and  C_12 
REMARK    3  A    between atoms: C_14  and  C_19 
ROOT
HETATM    1  N   UNL     1     -40.740 -50.929  11.517  1.00  0.00    -0.337 N 
HETATM    2  C   UNL     1     -41.143 -49.643  11.775  1.00  0.00     0.321 C 
HETATM    3  O   UNL     1     -41.325 -49.239  12.918  1.00  0.00    -0.247 OA
HETATM    4  N   UNL     1     -41.318 -48.886  10.643  1.00  0.00    -0.304 N 
HETATM    5  H   UNL     1     -40.505 -51.212  10.576  1.00  0.00     0.164 HD
HETATM    6  H   UNL     1     -41.572 -49.376   9.791  1.00  0.00     0.171 HD
ENDROOT
BRANCH   4   7
HETATM    7  C   UNL     1     -41.617 -47.535  10.645  1.00  0.00     0.105 A 
HETATM    8  C   UNL     1     -40.708 -46.545  10.630  1.00  0.00     0.052 A 
HETATM    9  C   UNL     1     -41.081 -45.143  10.703  1.00  0.00     0.065 A 
HETATM   10  C   UNL     1     -42.386 -44.827  10.727  1.00  0.00     0.107 A 
HETATM   11  N   UNL     1     -43.347 -45.807  10.698  1.00  0.00    -0.331 N 
HETATM   12  C   UNL     1     -43.073 -47.156  10.667  1.00  0.00     0.272 A 
HETATM   13  H   UNL     1     -44.329 -45.557  10.733  1.00  0.00     0.168 HD
HETATM   14  O   UNL     1     -43.955 -48.014  10.676  1.00  0.00    -0.266 OA
BRANCH   9  15
HETATM   15  C   UNL     1     -39.995 -44.104  10.785  1.00  0.00     0.418 C 
HETATM   16  F   UNL     1     -39.126 -44.305  11.808  1.00  0.00    -0.166 F 
HETATM   17  F   UNL     1     -39.254 -44.068   9.647  1.00  0.00    -0.166 F 
HETATM   18  F   UNL     1     -40.513 -42.859  10.950  1.00  0.00    -0.166 F 
ENDBRANCH   9  15
ENDBRANCH   4   7
BRANCH   1  19
HETATM   19  C   UNL     1     -40.593 -51.859  12.630  1.00  0.00     0.114 C 
HETATM   20  C   UNL     1     -39.191 -51.827  13.236  1.00  0.00     0.029 C 
HETATM   21  C   UNL     1     -39.104 -52.828  14.389  1.00  0.00     0.032 C 
HETATM   22  C   UNL     1     -39.538 -54.231  13.955  1.00  0.00     0.272 C 
HETATM   23  N   UNL     1     -40.856 -54.291  13.310  1.00  0.00     0.086 N 
HETATM   24  C   UNL     1     -41.952 -54.144  14.269  1.00  0.00     0.310 C 
HETATM   25  C   UNL     1     -40.960 -53.307  12.218  1.00  0.00     0.296 C 
ENDBRANCH   1  19
TORSDOF 3
ENDMDL
MODEL 5
REMARK VINA RESULT:      -6.4      3.912      5.020
REMARK  3 active torsions:
REMARK  status: ('A' for Active; 'I' for Inactive)
REMARK    1  A    between atoms: C_6  and  N_8 
REMARK       I    between atoms: N_8  and  C_9 
REMARK       I    between atoms: C_9  and  N_11 
REMARK    2  A    between atoms: N_11  and  C_12 
REMARK    3  A    between atoms: C_14  and  C_19 
ROOT
HETATM    1  N   UNL     1     -42.153 -52.060  12.424  1.00  0.00    -0.337 N 
HETATM    2  C   UNL     1     -42.379 -50.715  12.270  1.00  0.00     0.321 C 
HETATM    3  O   UNL     1     -43.248 -50.128  12.906  1.00  0.00    -0.247 OA
HETATM    4  N   UNL     1     -41.552 -50.123  11.349  1.00  0.00    -0.304 N 
HETATM    5  H   UNL     1     -41.372 -52.504  11.963  1.00  0.00     0.164 HD
HETATM    6  H   UNL     1     -41.201 -50.706  10.596  1.00  0.00     0.171 HD
ENDROOT
BRANCH   4   7
HETATM    7  C   UNL     1     -41.513 -48.763  11.094  1.00  0.00     0.105 A 
HETATM    8  C   UNL     1     -42.476 -48.069  10.464  1.00  0.00     0.052 A 
HETATM    9  C   UNL     1     -42.347 -46.653  10.164  1.00  0.00     0.065 A 
HETATM   10  C   UNL     1     -41.249 -46.006  10.585  1.00  0.00     0.107 A 
HETATM   11  N   UNL     1     -40.262 -46.669  11.272  1.00  0.00    -0.331 N 
HETATM   12  C   UNL     1     -40.294 -48.014  11.562  1.00  0.00     0.272 A 
HETATM   13  H   UNL     1     -39.430 -46.172  11.571  1.00  0.00     0.168 HD
HETATM   14  O   UNL     1     -39.380 -48.590  12.150  1.00  0.00    -0.266 OA
BRANCH   9  15
HETATM   15  C   UNL     1     -43.428 -45.978   9.364  1.00  0.00     0.418 C 
HETATM   16  F   UNL     1     -43.207 -45.998   8.025  1.00  0.00    -0.166 F 
HETATM   17  F   UNL     1     -44.637 -46.564   9.566  1.00  0.00    -0.166 F 
HETATM   18  F   UNL     1     -43.565 -44.674   9.718  1.00  0.00    -0.166 F 
ENDBRANCH   9  15
ENDBRANCH   4   7
BRANCH   1  19
HETATM   19  C   UNL     1     -43.017 -52.823  13.317  1.00  0.00     0.114 C 
HETATM   20  C   UNL     1     -42.290 -53.998  13.968  1.00  0.00     0.029 C 
HETATM   21  C   UNL     1     -43.252 -54.757  14.884  1.00  0.00     0.032 C 
HETATM   22  C   UNL     1     -44.527 -55.175  14.144  1.00  0.00     0.272 C 
HETATM   23  N   UNL     1     -45.218 -54.079  13.452  1.00  0.00     0.086 N 
HETATM   24  C   UNL     1     -45.930 -53.197  14.378  1.00  0.00     0.310 C 
HETATM   25  C   UNL     1     -44.291 -53.322  12.593  1.00  0.00     0.296 C 
ENDBRANCH   1  19
TORSDOF 3
ENDMDL
MODEL 6
REMARK VINA RESULT:      -6.3      4.048      6.111
REMARK  3 active torsions:
REMARK  status: ('A' for Active; 'I' for Inactive)
REMARK    1  A    between atoms: C_6  and  N_8 
REMARK       I    between atoms: N_8  and  C_9 
REMARK       I    between atoms: C_9  and  N_11 
REMARK    2  A    between atoms: N_11  and  C_12 
REMARK    3  A    between atoms: C_14  and  C_19 
ROOT
HETATM    1  N   UNL     1     -41.016 -47.640  12.445  1.00  0.00    -0.337 N 
HETATM    2  C   UNL     1     -42.052 -48.512  12.222  1.00  0.00     0.321 C 
HETATM    3  O   UNL     1     -42.933 -48.273  11.403  1.00  0.00    -0.247 OA
HETATM    4  N   UNL     1     -41.993 -49.642  12.998  1.00  0.00    -0.304 N 
HETATM    5  H   UNL     1     -40.251 -47.899  13.053  1.00  0.00     0.164 HD
HETATM    6  H   UNL     1     -41.531 -49.565  13.898  1.00  0.00     0.171 HD
ENDROOT
BRANCH   4   7
HETATM    7  C   UNL     1     -42.860 -50.715  12.882  1.00  0.00     0.105 A 
HETATM    8  C   UNL     1     -44.131 -50.729  13.320  1.00  0.00     0.052 A 
HETATM    9  C   UNL     1     -44.973 -51.910  13.232  1.00  0.00     0.065 A 
HETATM   10  C   UNL     1     -44.477 -53.007  12.639  1.00  0.00     0.107 A 
HETATM   11  N   UNL     1     -43.199 -53.020  12.138  1.00  0.00    -0.331 N 
HETATM   12  C   UNL     1     -42.329 -51.955  12.216  1.00  0.00     0.272 A 
HETATM   13  H   UNL     1     -42.830 -53.860  11.707  1.00  0.00     0.168 HD
HETATM   14  O   UNL     1     -41.177 -52.005  11.788  1.00  0.00    -0.266 OA
BRANCH   9  15
HETATM   15  C   UNL     1     -46.349 -51.869  13.840  1.00  0.00     0.418 C 
HETATM   16  F   UNL     1     -46.391 -51.258  15.051  1.00  0.00    -0.166 F 
HETATM   17  F   UNL     1     -47.227 -51.208  13.041  1.00  0.00    -0.166 F 
HETATM   18  F   UNL     1     -46.850 -53.120  14.015  1.00  0.00    -0.166 F 
ENDBRANCH   9  15
ENDBRANCH   4   7
BRANCH   1  19
HETATM   19  C   UNL     1     -41.002 -46.364  11.740  1.00  0.00     0.114 C 
HETATM   20  C   UNL     1     -39.703 -46.137  10.969  1.00  0.00     0.029 C 
HETATM   21  C   UNL     1     -39.753 -44.783  10.261  1.00  0.00     0.032 C 
HETATM   22  C   UNL     1     -40.079 -43.646  11.234  1.00  0.00     0.272 C 
HETATM   23  N   UNL     1     -41.289 -43.860  12.040  1.00  0.00     0.086 N 
HETATM   24  C   UNL     1     -42.515 -43.674  11.262  1.00  0.00     0.310 C 
HETATM   25  C   UNL     1     -41.264 -45.177  12.700  1.00  0.00     0.296 C 
ENDBRANCH   1  19
TORSDOF 3
ENDMDL
MODEL 7
REMARK VINA RESULT:      -6.3      5.232      6.613
REMARK  3 active torsions:
REMARK  status: ('A' for Active; 'I' for Inactive)
REMARK    1  A    between atoms: C_6  and  N_8 
REMARK       I    between atoms: N_8  and  C_9 
REMARK       I    between atoms: C_9  and  N_11 
REMARK    2  A    between atoms: N_11  and  C_12 
REMARK    3  A    between atoms: C_14  and  C_19 
ROOT
HETATM    1  N   UNL     1     -42.652 -52.002  12.187  1.00  0.00    -0.337 N 
HETATM    2  C   UNL     1     -42.353 -50.690  12.453  1.00  0.00     0.321 C 
HETATM    3  O   UNL     1     -42.727 -50.136  13.481  1.00  0.00    -0.247 OA
HETATM    4  N   UNL     1     -41.615 -50.085  11.466  1.00  0.00    -0.304 N 
HETATM    5  H   UNL     1     -42.254 -52.465  11.382  1.00  0.00     0.164 HD
HETATM    6  H   UNL     1     -41.724 -50.439  10.520  1.00  0.00     0.171 HD
ENDROOT
BRANCH   4   7
HETATM    7  C   UNL     1     -41.100 -48.803  11.549  1.00  0.00     0.105 A 
HETATM    8  C   UNL     1     -40.245 -48.376  12.494  1.00  0.00     0.052 A 
HETATM    9  C   UNL     1     -39.792 -46.998  12.569  1.00  0.00     0.065 A 
HETATM   10  C   UNL     1     -40.201 -46.136  11.624  1.00  0.00     0.107 A 
HETATM   11  N   UNL     1     -41.039 -46.543  10.615  1.00  0.00    -0.331 N 
HETATM   12  C   UNL     1     -41.539 -47.821  10.497  1.00  0.00     0.272 A 
HETATM   13  H   UNL     1     -41.353 -45.880   9.917  1.00  0.00     0.168 HD
HETATM   14  O   UNL     1     -42.316 -48.150   9.602  1.00  0.00    -0.266 OA
BRANCH   9  15
HETATM   15  C   UNL     1     -38.916 -46.582  13.720  1.00  0.00     0.418 C 
HETATM   16  F   UNL     1     -37.827 -47.373  13.888  1.00  0.00    -0.166 F 
HETATM   17  F   UNL     1     -38.454 -45.314  13.560  1.00  0.00    -0.166 F 
HETATM   18  F   UNL     1     -39.599 -46.600  14.894  1.00  0.00    -0.166 F 
ENDBRANCH   9  15
ENDBRANCH   4   7
BRANCH   1  19
HETATM   19  C   UNL     1     -43.497 -52.737  13.120  1.00  0.00     0.114 C 
HETATM   20  C   UNL     1     -42.877 -54.065  13.550  1.00  0.00     0.029 C 
HETATM   21  C   UNL     1     -43.815 -54.784  14.520  1.00  0.00     0.032 C 
HETATM   22  C   UNL     1     -45.222 -54.940  13.936  1.00  0.00     0.272 C 
HETATM   23  N   UNL     1     -45.826 -53.691  13.453  1.00  0.00     0.086 N 
HETATM   24  C   UNL     1     -46.272 -52.830  14.550  1.00  0.00     0.310 C 
HETATM   25  C   UNL     1     -44.915 -52.975  12.543  1.00  0.00     0.296 C 
ENDBRANCH   1  19
TORSDOF 3
ENDMDL
MODEL 8
REMARK VINA RESULT:      -6.2      5.359      7.765
REMARK  3 active torsions:
REMARK  status: ('A' for Active; 'I' for Inactive)
REMARK    1  A    between atoms: C_6  and  N_8 
REMARK       I    between atoms: N_8  and  C_9 
REMARK       I    between atoms: C_9  and  N_11 
REMARK    2  A    between atoms: N_11  and  C_12 
REMARK    3  A    between atoms: C_14  and  C_19 
ROOT
HETATM    1  N   UNL     1     -41.798 -50.250  11.372  1.00  0.00    -0.337 N 
HETATM    2  C   UNL     1     -42.236 -50.974  12.451  1.00  0.00     0.321 C 
HETATM    3  O   UNL     1     -42.456 -50.448  13.537  1.00  0.00    -0.247 OA
HETATM    4  N   UNL     1     -42.392 -52.312  12.187  1.00  0.00    -0.304 N 
HETATM    5  H   UNL     1     -41.715 -50.684  10.464  1.00  0.00     0.164 HD
HETATM    6  H   UNL     1     -41.804 -52.714  11.463  1.00  0.00     0.171 HD
ENDROOT
BRANCH   4   7
HETATM    7  C   UNL     1     -42.922 -53.228  13.078  1.00  0.00     0.105 A 
HETATM    8  C   UNL     1     -42.250 -53.784  14.102  1.00  0.00     0.052 A 
HETATM    9  C   UNL     1     -42.841 -54.794  14.964  1.00  0.00     0.065 A 
HETATM   10  C   UNL     1     -44.122 -55.138  14.763  1.00  0.00     0.107 A 
HETATM   11  N   UNL     1     -44.857 -54.561  13.757  1.00  0.00    -0.331 N 
HETATM   12  C   UNL     1     -44.359 -53.626  12.877  1.00  0.00     0.272 A 
HETATM   13  H   UNL     1     -45.820 -54.841  13.605  1.00  0.00     0.168 HD
HETATM   14  O   UNL     1     -45.030 -53.149  11.963  1.00  0.00    -0.266 OA
BRANCH   9  15
HETATM   15  C   UNL     1     -41.985 -55.439  16.021  1.00  0.00     0.418 C 
HETATM   16  F   UNL     1     -42.078 -54.840  17.235  1.00  0.00    -0.166 F 
HETATM   17  F   UNL     1     -42.319 -56.743  16.204  1.00  0.00    -0.166 F 
HETATM   18  F   UNL     1     -40.672 -55.420  15.674  1.00  0.00    -0.166 F 
ENDBRANCH   9  15
ENDBRANCH   4   7
BRANCH   1  19
HETATM   19  C   UNL     1     -41.518 -48.829  11.541  1.00  0.00     0.114 C 
HETATM   20  C   UNL     1     -41.962 -47.999  10.338  1.00  0.00     0.029 C 
HETATM   21  C   UNL     1     -41.635 -46.524  10.578  1.00  0.00     0.032 C 
HETATM   22  C   UNL     1     -40.159 -46.323  10.935  1.00  0.00     0.272 C 
HETATM   23  N   UNL     1     -39.680 -47.153  12.047  1.00  0.00     0.086 N 
HETATM   24  C   UNL     1     -40.158 -46.673  13.345  1.00  0.00     0.310 C 
HETATM   25  C   UNL     1     -40.020 -48.572  11.840  1.00  0.00     0.296 C 
ENDBRANCH   1  19
TORSDOF 3
ENDMDL
MODEL 9
REMARK VINA RESULT:      -6.0      5.189      6.910
REMARK  3 active torsions:
REMARK  status: ('A' for Active; 'I' for Inactive)
REMARK    1  A    between atoms: C_6  and  N_8 
REMARK       I    between atoms: N_8  and  C_9 
REMARK       I    between atoms: C_9  and  N_11 
REMARK    2  A    between atoms: N_11  and  C_12 
REMARK    3  A    between atoms: C_14  and  C_19 
ROOT
HETATM    1  N   UNL     1     -43.583 -52.360  12.587  1.00  0.00    -0.337 N 
HETATM    2  C   UNL     1     -42.751 -51.294  12.820  1.00  0.00     0.321 C 
HETATM    3  O   UNL     1     -42.749 -50.695  13.890  1.00  0.00    -0.247 OA
HETATM    4  N   UNL     1     -41.949 -50.982  11.751  1.00  0.00    -0.304 N 
HETATM    5  H   UNL     1     -43.501 -52.897  11.736  1.00  0.00     0.164 HD
HETATM    6  H   UNL     1     -42.299 -51.208  10.825  1.00  0.00     0.171 HD
ENDROOT
BRANCH   4   7
HETATM    7  C   UNL     1     -40.954 -50.020  11.774  1.00  0.00     0.105 A 
HETATM    8  C   UNL     1     -41.130 -48.723  11.471  1.00  0.00     0.052 A 
HETATM    9  C   UNL     1     -40.031 -47.772  11.447  1.00  0.00     0.065 A 
HETATM   10  C   UNL     1     -38.807 -48.198  11.798  1.00  0.00     0.107 A 
HETATM   11  N   UNL     1     -38.594 -49.505  12.159  1.00  0.00    -0.331 N 
HETATM   12  C   UNL     1     -39.574 -50.472  12.170  1.00  0.00     0.272 A 
HETATM   13  H   UNL     1     -37.662 -49.819  12.406  1.00  0.00     0.168 HD
HETATM   14  O   UNL     1     -39.348 -51.645  12.465  1.00  0.00    -0.266 OA
BRANCH   9  15
HETATM   15  C   UNL     1     -40.299 -46.362  10.996  1.00  0.00     0.418 C 
HETATM   16  F   UNL     1     -40.419 -45.477  12.018  1.00  0.00    -0.166 F 
HETATM   17  F   UNL     1     -39.304 -45.898  10.195  1.00  0.00    -0.166 F 
HETATM   18  F   UNL     1     -41.447 -46.283  10.273  1.00  0.00    -0.166 F 
ENDBRANCH   9  15
ENDBRANCH   4   7
BRANCH   1  19
HETATM   19  C   UNL     1     -44.541 -52.745  13.617  1.00  0.00     0.114 C 
HETATM   20  C   UNL     1     -44.882 -54.233  13.569  1.00  0.00     0.029 C 
HETATM   21  C   UNL     1     -45.893 -54.567  14.667  1.00  0.00     0.032 C 
HETATM   22  C   UNL     1     -47.129 -53.665  14.592  1.00  0.00     0.272 C 
HETATM   23  N   UNL     1     -46.835 -52.226  14.571  1.00  0.00     0.086 N 
HETATM   24  C   UNL     1     -46.429 -51.722  15.884  1.00  0.00     0.310 C 
HETATM   25  C   UNL     1     -45.837 -51.900  13.537  1.00  0.00     0.296 C 
ENDBRANCH   1  19
TORSDOF 3
ENDMDL
