MODEL 1
REMARK VINA RESULT:      -6.5      0.000      0.000
REMARK  3 active torsions:
REMARK  status: ('A' for Active; 'I' for Inactive)
REMARK    1  A    between atoms: C_9  and  N_11 
REMARK       I    between atoms: N_11  and  C_12 
REMARK       I    between atoms: C_12  and  N_14 
REMARK    2  A    between atoms: N_14  and  C_15 
REMARK    3  A    between atoms: C_18  and  N_22 
ROOT
HETATM    1  N   UNL     1     -42.704 -50.948  12.146  1.00  0.00    -0.338 N 
HETATM    2  C   UNL     1     -42.521 -49.594  12.286  1.00  0.00     0.321 C 
HETATM    3  O   UNL     1     -42.620 -49.045  13.375  1.00  0.00    -0.247 OA
HETATM    4  N   UNL     1     -42.264 -48.975  11.077  1.00  0.00    -0.308 N 
HETATM    5  H   UNL     1     -42.173 -51.376  11.397  1.00  0.00     0.164 HD
HETATM    6  H   UNL     1     -42.545 -49.480  10.249  1.00  0.00     0.170 HD
ENDROOT
BRANCH   1   7
HETATM    7  C   UNL     1     -42.901 -51.804  13.339  1.00  0.00     0.090 C 
HETATM    8  C   UNL     1     -44.364 -51.718  13.785  1.00  0.00     0.061 C 
HETATM    9  C   UNL     1     -45.004 -53.015  14.294  1.00  0.00     0.225 C 
HETATM   10  N   UNL     1     -44.580 -54.130  13.446  1.00  0.00     0.093 N 
HETATM   11  C   UNL     1     -44.798 -53.267  15.795  1.00  0.00     0.036 C 
HETATM   12  C   UNL     1     -45.392 -55.329  13.638  1.00  0.00     0.310 C 
HETATM   13  C   UNL     1     -43.150 -54.382  13.649  1.00  0.00     0.225 C 
HETATM   14  C   UNL     1     -42.774 -54.723  15.095  1.00  0.00     0.036 C 
HETATM   15  C   UNL     1     -42.357 -53.213  13.054  1.00  0.00     0.061 C 
HETATM   16  C   UNL     1     -43.490 -53.941  16.192  1.00  0.00     0.004 C 
ENDBRANCH   1   7
BRANCH   4  17
HETATM   17  C   UNL     1     -42.027 -47.582  10.941  1.00  0.00     0.051 A 
HETATM   18  C   UNL     1     -40.765 -47.026  11.013  1.00  0.00     0.035 A 
HETATM   19  C   UNL     1     -40.603 -45.637  10.997  1.00  0.00     0.051 A 
HETATM   20  C   UNL     1     -41.709 -44.800  10.925  1.00  0.00     0.103 A 
HETATM   21  N   UNL     1     -42.941 -45.335  10.746  1.00  0.00    -0.350 N 
HETATM   22  C   UNL     1     -43.079 -46.691  10.754  1.00  0.00     0.119 A 
ATOM     23  HN  UNL     1     -43.752 -44.732  10.608  1.00  0.00     0.166 HD
BRANCH  20  24
HETATM   24  N   UNL     1     -41.573 -43.426  11.014  1.00  0.00    -0.367 N 
HETATM   25  C   UNL     1     -42.779 -42.605  11.068  1.00  0.00     0.124 C 
HETATM   26  C   UNL     1     -42.366 -41.340  11.823  1.00  0.00     0.021 C 
HETATM   27  C   UNL     1     -41.107 -41.729  12.577  1.00  0.00     0.021 C 
HETATM   28  C   UNL     1     -40.454 -42.780  11.690  1.00  0.00     0.124 C 
ENDBRANCH  20  24
ENDBRANCH   4  17
TORSDOF 3
ENDMDL
MODEL 2
REMARK VINA RESULT:      -6.5      1.460      2.050
REMARK  3 active torsions:
REMARK  status: ('A' for Active; 'I' for Inactive)
REMARK    1  A    between atoms: C_9  and  N_11 
REMARK       I    between atoms: N_11  and  C_12 
REMARK       I    between atoms: C_12  and  N_14 
REMARK    2  A    between atoms: N_14  and  C_15 
REMARK    3  A    between atoms: C_18  and  N_22 
ROOT
HETATM    1  N   UNL     1     -41.202 -52.195  11.668  1.00  0.00    -0.338 N 
HETATM    2  C   UNL     1     -41.385 -50.846  11.849  1.00  0.00     0.321 C 
HETATM    3  O   UNL     1     -42.057 -50.411  12.774  1.00  0.00    -0.247 OA
HETATM    4  N   UNL     1     -40.769 -50.099  10.861  1.00  0.00    -0.308 N 
HETATM    5  H   UNL     1     -40.323 -52.453  11.234  1.00  0.00     0.164 HD
HETATM    6  H   UNL     1     -40.553 -50.586  10.004  1.00  0.00     0.170 HD
ENDROOT
BRANCH   1   7
HETATM    7  C   UNL     1     -41.709 -53.161  12.671  1.00  0.00     0.090 C 
HETATM    8  C   UNL     1     -41.023 -52.896  14.015  1.00  0.00     0.061 C 
HETATM    9  C   UNL     1     -41.892 -53.047  15.270  1.00  0.00     0.225 C 
HETATM   10  N   UNL     1     -43.214 -52.471  15.016  1.00  0.00     0.093 N 
HETATM   11  C   UNL     1     -41.938 -54.476  15.831  1.00  0.00     0.036 C 
HETATM   12  C   UNL     1     -43.985 -52.262  16.239  1.00  0.00     0.310 C 
HETATM   13  C   UNL     1     -43.926 -53.297  14.037  1.00  0.00     0.225 C 
HETATM   14  C   UNL     1     -44.125 -54.753  14.473  1.00  0.00     0.036 C 
HETATM   15  C   UNL     1     -43.245 -53.138  12.673  1.00  0.00     0.061 C 
HETATM   16  C   UNL     1     -42.960 -55.415  15.202  1.00  0.00     0.004 C 
ENDBRANCH   1   7
BRANCH   4  17
HETATM   17  C   UNL     1     -40.794 -48.680  10.817  1.00  0.00     0.051 A 
HETATM   18  C   UNL     1     -39.863 -47.894  11.466  1.00  0.00     0.035 A 
HETATM   19  C   UNL     1     -40.009 -46.503  11.491  1.00  0.00     0.051 A 
HETATM   20  C   UNL     1     -41.099 -45.898  10.878  1.00  0.00     0.103 A 
HETATM   21  N   UNL     1     -41.958 -46.650  10.148  1.00  0.00    -0.350 N 
HETATM   22  C   UNL     1     -41.794 -48.004  10.127  1.00  0.00     0.119 A 
ATOM     23  HN  UNL     1     -42.713 -46.211   9.624  1.00  0.00     0.166 HD
BRANCH  20  24
HETATM   24  N   UNL     1     -41.313 -44.535  10.983  1.00  0.00    -0.367 N 
HETATM   25  C   UNL     1     -42.686 -44.045  11.053  1.00  0.00     0.124 C 
HETATM   26  C   UNL     1     -42.598 -42.725  11.822  1.00  0.00     0.021 C 
HETATM   27  C   UNL     1     -41.275 -42.792  12.564  1.00  0.00     0.021 C 
HETATM   28  C   UNL     1     -40.387 -43.635  11.661  1.00  0.00     0.124 C 
ENDBRANCH  20  24
ENDBRANCH   4  17
TORSDOF 3
ENDMDL
MODEL 3
REMARK VINA RESULT:      -6.4      2.421      9.407
REMARK  3 active torsions:
REMARK  status: ('A' for Active; 'I' for Inactive)
REMARK    1  A    between atoms: C_9  and  N_11 
REMARK       I    between atoms: N_11  and  C_12 
REMARK       I    between atoms: C_12  and  N_14 
REMARK    2  A    between atoms: N_14  and  C_15 
REMARK    3  A    between atoms: C_18  and  N_22 
ROOT
HETATM    1  N   UNL     1     -39.842 -46.430  10.475  1.00  0.00    -0.338 N 
HETATM    2  C   UNL     1     -40.113 -47.395  11.414  1.00  0.00     0.321 C 
HETATM    3  O   UNL     1     -40.709 -47.131  12.449  1.00  0.00    -0.247 OA
HETATM    4  N   UNL     1     -39.604 -48.629  11.054  1.00  0.00    -0.308 N 
HETATM    5  H   UNL     1     -39.799 -46.762   9.519  1.00  0.00     0.164 HD
HETATM    6  H   UNL     1     -38.865 -48.623  10.366  1.00  0.00     0.170 HD
ENDROOT
BRANCH   1   7
HETATM    7  C   UNL     1     -40.382 -45.059  10.634  1.00  0.00     0.090 C 
HETATM    8  C   UNL     1     -41.911 -45.125  10.701  1.00  0.00     0.061 C 
HETATM    9  C   UNL     1     -42.598 -44.162  11.678  1.00  0.00     0.225 C 
HETATM   10  N   UNL     1     -41.829 -44.107  12.924  1.00  0.00     0.093 N 
HETATM   11  C   UNL     1     -42.909 -42.782  11.082  1.00  0.00     0.036 C 
HETATM   12  C   UNL     1     -42.573 -43.494  14.021  1.00  0.00     0.310 C 
HETATM   13  C   UNL     1     -40.546 -43.444  12.676  1.00  0.00     0.225 C 
HETATM   14  C   UNL     1     -40.673 -42.014  12.139  1.00  0.00     0.036 C 
HETATM   15  C   UNL     1     -39.678 -44.364  11.810  1.00  0.00     0.061 C 
HETATM   16  C   UNL     1     -41.778 -41.761  11.117  1.00  0.00     0.004 C 
ENDBRANCH   1   7
BRANCH   4  17
HETATM   17  C   UNL     1     -39.752 -49.802  11.840  1.00  0.00     0.051 A 
HETATM   18  C   UNL     1     -38.770 -50.259  12.696  1.00  0.00     0.035 A 
HETATM   19  C   UNL     1     -38.920 -51.486  13.351  1.00  0.00     0.051 A 
HETATM   20  C   UNL     1     -40.049 -52.265  13.137  1.00  0.00     0.103 A 
HETATM   21  N   UNL     1     -41.065 -51.777  12.385  1.00  0.00    -0.350 N 
HETATM   22  C   UNL     1     -40.906 -50.574  11.762  1.00  0.00     0.119 A 
ATOM     23  HN  UNL     1     -41.935 -52.300  12.287  1.00  0.00     0.166 HD
BRANCH  20  24
HETATM   24  N   UNL     1     -40.165 -53.526  13.695  1.00  0.00    -0.367 N 
HETATM   25  C   UNL     1     -39.127 -53.982  14.614  1.00  0.00     0.124 C 
HETATM   26  C   UNL     1     -39.823 -54.988  15.533  1.00  0.00     0.021 C 
HETATM   27  C   UNL     1     -41.304 -54.674  15.405  1.00  0.00     0.021 C 
HETATM   28  C   UNL     1     -41.449 -54.154  13.982  1.00  0.00     0.124 C 
ENDBRANCH  20  24
ENDBRANCH   4  17
TORSDOF 3
ENDMDL
MODEL 4
REMARK VINA RESULT:      -6.1      2.662      3.918
REMARK  3 active torsions:
REMARK  status: ('A' for Active; 'I' for Inactive)
REMARK    1  A    between atoms: C_9  and  N_11 
REMARK       I    between atoms: N_11  and  C_12 
REMARK       I    between atoms: C_12  and  N_14 
REMARK    2  A    between atoms: N_14  and  C_15 
REMARK    3  A    between atoms: C_18  and  N_22 
ROOT
HETATM    1  N   UNL     1     -40.631 -53.459  12.557  1.00  0.00    -0.338 N 
HETATM    2  C   UNL     1     -40.699 -52.101  12.752  1.00  0.00     0.321 C 
HETATM    3  O   UNL     1     -40.695 -51.616  13.875  1.00  0.00    -0.247 OA
HETATM    4  N   UNL     1     -40.811 -51.409  11.560  1.00  0.00    -0.308 N 
HETATM    5  H   UNL     1     -40.179 -53.745  11.696  1.00  0.00     0.164 HD
HETATM    6  H   UNL     1     -41.139 -51.938  10.766  1.00  0.00     0.170 HD
ENDROOT
BRANCH   1   7
HETATM    7  C   UNL     1     -40.417 -54.370  13.705  1.00  0.00     0.090 C 
HETATM    8  C   UNL     1     -39.063 -54.059  14.350  1.00  0.00     0.061 C 
HETATM    9  C   UNL     1     -38.996 -54.139  15.880  1.00  0.00     0.225 C 
HETATM   10  N   UNL     1     -40.211 -53.552  16.449  1.00  0.00     0.093 N 
HETATM   11  C   UNL     1     -38.675 -55.540  16.419  1.00  0.00     0.036 C 
HETATM   12  C   UNL     1     -40.090 -53.276  17.878  1.00  0.00     0.310 C 
HETATM   13  C   UNL     1     -41.359 -54.408  16.137  1.00  0.00     0.225 C 
HETATM   14  C   UNL     1     -41.235 -55.841  16.670  1.00  0.00     0.036 C 
HETATM   15  C   UNL     1     -41.641 -54.321  14.633  1.00  0.00     0.061 C 
HETATM   16  C   UNL     1     -39.857 -56.489  16.578  1.00  0.00     0.004 C 
ENDBRANCH   1   7
BRANCH   4  17
HETATM   17  C   UNL     1     -40.889 -49.994  11.477  1.00  0.00     0.051 A 
HETATM   18  C   UNL     1     -42.078 -49.301  11.586  1.00  0.00     0.035 A 
HETATM   19  C   UNL     1     -42.112 -47.919  11.371  1.00  0.00     0.051 A 
HETATM   20  C   UNL     1     -40.955 -47.231  11.031  1.00  0.00     0.103 A 
HETATM   21  N   UNL     1     -39.766 -47.882  11.026  1.00  0.00    -0.350 N 
HETATM   22  C   UNL     1     -39.751 -49.227  11.248  1.00  0.00     0.119 A 
ATOM     23  HN  UNL     1     -38.898 -47.374  10.861  1.00  0.00     0.166 HD
BRANCH  20  24
HETATM   24  N   UNL     1     -40.991 -45.884  10.713  1.00  0.00    -0.367 N 
HETATM   25  C   UNL     1     -42.130 -45.090  11.161  1.00  0.00     0.124 C 
HETATM   26  C   UNL     1     -41.594 -43.663  11.290  1.00  0.00     0.021 C 
HETATM   27  C   UNL     1     -40.087 -43.819  11.390  1.00  0.00     0.021 C 
HETATM   28  C   UNL     1     -39.790 -45.068  10.573  1.00  0.00     0.124 C 
ENDBRANCH  20  24
ENDBRANCH   4  17
TORSDOF 3
ENDMDL
MODEL 5
REMARK VINA RESULT:      -6.1      1.635      2.257
REMARK  3 active torsions:
REMARK  status: ('A' for Active; 'I' for Inactive)
REMARK    1  A    between atoms: C_9  and  N_11 
REMARK       I    between atoms: N_11  and  C_12 
REMARK       I    between atoms: C_12  and  N_14 
REMARK    2  A    between atoms: N_14  and  C_15 
REMARK    3  A    between atoms: C_18  and  N_22 
ROOT
HETATM    1  N   UNL     1     -41.814 -50.602  11.795  1.00  0.00    -0.338 N 
HETATM    2  C   UNL     1     -41.913 -49.246  11.985  1.00  0.00     0.321 C 
HETATM    3  O   UNL     1     -42.224 -48.773  13.070  1.00  0.00    -0.247 OA
HETATM    4  N   UNL     1     -41.664 -48.538  10.824  1.00  0.00    -0.308 N 
HETATM    5  H   UNL     1     -41.139 -50.889  11.096  1.00  0.00     0.164 HD
HETATM    6  H   UNL     1     -41.758 -49.051   9.960  1.00  0.00     0.170 HD
ENDROOT
BRANCH   1   7
HETATM    7  C   UNL     1     -41.957 -51.531  12.941  1.00  0.00     0.090 C 
HETATM    8  C   UNL     1     -42.160 -52.954  12.413  1.00  0.00     0.061 C 
HETATM    9  C   UNL     1     -41.474 -54.081  13.195  1.00  0.00     0.225 C 
HETATM   10  N   UNL     1     -40.131 -53.649  13.590  1.00  0.00     0.093 N 
HETATM   11  C   UNL     1     -42.311 -54.636  14.357  1.00  0.00     0.036 C 
HETATM   12  C   UNL     1     -39.288 -54.756  14.033  1.00  0.00     0.310 C 
HETATM   13  C   UNL     1     -40.236 -52.586  14.592  1.00  0.00     0.225 C 
HETATM   14  C   UNL     1     -40.990 -52.996  15.863  1.00  0.00     0.036 C 
HETATM   15  C   UNL     1     -40.787 -51.326  13.915  1.00  0.00     0.061 C 
HETATM   16  C   UNL     1     -42.220 -53.877  15.676  1.00  0.00     0.004 C 
ENDBRANCH   1   7
BRANCH   4  17
HETATM   17  C   UNL     1     -41.690 -47.120  10.745  1.00  0.00     0.051 A 
HETATM   18  C   UNL     1     -40.549 -46.346  10.808  1.00  0.00     0.035 A 
HETATM   19  C   UNL     1     -40.645 -44.950  10.853  1.00  0.00     0.051 A 
HETATM   20  C   UNL     1     -41.887 -44.330  10.849  1.00  0.00     0.103 A 
HETATM   21  N   UNL     1     -43.006 -45.074  10.679  1.00  0.00    -0.350 N 
HETATM   22  C   UNL     1     -42.893 -46.432  10.628  1.00  0.00     0.119 A 
ATOM     23  HN  UNL     1     -43.918 -44.626  10.590  1.00  0.00     0.166 HD
BRANCH  20  24
HETATM   24  N   UNL     1     -42.002 -42.959  10.997  1.00  0.00    -0.367 N 
HETATM   25  C   UNL     1     -43.335 -42.377  11.121  1.00  0.00     0.124 C 
HETATM   26  C   UNL     1     -43.134 -41.089  11.922  1.00  0.00     0.021 C 
HETATM   27  C   UNL     1     -41.799 -41.269  12.623  1.00  0.00     0.021 C 
HETATM   28  C   UNL     1     -40.997 -42.145  11.671  1.00  0.00     0.124 C 
ENDBRANCH  20  24
ENDBRANCH   4  17
TORSDOF 3
ENDMDL
MODEL 6
REMARK VINA RESULT:      -6.1      3.689     10.041
REMARK  3 active torsions:
REMARK  status: ('A' for Active; 'I' for Inactive)
REMARK    1  A    between atoms: C_9  and  N_11 
REMARK       I    between atoms: N_11  and  C_12 
REMARK       I    between atoms: C_12  and  N_14 
REMARK    2  A    between atoms: N_14  and  C_15 
REMARK    3  A    between atoms: C_18  and  N_22 
ROOT
HETATM    1  N   UNL     1     -41.659 -51.066  12.515  1.00  0.00    -0.338 N 
HETATM    2  C   UNL     1     -40.906 -51.760  13.429  1.00  0.00     0.321 C 
HETATM    3  O   UNL     1     -40.060 -51.204  14.115  1.00  0.00    -0.247 OA
HETATM    4  N   UNL     1     -41.200 -53.112  13.427  1.00  0.00    -0.308 N 
HETATM    5  H   UNL     1     -42.588 -51.438  12.353  1.00  0.00     0.164 HD
HETATM    6  H   UNL     1     -41.654 -53.468  12.598  1.00  0.00     0.170 HD
ENDROOT
BRANCH   1   7
HETATM    7  C   UNL     1     -41.556 -49.590  12.427  1.00  0.00     0.090 C 
HETATM    8  C   UNL     1     -40.986 -49.206  11.058  1.00  0.00     0.061 C 
HETATM    9  C   UNL     1     -41.575 -47.954  10.396  1.00  0.00     0.225 C 
HETATM   10  N   UNL     1     -43.026 -47.936  10.598  1.00  0.00     0.093 N 
HETATM   11  C   UNL     1     -40.879 -46.646  10.801  1.00  0.00     0.036 C 
HETATM   12  C   UNL     1     -43.706 -46.980   9.728  1.00  0.00     0.310 C 
HETATM   13  C   UNL     1     -43.318 -47.712  12.016  1.00  0.00     0.225 C 
HETATM   14  C   UNL     1     -42.751 -46.400  12.573  1.00  0.00     0.036 C 
HETATM   15  C   UNL     1     -42.905 -48.959  12.806  1.00  0.00     0.061 C 
HETATM   16  C   UNL     1     -41.360 -45.997  12.094  1.00  0.00     0.004 C 
ENDBRANCH   1   7
BRANCH   4  17
HETATM   17  C   UNL     1     -40.573 -54.055  14.283  1.00  0.00     0.051 A 
HETATM   18  C   UNL     1     -41.168 -54.534  15.433  1.00  0.00     0.035 A 
HETATM   19  C   UNL     1     -40.455 -55.365  16.303  1.00  0.00     0.051 A 
HETATM   20  C   UNL     1     -39.136 -55.705  16.029  1.00  0.00     0.103 A 
HETATM   21  N   UNL     1     -38.579 -55.329  14.852  1.00  0.00    -0.350 N 
HETATM   22  C   UNL     1     -39.293 -54.527  14.012  1.00  0.00     0.119 A 
ATOM     23  HN  UNL     1     -37.642 -55.640  14.600  1.00  0.00     0.166 HD
BRANCH  20  24
HETATM   24  N   UNL     1     -38.385 -56.439  16.930  1.00  0.00    -0.367 N 
HETATM   25  C   UNL     1     -37.245 -55.797  17.577  1.00  0.00     0.124 C 
HETATM   26  C   UNL     1     -37.081 -56.529  18.911  1.00  0.00     0.021 C 
HETATM   27  C   UNL     1     -38.423 -57.194  19.159  1.00  0.00     0.021 C 
HETATM   28  C   UNL     1     -38.950 -57.494  17.763  1.00  0.00     0.124 C 
ENDBRANCH  20  24
ENDBRANCH   4  17
TORSDOF 3
ENDMDL
MODEL 7
REMARK VINA RESULT:      -6.1     14.505     17.599
REMARK  3 active torsions:
REMARK  status: ('A' for Active; 'I' for Inactive)
REMARK    1  A    between atoms: C_9  and  N_11 
REMARK       I    between atoms: N_11  and  C_12 
REMARK       I    between atoms: C_12  and  N_14 
REMARK    2  A    between atoms: N_14  and  C_15 
REMARK    3  A    between atoms: C_18  and  N_22 
ROOT
HETATM    1  N   UNL     1     -45.723 -47.280  -1.700  1.00  0.00    -0.338 N 
HETATM    2  C   UNL     1     -46.582 -48.346  -1.808  1.00  0.00     0.321 C 
HETATM    3  O   UNL     1     -46.258 -49.372  -2.390  1.00  0.00    -0.247 OA
HETATM    4  N   UNL     1     -47.812 -48.084  -1.233  1.00  0.00    -0.308 N 
HETATM    5  H   UNL     1     -45.844 -46.715  -0.868  1.00  0.00     0.164 HD
HETATM    6  H   UNL     1     -48.044 -47.111  -1.102  1.00  0.00     0.170 HD
ENDROOT
BRANCH   1   7
HETATM    7  C   UNL     1     -44.324 -47.395  -2.176  1.00  0.00     0.090 C 
HETATM    8  C   UNL     1     -44.209 -46.750  -3.561  1.00  0.00     0.061 C 
HETATM    9  C   UNL     1     -42.923 -45.965  -3.848  1.00  0.00     0.225 C 
HETATM   10  N   UNL     1     -42.557 -45.186  -2.664  1.00  0.00     0.093 N 
HETATM   11  C   UNL     1     -41.777 -46.823  -4.402  1.00  0.00     0.036 C 
HETATM   12  C   UNL     1     -41.558 -44.160  -2.949  1.00  0.00     0.310 C 
HETATM   13  C   UNL     1     -42.141 -46.093  -1.591  1.00  0.00     0.225 C 
HETATM   14  C   UNL     1     -40.947 -46.985  -1.954  1.00  0.00     0.036 C 
HETATM   15  C   UNL     1     -43.370 -46.863  -1.095  1.00  0.00     0.061 C 
HETATM   16  C   UNL     1     -40.918 -47.548  -3.372  1.00  0.00     0.004 C 
ENDBRANCH   1   7
BRANCH   4  17
HETATM   17  C   UNL     1     -48.879 -49.020  -1.196  1.00  0.00     0.051 A 
HETATM   18  C   UNL     1     -49.091 -49.874  -0.132  1.00  0.00     0.035 A 
HETATM   19  C   UNL     1     -50.080 -50.860  -0.204  1.00  0.00     0.051 A 
HETATM   20  C   UNL     1     -50.850 -51.002  -1.352  1.00  0.00     0.103 A 
HETATM   21  N   UNL     1     -50.723 -50.102  -2.357  1.00  0.00    -0.350 N 
HETATM   22  C   UNL     1     -49.760 -49.142  -2.265  1.00  0.00     0.119 A 
ATOM     23  HN  UNL     1     -51.339 -50.143  -3.169  1.00  0.00     0.166 HD
BRANCH  20  24
HETATM   24  N   UNL     1     -51.760 -52.037  -1.479  1.00  0.00    -0.367 N 
HETATM   25  C   UNL     1     -51.415 -53.343  -0.927  1.00  0.00     0.124 C 
HETATM   26  C   UNL     1     -52.756 -54.003  -0.600  1.00  0.00     0.021 C 
HETATM   27  C   UNL     1     -53.747 -52.856  -0.519  1.00  0.00     0.021 C 
HETATM   28  C   UNL     1     -53.203 -51.828  -1.501  1.00  0.00     0.124 C 
ENDBRANCH  20  24
ENDBRANCH   4  17
TORSDOF 3
ENDMDL
MODEL 8
REMARK VINA RESULT:      -6.1      4.364      8.395
REMARK  3 active torsions:
REMARK  status: ('A' for Active; 'I' for Inactive)
REMARK    1  A    between atoms: C_9  and  N_11 
REMARK       I    between atoms: N_11  and  C_12 
REMARK       I    between atoms: C_12  and  N_14 
REMARK    2  A    between atoms: N_14  and  C_15 
REMARK    3  A    between atoms: C_18  and  N_22 
ROOT
HETATM    1  N   UNL     1     -42.016 -52.556  12.236  1.00  0.00    -0.338 N 
HETATM    2  C   UNL     1     -42.805 -52.192  13.299  1.00  0.00     0.321 C 
HETATM    3  O   UNL     1     -42.393 -51.444  14.175  1.00  0.00    -0.247 OA
HETATM    4  N   UNL     1     -44.047 -52.799  13.256  1.00  0.00    -0.308 N 
HETATM    5  H   UNL     1     -42.517 -52.750  11.377  1.00  0.00     0.164 HD
HETATM    6  H   UNL     1     -44.119 -53.628  12.685  1.00  0.00     0.170 HD
ENDROOT
BRANCH   1   7
HETATM    7  C   UNL     1     -40.679 -51.943  12.053  1.00  0.00     0.090 C 
HETATM    8  C   UNL     1     -40.846 -50.448  11.763  1.00  0.00     0.061 C 
HETATM    9  C   UNL     1     -39.811 -49.507  12.392  1.00  0.00     0.225 C 
HETATM   10  N   UNL     1     -39.528 -49.944  13.761  1.00  0.00     0.093 N 
HETATM   11  C   UNL     1     -38.552 -49.301  11.537  1.00  0.00     0.036 C 
HETATM   12  C   UNL     1     -38.826 -48.930  14.544  1.00  0.00     0.310 C 
HETATM   13  C   UNL     1     -38.814 -51.223  13.728  1.00  0.00     0.225 C 
HETATM   14  C   UNL     1     -37.485 -51.179  12.965  1.00  0.00     0.036 C 
HETATM   15  C   UNL     1     -39.779 -52.311  13.243  1.00  0.00     0.061 C 
HETATM   16  C   UNL     1     -37.456 -50.351  11.685  1.00  0.00     0.004 C 
ENDBRANCH   1   7
BRANCH   4  17
HETATM   17  C   UNL     1     -45.060 -52.587  14.229  1.00  0.00     0.051 A 
HETATM   18  C   UNL     1     -46.034 -51.618  14.097  1.00  0.00     0.035 A 
HETATM   19  C   UNL     1     -46.930 -51.371  15.143  1.00  0.00     0.051 A 
HETATM   20  C   UNL     1     -46.840 -52.085  16.330  1.00  0.00     0.103 A 
HETATM   21  N   UNL     1     -45.959 -53.110  16.429  1.00  0.00    -0.350 N 
HETATM   22  C   UNL     1     -45.100 -53.342  15.396  1.00  0.00     0.119 A 
ATOM     23  HN  UNL     1     -45.939 -53.697  17.262  1.00  0.00     0.166 HD
BRANCH  20  24
HETATM   24  N   UNL     1     -47.650 -51.782  17.411  1.00  0.00    -0.367 N 
HETATM   25  C   UNL     1     -47.292 -52.309  18.724  1.00  0.00     0.124 C 
HETATM   26  C   UNL     1     -47.881 -51.314  19.725  1.00  0.00     0.021 C 
HETATM   27  C   UNL     1     -48.102 -50.040  18.928  1.00  0.00     0.021 C 
HETATM   28  C   UNL     1     -48.396 -50.533  17.519  1.00  0.00     0.124 C 
ENDBRANCH  20  24
ENDBRANCH   4  17
TORSDOF 3
ENDMDL
MODEL 9
REMARK VINA RESULT:      -5.9      2.111      9.296
REMARK  3 active torsions:
REMARK  status: ('A' for Active; 'I' for Inactive)
REMARK    1  A    between atoms: C_9  and  N_11 
REMARK       I    between atoms: N_11  and  C_12 
REMARK       I    between atoms: C_12  and  N_14 
REMARK    2  A    between atoms: N_14  and  C_15 
REMARK    3  A    between atoms: C_18  and  N_22 
ROOT
HETATM    1  N   UNL     1     -40.880 -49.298  10.621  1.00  0.00    -0.338 N 
HETATM    2  C   UNL     1     -41.087 -50.079  11.731  1.00  0.00     0.321 C 
HETATM    3  O   UNL     1     -41.178 -49.590  12.849  1.00  0.00    -0.247 OA
HETATM    4  N   UNL     1     -41.130 -51.426  11.421  1.00  0.00    -0.308 N 
HETATM    5  H   UNL     1     -41.273 -49.664   9.761  1.00  0.00     0.164 HD
HETATM    6  H   UNL     1     -40.710 -51.694  10.543  1.00  0.00     0.170 HD
ENDROOT
BRANCH   1   7
HETATM    7  C   UNL     1     -40.893 -47.820  10.731  1.00  0.00     0.090 C 
HETATM    8  C   UNL     1     -42.306 -47.355  11.092  1.00  0.00     0.061 C 
HETATM    9  C   UNL     1     -42.413 -46.181  12.074  1.00  0.00     0.225 C 
HETATM   10  N   UNL     1     -41.421 -46.348  13.138  1.00  0.00     0.093 N 
HETATM   11  C   UNL     1     -42.373 -44.800  11.403  1.00  0.00     0.036 C 
HETATM   12  C   UNL     1     -41.670 -45.478  14.284  1.00  0.00     0.310 C 
HETATM   13  C   UNL     1     -40.076 -46.176  12.583  1.00  0.00     0.225 C 
HETATM   14  C   UNL     1     -39.838 -44.809  11.930  1.00  0.00     0.036 C 
HETATM   15  C   UNL     1     -39.765 -47.368  11.672  1.00  0.00     0.061 C 
HETATM   16  C   UNL     1     -40.990 -44.229  11.115  1.00  0.00     0.004 C 
ENDBRANCH   1   7
BRANCH   4  17
HETATM   17  C   UNL     1     -41.342 -52.449  12.382  1.00  0.00     0.051 A 
HETATM   18  C   UNL     1     -42.593 -52.951  12.678  1.00  0.00     0.035 A 
HETATM   19  C   UNL     1     -42.757 -53.868  13.722  1.00  0.00     0.051 A 
HETATM   20  C   UNL     1     -41.667 -54.272  14.482  1.00  0.00     0.103 A 
HETATM   21  N   UNL     1     -40.422 -53.868  14.131  1.00  0.00    -0.350 N 
HETATM   22  C   UNL     1     -40.280 -52.982  13.105  1.00  0.00     0.119 A 
ATOM     23  HN  UNL     1     -39.604 -54.222  14.627  1.00  0.00     0.166 HD
BRANCH  20  24
HETATM   24  N   UNL     1     -41.828 -55.096  15.582  1.00  0.00    -0.367 N 
HETATM   25  C   UNL     1     -40.638 -55.554  16.292  1.00  0.00     0.124 C 
HETATM   26  C   UNL     1     -41.106 -55.807  17.727  1.00  0.00     0.021 C 
HETATM   27  C   UNL     1     -42.393 -55.013  17.865  1.00  0.00     0.021 C 
HETATM   28  C   UNL     1     -42.987 -55.027  16.464  1.00  0.00     0.124 C 
ENDBRANCH  20  24
ENDBRANCH   4  17
TORSDOF 3
ENDMDL
