MODEL 1
REMARK VINA RESULT:      -5.4      0.000      0.000
REMARK  5 active torsions:
REMARK  status: ('A' for Active; 'I' for Inactive)
REMARK    1  A    between atoms: N_6  and  C_7 
REMARK    2  A    between atoms: C_7  and  C_8 
REMARK    3  A    between atoms: N_17  and  C_18 
REMARK    4  A    between atoms: C_18  and  C_19 
REMARK    5  A    between atoms: C_19  and  O_20 
ROOT
HETATM    1  C   UNL     3     -41.236 -52.043  12.645  1.00  0.00     0.113 A 
HETATM    2  N   UNL     3     -42.428 -52.123  12.008  1.00  0.00    -0.343 N 
ATOM      3  HN  UNL     3     -42.737 -51.606  11.185  1.00  0.00     0.167 HD
HETATM    4  C   UNL     3     -43.105 -53.039  12.709  1.00  0.00     0.060 A 
HETATM    5  C   UNL     3     -44.394 -53.495  12.458  1.00  0.00     0.032 A 
HETATM    6  C   UNL     3     -44.919 -54.468  13.322  1.00  0.00     0.002 A 
HETATM    7  C   UNL     3     -44.150 -54.947  14.407  1.00  0.00     0.002 A 
HETATM    8  C   UNL     3     -42.847 -54.459  14.638  1.00  0.00     0.032 A 
HETATM    9  C   UNL     3     -42.350 -53.497  13.750  1.00  0.00     0.062 A 
HETATM   10  N   UNL     3     -41.151 -52.872  13.727  1.00  0.00    -0.331 N 
ENDROOT
BRANCH   1  11
HETATM   11  C   UNL     3     -40.150 -51.148  12.118  1.00  0.00     0.345 C 
BRANCH  11  12
HETATM   12  N   UNL     3     -40.590 -50.429  10.912  1.00  0.00     0.086 N 
HETATM   13  C   UNL     3     -40.824 -49.003  11.183  1.00  0.00     0.307 C 
HETATM   14  H   UNL     3     -39.816 -50.490  10.210  1.00  0.00     0.315 HD
ENDBRANCH  11  12
ENDBRANCH   1  11
BRANCH  10  15
HETATM   15  C   UNL     3     -40.027 -53.013  14.670  1.00  0.00     0.156 C 
BRANCH  15  16
HETATM   16  C   UNL     3     -39.279 -54.341  14.524  1.00  0.00     0.184 C 
BRANCH  16  17
HETATM   17  O   UNL     3     -38.586 -54.391  13.307  1.00  0.00    -0.399 OA
HETATM   18  H   UNL     3     -37.879 -53.697  13.357  1.00  0.00     0.209 HD
ENDBRANCH  16  17
ENDBRANCH  15  16
ENDBRANCH  10  15
TORSDOF 5
ENDMDL
MODEL 2
REMARK VINA RESULT:      -5.1      1.836      2.915
REMARK  5 active torsions:
REMARK  status: ('A' for Active; 'I' for Inactive)
REMARK    1  A    between atoms: N_6  and  C_7 
REMARK    2  A    between atoms: C_7  and  C_8 
REMARK    3  A    between atoms: N_17  and  C_18 
REMARK    4  A    between atoms: C_18  and  C_19 
REMARK    5  A    between atoms: C_19  and  O_20 
ROOT
HETATM    1  C   UNL     3     -40.894 -50.032  11.898  1.00  0.00     0.113 A 
HETATM    2  N   UNL     3     -42.039 -50.747  11.798  1.00  0.00    -0.343 N 
ATOM      3  HN  UNL     3     -42.912 -50.476  11.348  1.00  0.00     0.167 HD
HETATM    4  C   UNL     3     -41.756 -51.893  12.427  1.00  0.00     0.060 A 
HETATM    5  C   UNL     3     -42.605 -52.981  12.599  1.00  0.00     0.032 A 
HETATM    6  C   UNL     3     -42.104 -54.093  13.294  1.00  0.00     0.002 A 
HETATM    7  C   UNL     3     -40.784 -54.082  13.800  1.00  0.00     0.002 A 
HETATM    8  C   UNL     3     -39.951 -52.960  13.614  1.00  0.00     0.032 A 
HETATM    9  C   UNL     3     -40.478 -51.873  12.906  1.00  0.00     0.062 A 
HETATM   10  N   UNL     3     -39.909 -50.690  12.578  1.00  0.00    -0.331 N 
ENDROOT
BRANCH   1  11
HETATM   11  C   UNL     3     -40.782 -48.681  11.250  1.00  0.00     0.345 C 
BRANCH  11  12
HETATM   12  N   UNL     3     -41.472 -48.654   9.951  1.00  0.00     0.086 N 
HETATM   13  C   UNL     3     -42.540 -47.643   9.922  1.00  0.00     0.307 C 
HETATM   14  H   UNL     3     -40.767 -48.383   9.226  1.00  0.00     0.315 HD
ENDBRANCH  11  12
ENDBRANCH   1  11
BRANCH  10  15
HETATM   15  C   UNL     3     -38.560 -50.200  12.911  1.00  0.00     0.156 C 
BRANCH  15  16
HETATM   16  C   UNL     3     -37.510 -50.560  11.856  1.00  0.00     0.184 C 
BRANCH  16  17
HETATM   17  O   UNL     3     -36.869 -51.763  12.180  1.00  0.00    -0.399 OA
HETATM   18  H   UNL     3     -37.390 -52.168  12.921  1.00  0.00     0.209 HD
ENDBRANCH  16  17
ENDBRANCH  15  16
ENDBRANCH  10  15
TORSDOF 5
ENDMDL
MODEL 3
REMARK VINA RESULT:      -5.0      2.351      5.910
REMARK  5 active torsions:
REMARK  status: ('A' for Active; 'I' for Inactive)
REMARK    1  A    between atoms: N_6  and  C_7 
REMARK    2  A    between atoms: C_7  and  C_8 
REMARK    3  A    between atoms: N_17  and  C_18 
REMARK    4  A    between atoms: C_18  and  C_19 
REMARK    5  A    between atoms: C_19  and  O_20 
ROOT
HETATM    1  C   UNL     3     -40.885 -50.053  11.726  1.00  0.00     0.113 A 
HETATM    2  N   UNL     3     -42.005 -49.541  11.164  1.00  0.00    -0.343 N 
ATOM      3  HN  UNL     3     -42.880 -50.021  10.956  1.00  0.00     0.167 HD
HETATM    4  C   UNL     3     -41.697 -48.258  10.947  1.00  0.00     0.060 A 
HETATM    5  C   UNL     3     -42.519 -47.285  10.388  1.00  0.00     0.032 A 
HETATM    6  C   UNL     3     -41.994 -45.991  10.251  1.00  0.00     0.002 A 
HETATM    7  C   UNL     3     -40.673 -45.710  10.666  1.00  0.00     0.002 A 
HETATM    8  C   UNL     3     -39.862 -46.720  11.224  1.00  0.00     0.032 A 
HETATM    9  C   UNL     3     -40.420 -47.997  11.357  1.00  0.00     0.062 A 
HETATM   10  N   UNL     3     -39.883 -49.133  11.857  1.00  0.00    -0.331 N 
ENDROOT
BRANCH   1  11
HETATM   11  C   UNL     3     -40.848 -51.484  12.181  1.00  0.00     0.345 C 
BRANCH  11  12
HETATM   12  N   UNL     3     -41.890 -52.282  11.516  1.00  0.00     0.086 N 
HETATM   13  C   UNL     3     -42.879 -52.796  12.475  1.00  0.00     0.307 C 
HETATM   14  H   UNL     3     -42.397 -51.649  10.855  1.00  0.00     0.315 HD
ENDBRANCH  11  12
ENDBRANCH   1  11
BRANCH  10  15
HETATM   15  C   UNL     3     -38.524 -49.349  12.383  1.00  0.00     0.156 C 
BRANCH  15  16
HETATM   16  C   UNL     3     -37.529 -49.811  11.314  1.00  0.00     0.184 C 
BRANCH  16  17
HETATM   17  O   UNL     3     -37.404 -51.207  11.321  1.00  0.00    -0.399 OA
HETATM   18  H   UNL     3     -38.322 -51.571  11.410  1.00  0.00     0.209 HD
ENDBRANCH  16  17
ENDBRANCH  15  16
ENDBRANCH  10  15
TORSDOF 5
ENDMDL
MODEL 4
REMARK VINA RESULT:      -4.9      1.934      2.096
REMARK  5 active torsions:
REMARK  status: ('A' for Active; 'I' for Inactive)
REMARK    1  A    between atoms: N_6  and  C_7 
REMARK    2  A    between atoms: C_7  and  C_8 
REMARK    3  A    between atoms: N_17  and  C_18 
REMARK    4  A    between atoms: C_18  and  C_19 
REMARK    5  A    between atoms: C_19  and  O_20 
ROOT
HETATM    1  C   UNL     3     -42.625 -50.799  12.938  1.00  0.00     0.113 A 
HETATM    2  N   UNL     3     -43.900 -50.362  12.816  1.00  0.00    -0.343 N 
ATOM      3  HN  UNL     3     -44.226 -49.470  12.447  1.00  0.00     0.167 HD
HETATM    4  C   UNL     3     -44.632 -51.375  13.292  1.00  0.00     0.060 A 
HETATM    5  C   UNL     3     -46.019 -51.432  13.380  1.00  0.00     0.032 A 
HETATM    6  C   UNL     3     -46.588 -52.598  13.913  1.00  0.00     0.002 A 
HETATM    7  C   UNL     3     -45.764 -53.661  14.346  1.00  0.00     0.002 A 
HETATM    8  C   UNL     3     -44.360 -53.569  14.249  1.00  0.00     0.032 A 
HETATM    9  C   UNL     3     -43.825 -52.397  13.702  1.00  0.00     0.062 A 
HETATM   10  N   UNL     3     -42.536 -52.047  13.485  1.00  0.00    -0.331 N 
ENDROOT
BRANCH   1  11
HETATM   11  C   UNL     3     -41.482 -49.956  12.448  1.00  0.00     0.345 C 
BRANCH  11  12
HETATM   12  N   UNL     3     -41.579 -49.716  11.000  1.00  0.00     0.086 N 
HETATM   13  C   UNL     3     -41.633 -48.279  10.687  1.00  0.00     0.307 C 
HETATM   14  H   UNL     3     -40.710 -50.098  10.558  1.00  0.00     0.315 HD
ENDBRANCH  11  12
ENDBRANCH   1  11
BRANCH  10  15
HETATM   15  C   UNL     3     -41.315 -52.810  13.800  1.00  0.00     0.156 C 
BRANCH  15  16
HETATM   16  C   UNL     3     -40.999 -53.898  12.770  1.00  0.00     0.184 C 
BRANCH  16  17
HETATM   17  O   UNL     3     -40.581 -53.331  11.560  1.00  0.00    -0.399 OA
HETATM   18  H   UNL     3     -39.800 -53.861  11.255  1.00  0.00     0.209 HD
ENDBRANCH  16  17
ENDBRANCH  15  16
ENDBRANCH  10  15
TORSDOF 5
ENDMDL
MODEL 5
REMARK VINA RESULT:      -4.7      5.618      6.748
REMARK  5 active torsions:
REMARK  status: ('A' for Active; 'I' for Inactive)
REMARK    1  A    between atoms: N_6  and  C_7 
REMARK    2  A    between atoms: C_7  and  C_8 
REMARK    3  A    between atoms: N_17  and  C_18 
REMARK    4  A    between atoms: C_18  and  C_19 
REMARK    5  A    between atoms: C_19  and  O_20 
ROOT
HETATM    1  C   UNL     3     -41.612 -48.090  10.902  1.00  0.00     0.113 A 
HETATM    2  N   UNL     3     -40.807 -49.135  10.600  1.00  0.00    -0.343 N 
ATOM      3  HN  UNL     3     -40.916 -49.817   9.850  1.00  0.00     0.167 HD
HETATM    4  C   UNL     3     -39.833 -49.063  11.514  1.00  0.00     0.060 A 
HETATM    5  C   UNL     3     -38.739 -49.913  11.635  1.00  0.00     0.032 A 
HETATM    6  C   UNL     3     -37.829 -49.657  12.672  1.00  0.00     0.002 A 
HETATM    7  C   UNL     3     -38.039 -48.572  13.553  1.00  0.00     0.002 A 
HETATM    8  C   UNL     3     -39.162 -47.732  13.407  1.00  0.00     0.032 A 
HETATM    9  C   UNL     3     -40.045 -48.010  12.356  1.00  0.00     0.062 A 
HETATM   10  N   UNL     3     -41.179 -47.374  11.982  1.00  0.00    -0.331 N 
ENDROOT
BRANCH   1  11
HETATM   11  C   UNL     3     -42.813 -47.785  10.052  1.00  0.00     0.345 C 
BRANCH  11  12
HETATM   12  N   UNL     3     -42.613 -48.234   8.666  1.00  0.00     0.086 N 
HETATM   13  C   UNL     3     -43.735 -47.842   7.798  1.00  0.00     0.307 C 
HETATM   14  H   UNL     3     -41.756 -47.757   8.301  1.00  0.00     0.315 HD
ENDBRANCH  11  12
ENDBRANCH   1  11
BRANCH  10  15
HETATM   15  C   UNL     3     -41.826 -46.210  12.611  1.00  0.00     0.156 C 
BRANCH  15  16
HETATM   16  C   UNL     3     -43.035 -46.583  13.473  1.00  0.00     0.184 C 
BRANCH  16  17
HETATM   17  O   UNL     3     -43.688 -45.435  13.939  1.00  0.00    -0.399 OA
HETATM   18  H   UNL     3     -43.025 -44.697  13.897  1.00  0.00     0.209 HD
ENDBRANCH  16  17
ENDBRANCH  15  16
ENDBRANCH  10  15
TORSDOF 5
ENDMDL
MODEL 6
REMARK VINA RESULT:      -4.7      5.075      6.993
REMARK  5 active torsions:
REMARK  status: ('A' for Active; 'I' for Inactive)
REMARK    1  A    between atoms: N_6  and  C_7 
REMARK    2  A    between atoms: C_7  and  C_8 
REMARK    3  A    between atoms: N_17  and  C_18 
REMARK    4  A    between atoms: C_18  and  C_19 
REMARK    5  A    between atoms: C_19  and  O_20 
ROOT
HETATM    1  C   UNL     3     -41.951 -47.873  10.420  1.00  0.00     0.113 A 
HETATM    2  N   UNL     3     -41.750 -49.196  10.621  1.00  0.00    -0.343 N 
ATOM      3  HN  UNL     3     -42.289 -49.977  10.249  1.00  0.00     0.167 HD
HETATM    4  C   UNL     3     -40.679 -49.240  11.421  1.00  0.00     0.060 A 
HETATM    5  C   UNL     3     -40.056 -50.379  11.918  1.00  0.00     0.032 A 
HETATM    6  C   UNL     3     -38.936 -50.199  12.745  1.00  0.00     0.002 A 
HETATM    7  C   UNL     3     -38.480 -48.897  13.054  1.00  0.00     0.002 A 
HETATM    8  C   UNL     3     -39.139 -47.762  12.538  1.00  0.00     0.032 A 
HETATM    9  C   UNL     3     -40.245 -47.978  11.707  1.00  0.00     0.062 A 
HETATM   10  N   UNL     3     -41.046 -47.088  11.078  1.00  0.00    -0.331 N 
ENDROOT
BRANCH   1  11
HETATM   11  C   UNL     3     -43.047 -47.399   9.509  1.00  0.00     0.345 C 
BRANCH  11  12
HETATM   12  N   UNL     3     -44.365 -47.854   9.979  1.00  0.00     0.086 N 
HETATM   13  C   UNL     3     -45.457 -47.283   9.177  1.00  0.00     0.307 C 
HETATM   14  H   UNL     3     -44.400 -48.893   9.859  1.00  0.00     0.315 HD
ENDBRANCH  11  12
ENDBRANCH   1  11
BRANCH  10  15
HETATM   15  C   UNL     3     -40.990 -45.616  11.119  1.00  0.00     0.156 C 
BRANCH  15  16
HETATM   16  C   UNL     3     -39.892 -45.028  10.229  1.00  0.00     0.184 C 
BRANCH  16  17
HETATM   17  O   UNL     3     -40.067 -43.647  10.069  1.00  0.00    -0.399 OA
HETATM   18  H   UNL     3     -41.021 -43.460  10.265  1.00  0.00     0.209 HD
ENDBRANCH  16  17
ENDBRANCH  15  16
ENDBRANCH  10  15
TORSDOF 5
ENDMDL
MODEL 7
REMARK VINA RESULT:      -4.7      1.994      3.853
REMARK  5 active torsions:
REMARK  status: ('A' for Active; 'I' for Inactive)
REMARK    1  A    between atoms: N_6  and  C_7 
REMARK    2  A    between atoms: C_7  and  C_8 
REMARK    3  A    between atoms: N_17  and  C_18 
REMARK    4  A    between atoms: C_18  and  C_19 
REMARK    5  A    between atoms: C_19  and  O_20 
ROOT
HETATM    1  C   UNL     3     -40.857 -53.850  13.954  1.00  0.00     0.113 A 
HETATM    2  N   UNL     3     -41.635 -54.631  14.739  1.00  0.00    -0.343 N 
ATOM      3  HN  UNL     3     -41.350 -55.211  15.528  1.00  0.00     0.167 HD
HETATM    4  C   UNL     3     -42.864 -54.462  14.241  1.00  0.00     0.060 A 
HETATM    5  C   UNL     3     -44.039 -55.047  14.702  1.00  0.00     0.032 A 
HETATM    6  C   UNL     3     -45.229 -54.731  14.029  1.00  0.00     0.002 A 
HETATM    7  C   UNL     3     -45.211 -53.855  12.921  1.00  0.00     0.002 A 
HETATM    8  C   UNL     3     -44.002 -53.283  12.474  1.00  0.00     0.032 A 
HETATM    9  C   UNL     3     -42.835 -53.610  13.174  1.00  0.00     0.062 A 
HETATM   10  N   UNL     3     -41.559 -53.208  12.974  1.00  0.00    -0.331 N 
ENDROOT
BRANCH   1  11
HETATM   11  C   UNL     3     -39.386 -53.716  14.233  1.00  0.00     0.345 C 
BRANCH  11  12
HETATM   12  N   UNL     3     -38.744 -55.034  14.355  1.00  0.00     0.086 N 
HETATM   13  C   UNL     3     -38.374 -55.334  15.746  1.00  0.00     0.307 C 
HETATM   14  H   UNL     3     -39.444 -55.753  14.057  1.00  0.00     0.315 HD
ENDBRANCH  11  12
ENDBRANCH   1  11
BRANCH  10  15
HETATM   15  C   UNL     3     -41.033 -52.319  11.922  1.00  0.00     0.156 C 
BRANCH  15  16
HETATM   16  C   UNL     3     -41.059 -50.839  12.314  1.00  0.00     0.184 C 
BRANCH  16  17
HETATM   17  O   UNL     3     -42.021 -50.144  11.570  1.00  0.00    -0.399 OA
HETATM   18  H   UNL     3     -41.567 -49.344  11.199  1.00  0.00     0.209 HD
ENDBRANCH  16  17
ENDBRANCH  15  16
ENDBRANCH  10  15
TORSDOF 5
ENDMDL
MODEL 8
REMARK VINA RESULT:      -4.6      2.702      3.624
REMARK  5 active torsions:
REMARK  status: ('A' for Active; 'I' for Inactive)
REMARK    1  A    between atoms: N_6  and  C_7 
REMARK    2  A    between atoms: C_7  and  C_8 
REMARK    3  A    between atoms: N_17  and  C_18 
REMARK    4  A    between atoms: C_18  and  C_19 
REMARK    5  A    between atoms: C_19  and  O_20 
ROOT
HETATM    1  C   UNL     3     -42.449 -52.365  12.535  1.00  0.00     0.113 A 
HETATM    2  N   UNL     3     -43.576 -52.939  12.054  1.00  0.00    -0.343 N 
ATOM      3  HN  UNL     3     -43.668 -53.586  11.272  1.00  0.00     0.167 HD
HETATM    4  C   UNL     3     -44.542 -52.460  12.846  1.00  0.00     0.060 A 
HETATM    5  C   UNL     3     -45.900 -52.753  12.775  1.00  0.00     0.032 A 
HETATM    6  C   UNL     3     -46.746 -52.138  13.710  1.00  0.00     0.002 A 
HETATM    7  C   UNL     3     -46.218 -51.252  14.676  1.00  0.00     0.002 A 
HETATM    8  C   UNL     3     -44.837 -50.971  14.717  1.00  0.00     0.032 A 
HETATM    9  C   UNL     3     -44.019 -51.610  13.777  1.00  0.00     0.062 A 
HETATM   10  N   UNL     3     -42.681 -51.535  13.594  1.00  0.00    -0.331 N 
ENDROOT
BRANCH   1  11
HETATM   11  C   UNL     3     -41.110 -52.702  11.941  1.00  0.00     0.345 C 
BRANCH  11  12
HETATM   12  N   UNL     3     -40.729 -54.091  12.241  1.00  0.00     0.086 N 
HETATM   13  C   UNL     3     -40.234 -54.236  13.618  1.00  0.00     0.307 C 
HETATM   14  H   UNL     3     -41.591 -54.679  12.156  1.00  0.00     0.315 HD
ENDBRANCH  11  12
ENDBRANCH   1  11
BRANCH  10  15
HETATM   15  C   UNL     3     -41.701 -50.718  14.332  1.00  0.00     0.156 C 
BRANCH  15  16
HETATM   16  C   UNL     3     -41.453 -49.348  13.694  1.00  0.00     0.184 C 
BRANCH  16  17
HETATM   17  O   UNL     3     -41.074 -48.409  14.662  1.00  0.00    -0.399 OA
HETATM   18  H   UNL     3     -41.717 -47.657  14.591  1.00  0.00     0.209 HD
ENDBRANCH  16  17
ENDBRANCH  15  16
ENDBRANCH  10  15
TORSDOF 5
ENDMDL
MODEL 9
REMARK VINA RESULT:      -4.5      2.667      4.538
REMARK  5 active torsions:
REMARK  status: ('A' for Active; 'I' for Inactive)
REMARK    1  A    between atoms: N_6  and  C_7 
REMARK    2  A    between atoms: C_7  and  C_8 
REMARK    3  A    between atoms: N_17  and  C_18 
REMARK    4  A    between atoms: C_18  and  C_19 
REMARK    5  A    between atoms: C_19  and  O_20 
ROOT
HETATM    1  C   UNL     3     -42.956 -53.340  15.363  1.00  0.00     0.113 A 
HETATM    2  N   UNL     3     -43.907 -52.816  16.172  1.00  0.00    -0.343 N 
ATOM      3  HN  UNL     3     -43.913 -52.774  17.190  1.00  0.00     0.167 HD
HETATM    4  C   UNL     3     -44.837 -52.366  15.322  1.00  0.00     0.060 A 
HETATM    5  C   UNL     3     -46.027 -51.727  15.651  1.00  0.00     0.032 A 
HETATM    6  C   UNL     3     -46.866 -51.333  14.597  1.00  0.00     0.002 A 
HETATM    7  C   UNL     3     -46.497 -51.592  13.258  1.00  0.00     0.002 A 
HETATM    8  C   UNL     3     -45.285 -52.248  12.958  1.00  0.00     0.032 A 
HETATM    9  C   UNL     3     -44.467 -52.618  14.032  1.00  0.00     0.062 A 
HETATM   10  N   UNL     3     -43.267 -53.241  14.037  1.00  0.00    -0.331 N 
ENDROOT
BRANCH   1  11
HETATM   11  C   UNL     3     -41.690 -53.904  15.944  1.00  0.00     0.345 C 
BRANCH  11  12
HETATM   12  N   UNL     3     -41.754 -55.371  16.035  1.00  0.00     0.086 N 
HETATM   13  C   UNL     3     -42.205 -55.816  17.362  1.00  0.00     0.307 C 
HETATM   14  H   UNL     3     -42.463 -55.699  15.339  1.00  0.00     0.315 HD
ENDBRANCH  11  12
ENDBRANCH   1  11
BRANCH  10  15
HETATM   15  C   UNL     3     -42.489 -53.739  12.889  1.00  0.00     0.156 C 
BRANCH  15  16
HETATM   16  C   UNL     3     -41.491 -52.713  12.344  1.00  0.00     0.184 C 
BRANCH  16  17
HETATM   17  O   UNL     3     -40.563 -53.325  11.492  1.00  0.00    -0.399 OA
HETATM   18  H   UNL     3     -40.548 -52.787  10.659  1.00  0.00     0.209 HD
ENDBRANCH  16  17
ENDBRANCH  15  16
ENDBRANCH  10  15
TORSDOF 5
ENDMDL
