MODEL 1
REMARK VINA RESULT:      -5.6      0.000      0.000
REMARK  6 active torsions:
REMARK  status: ('A' for Active; 'I' for Inactive)
REMARK    1  A    between atoms: C_2  and  O_3 
REMARK    2  A    between atoms: O_3  and  C_4 
REMARK    3  A    between atoms: C_4  and  C_5 
REMARK    4  A    between atoms: C_5  and  O_6 
REMARK    5  A    between atoms: C_5  and  C_7 
REMARK    6  A    between atoms: C_7  and  N_8 
ROOT
HETATM    1  N   UNL     1     -41.413 -51.379  12.494  1.00  0.00    -0.271 N 
HETATM    2  N   UNL     1     -40.576 -52.370  12.136  1.00  0.00    -0.019 NA
HETATM    3  N   UNL     1     -41.205 -53.520  12.349  1.00  0.00    -0.282 N 
ATOM      4  HN  UNL     1     -40.818 -54.451  12.194  1.00  0.00     0.184 HD
HETATM    5  C   UNL     1     -42.461 -53.240  12.810  1.00  0.00     0.075 A 
HETATM    6  C   UNL     1     -43.511 -54.090  13.178  1.00  0.00     0.058 A 
HETATM    7  C   UNL     1     -44.715 -53.519  13.610  1.00  0.00     0.058 A 
HETATM    8 CL   UNL     1     -45.983 -54.607  14.056  1.00  0.00    -0.082 Cl
HETATM    9  C   UNL     1     -44.868 -52.124  13.670  1.00  0.00     0.058 A 
HETATM   10 CL   UNL     1     -46.351 -51.389  14.177  1.00  0.00    -0.082 Cl
HETATM   11  C   UNL     1     -43.816 -51.261  13.320  1.00  0.00     0.058 A 
HETATM   12  C   UNL     1     -42.633 -51.863  12.890  1.00  0.00     0.078 A 
ENDROOT
BRANCH   1  13
HETATM   13  C   UNL     1     -40.939 -50.016  12.488  1.00  0.00     0.180 C 
BRANCH  13  14
HETATM   14  C   UNL     1     -41.180 -49.295  11.163  1.00  0.00     0.161 C 
BRANCH  14  15
HETATM   15  C   UNL     1     -40.844 -47.797  11.231  1.00  0.00     0.200 C 
BRANCH  15  16
HETATM   16  O   UNL     1     -41.623 -47.098  10.248  1.00  0.00    -0.389 OA
BRANCH  16  17
HETATM   17  C   UNL     1     -42.938 -47.655  10.158  1.00  0.00     0.163 C 
HETATM   18  C   UNL     1     -43.444 -47.520   8.736  1.00  0.00     0.033 C 
ENDBRANCH  16  17
ENDBRANCH  15  16
ENDBRANCH  14  15
BRANCH  14  19
HETATM   19  O   UNL     1     -40.349 -49.936  10.180  1.00  0.00    -0.392 OA
HETATM   20  H   UNL     1     -40.527 -49.488   9.331  1.00  0.00     0.210 HD
ENDBRANCH  14  19
ENDBRANCH  13  14
ENDBRANCH   1  13
TORSDOF 6
ENDMDL
MODEL 2
REMARK VINA RESULT:      -5.4      1.215      1.382
REMARK  6 active torsions:
REMARK  status: ('A' for Active; 'I' for Inactive)
REMARK    1  A    between atoms: C_2  and  O_3 
REMARK    2  A    between atoms: O_3  and  C_4 
REMARK    3  A    between atoms: C_4  and  C_5 
REMARK    4  A    between atoms: C_5  and  O_6 
REMARK    5  A    between atoms: C_5  and  C_7 
REMARK    6  A    between atoms: C_7  and  N_8 
ROOT
HETATM    1  N   UNL     1     -41.219 -51.457  12.621  1.00  0.00    -0.271 N 
HETATM    2  N   UNL     1     -40.431 -52.462  12.196  1.00  0.00    -0.019 NA
HETATM    3  N   UNL     1     -41.119 -53.590  12.328  1.00  0.00    -0.282 N 
ATOM      4  HN  UNL     1     -40.779 -54.527  12.110  1.00  0.00     0.184 HD
HETATM    5  C   UNL     1     -42.361 -53.280  12.807  1.00  0.00     0.075 A 
HETATM    6  C   UNL     1     -43.454 -54.098  13.115  1.00  0.00     0.058 A 
HETATM    7  C   UNL     1     -44.630 -53.498  13.584  1.00  0.00     0.058 A 
HETATM    8 CL   UNL     1     -45.953 -54.548  13.953  1.00  0.00    -0.082 Cl
HETATM    9  C   UNL     1     -44.712 -52.105  13.741  1.00  0.00     0.058 A 
HETATM   10 CL   UNL     1     -46.158 -51.332  14.296  1.00  0.00    -0.082 Cl
HETATM   11  C   UNL     1     -43.616 -51.274  13.452  1.00  0.00     0.058 A 
HETATM   12  C   UNL     1     -42.464 -51.905  12.982  1.00  0.00     0.078 A 
ENDROOT
BRANCH   1  13
HETATM   13  C   UNL     1     -40.676 -50.123  12.709  1.00  0.00     0.180 C 
BRANCH  13  14
HETATM   14  C   UNL     1     -40.913 -49.286  11.453  1.00  0.00     0.161 C 
BRANCH  14  15
HETATM   15  C   UNL     1     -40.207 -47.922  11.504  1.00  0.00     0.200 C 
BRANCH  15  16
HETATM   16  O   UNL     1     -40.867 -47.020  10.603  1.00  0.00    -0.389 OA
BRANCH  16  17
HETATM   17  C   UNL     1     -40.698 -45.665  11.034  1.00  0.00     0.163 C 
HETATM   18  C   UNL     1     -39.659 -44.987  10.164  1.00  0.00     0.033 C 
ENDBRANCH  16  17
ENDBRANCH  15  16
ENDBRANCH  14  15
BRANCH  14  19
HETATM   19  O   UNL     1     -40.416 -50.050  10.341  1.00  0.00    -0.392 OA
HETATM   20  H   UNL     1     -40.900 -50.897  10.347  1.00  0.00     0.210 HD
ENDBRANCH  14  19
ENDBRANCH  13  14
ENDBRANCH   1  13
TORSDOF 6
ENDMDL
MODEL 3
REMARK VINA RESULT:      -5.4      4.849      6.131
REMARK  6 active torsions:
REMARK  status: ('A' for Active; 'I' for Inactive)
REMARK    1  A    between atoms: C_2  and  O_3 
REMARK    2  A    between atoms: O_3  and  C_4 
REMARK    3  A    between atoms: C_4  and  C_5 
REMARK    4  A    between atoms: C_5  and  O_6 
REMARK    5  A    between atoms: C_5  and  C_7 
REMARK    6  A    between atoms: C_7  and  N_8 
ROOT
HETATM    1  N   UNL     1     -44.391 -54.442  13.381  1.00  0.00    -0.271 N 
HETATM    2  N   UNL     1     -44.640 -53.724  12.269  1.00  0.00    -0.019 NA
HETATM    3  N   UNL     1     -43.543 -53.030  11.990  1.00  0.00    -0.282 N 
ATOM      4  HN  UNL     1     -43.432 -52.374  11.216  1.00  0.00     0.184 HD
HETATM    5  C   UNL     1     -42.590 -53.345  12.916  1.00  0.00     0.075 A 
HETATM    6  C   UNL     1     -41.273 -52.895  13.064  1.00  0.00     0.058 A 
HETATM    7  C   UNL     1     -40.502 -53.408  14.116  1.00  0.00     0.058 A 
HETATM    8 CL   UNL     1     -38.882 -52.821  14.260  1.00  0.00    -0.082 Cl
HETATM    9  C   UNL     1     -41.037 -54.357  15.001  1.00  0.00     0.058 A 
HETATM   10 CL   UNL     1     -40.104 -55.027  16.296  1.00  0.00    -0.082 Cl
HETATM   11  C   UNL     1     -42.364 -54.804  14.874  1.00  0.00     0.058 A 
HETATM   12  C   UNL     1     -43.100 -54.276  13.813  1.00  0.00     0.078 A 
ENDROOT
BRANCH   1  13
HETATM   13  C   UNL     1     -45.459 -55.197  13.989  1.00  0.00     0.180 C 
BRANCH  13  14
HETATM   14  C   UNL     1     -46.495 -54.323  14.694  1.00  0.00     0.161 C 
BRANCH  14  15
HETATM   15  C   UNL     1     -45.901 -53.523  15.865  1.00  0.00     0.200 C 
BRANCH  15  16
HETATM   16  O   UNL     1     -46.537 -52.238  15.923  1.00  0.00    -0.389 OA
BRANCH  16  17
HETATM   17  C   UNL     1     -45.564 -51.204  16.104  1.00  0.00     0.163 C 
HETATM   18  C   UNL     1     -44.805 -50.997  14.809  1.00  0.00     0.033 C 
ENDBRANCH  16  17
ENDBRANCH  15  16
ENDBRANCH  14  15
BRANCH  14  19
HETATM   19  O   UNL     1     -47.025 -53.421  13.708  1.00  0.00    -0.392 OA
HETATM   20  H   UNL     1     -47.421 -53.976  13.009  1.00  0.00     0.210 HD
ENDBRANCH  14  19
ENDBRANCH  13  14
ENDBRANCH   1  13
TORSDOF 6
ENDMDL
MODEL 4
REMARK VINA RESULT:      -5.2      3.258      4.316
REMARK  6 active torsions:
REMARK  status: ('A' for Active; 'I' for Inactive)
REMARK    1  A    between atoms: C_2  and  O_3 
REMARK    2  A    between atoms: O_3  and  C_4 
REMARK    3  A    between atoms: C_4  and  C_5 
REMARK    4  A    between atoms: C_5  and  O_6 
REMARK    5  A    between atoms: C_5  and  C_7 
REMARK    6  A    between atoms: C_7  and  N_8 
ROOT
HETATM    1  N   UNL     1     -43.819 -53.194  13.342  1.00  0.00    -0.271 N 
HETATM    2  N   UNL     1     -44.581 -54.046  12.632  1.00  0.00    -0.019 NA
HETATM    3  N   UNL     1     -45.822 -53.951  13.093  1.00  0.00    -0.282 N 
ATOM      4  HN  UNL     1     -46.624 -54.492  12.769  1.00  0.00     0.184 HD
HETATM    5  C   UNL     1     -45.840 -53.002  14.076  1.00  0.00     0.075 A 
HETATM    6  C   UNL     1     -46.891 -52.526  14.870  1.00  0.00     0.058 A 
HETATM    7  C   UNL     1     -46.621 -51.520  15.808  1.00  0.00     0.058 A 
HETATM    8 CL   UNL     1     -47.949 -50.965  16.766  1.00  0.00    -0.082 Cl
HETATM    9  C   UNL     1     -45.325 -50.997  15.947  1.00  0.00     0.058 A 
HETATM   10 CL   UNL     1     -44.965 -49.738  17.078  1.00  0.00    -0.082 Cl
HETATM   11  C   UNL     1     -44.259 -51.478  15.168  1.00  0.00     0.058 A 
HETATM   12  C   UNL     1     -44.564 -52.476  14.242  1.00  0.00     0.078 A 
ENDROOT
BRANCH   1  13
HETATM   13  C   UNL     1     -42.391 -53.184  13.138  1.00  0.00     0.180 C 
BRANCH  13  14
HETATM   14  C   UNL     1     -41.923 -52.098  12.170  1.00  0.00     0.161 C 
BRANCH  14  15
HETATM   15  C   UNL     1     -40.871 -51.163  12.788  1.00  0.00     0.200 C 
BRANCH  15  16
HETATM   16  O   UNL     1     -39.562 -51.649  12.459  1.00  0.00    -0.389 OA
BRANCH  16  17
HETATM   17  C   UNL     1     -38.717 -51.641  13.615  1.00  0.00     0.163 C 
HETATM   18  C   UNL     1     -37.491 -50.796  13.334  1.00  0.00     0.033 C 
ENDBRANCH  16  17
ENDBRANCH  15  16
ENDBRANCH  14  15
BRANCH  14  19
HETATM   19  O   UNL     1     -41.367 -52.767  11.026  1.00  0.00    -0.392 OA
HETATM   20  H   UNL     1     -40.397 -52.718  11.120  1.00  0.00     0.210 HD
ENDBRANCH  14  19
ENDBRANCH  13  14
ENDBRANCH   1  13
TORSDOF 6
ENDMDL
MODEL 5
REMARK VINA RESULT:      -5.1      3.492      5.322
REMARK  6 active torsions:
REMARK  status: ('A' for Active; 'I' for Inactive)
REMARK    1  A    between atoms: C_2  and  O_3 
REMARK    2  A    between atoms: O_3  and  C_4 
REMARK    3  A    between atoms: C_4  and  C_5 
REMARK    4  A    between atoms: C_5  and  O_6 
REMARK    5  A    between atoms: C_5  and  C_7 
REMARK    6  A    between atoms: C_7  and  N_8 
ROOT
HETATM    1  N   UNL     1     -42.291 -53.146  13.368  1.00  0.00    -0.271 N 
HETATM    2  N   UNL     1     -41.453 -53.921  12.655  1.00  0.00    -0.019 NA
HETATM    3  N   UNL     1     -40.771 -53.126  11.839  1.00  0.00    -0.282 N 
ATOM      4  HN  UNL     1     -40.075 -53.425  11.157  1.00  0.00     0.184 HD
HETATM    5  C   UNL     1     -41.164 -51.838  12.072  1.00  0.00     0.075 A 
HETATM    6  C   UNL     1     -40.753 -50.635  11.484  1.00  0.00     0.058 A 
HETATM    7  C   UNL     1     -41.324 -49.438  11.936  1.00  0.00     0.058 A 
HETATM    8 CL   UNL     1     -40.787 -47.979  11.181  1.00  0.00    -0.082 Cl
HETATM    9  C   UNL     1     -42.287 -49.443  12.959  1.00  0.00     0.058 A 
HETATM   10 CL   UNL     1     -42.994 -47.980  13.555  1.00  0.00    -0.082 Cl
HETATM   11  C   UNL     1     -42.721 -50.645  13.544  1.00  0.00     0.058 A 
HETATM   12  C   UNL     1     -42.127 -51.817  13.074  1.00  0.00     0.078 A 
ENDROOT
BRANCH   1  13
HETATM   13  C   UNL     1     -43.251 -53.766  14.249  1.00  0.00     0.180 C 
BRANCH  13  14
HETATM   14  C   UNL     1     -44.447 -54.370  13.516  1.00  0.00     0.161 C 
BRANCH  14  15
HETATM   15  C   UNL     1     -45.778 -53.700  13.895  1.00  0.00     0.200 C 
BRANCH  15  16
HETATM   16  O   UNL     1     -46.199 -52.853  12.816  1.00  0.00    -0.389 OA
BRANCH  16  17
HETATM   17  C   UNL     1     -46.246 -51.486  13.238  1.00  0.00     0.163 C 
HETATM   18  C   UNL     1     -46.796 -51.416  14.649  1.00  0.00     0.033 C 
ENDBRANCH  16  17
ENDBRANCH  15  16
ENDBRANCH  14  15
BRANCH  14  19
HETATM   19  O   UNL     1     -44.203 -54.205  12.108  1.00  0.00    -0.392 OA
HETATM   20  H   UNL     1     -43.442 -54.776  11.890  1.00  0.00     0.210 HD
ENDBRANCH  14  19
ENDBRANCH  13  14
ENDBRANCH   1  13
TORSDOF 6
ENDMDL
MODEL 6
REMARK VINA RESULT:      -5.1      1.678      2.661
REMARK  6 active torsions:
REMARK  status: ('A' for Active; 'I' for Inactive)
REMARK    1  A    between atoms: C_2  and  O_3 
REMARK    2  A    between atoms: O_3  and  C_4 
REMARK    3  A    between atoms: C_4  and  C_5 
REMARK    4  A    between atoms: C_5  and  O_6 
REMARK    5  A    between atoms: C_5  and  C_7 
REMARK    6  A    between atoms: C_7  and  N_8 
ROOT
HETATM    1  N   UNL     1     -41.298 -51.474  12.827  1.00  0.00    -0.271 N 
HETATM    2  N   UNL     1     -40.434 -52.425  12.426  1.00  0.00    -0.019 NA
HETATM    3  N   UNL     1     -41.063 -53.592  12.497  1.00  0.00    -0.282 N 
ATOM      4  HN  UNL     1     -40.660 -54.503  12.279  1.00  0.00     0.184 HD
HETATM    5  C   UNL     1     -42.344 -53.361  12.912  1.00  0.00     0.075 A 
HETATM    6  C   UNL     1     -43.405 -54.245  13.142  1.00  0.00     0.058 A 
HETATM    7  C   UNL     1     -44.637 -53.721  13.557  1.00  0.00     0.058 A 
HETATM    8 CL   UNL     1     -45.918 -54.851  13.830  1.00  0.00    -0.082 Cl
HETATM    9  C   UNL     1     -44.806 -52.339  13.736  1.00  0.00     0.058 A 
HETATM   10 CL   UNL     1     -46.321 -51.659  14.225  1.00  0.00    -0.082 Cl
HETATM   11  C   UNL     1     -43.744 -51.443  13.526  1.00  0.00     0.058 A 
HETATM   12  C   UNL     1     -42.534 -51.998  13.109  1.00  0.00     0.078 A 
ENDROOT
BRANCH   1  13
HETATM   13  C   UNL     1     -40.837 -50.115  12.972  1.00  0.00     0.180 C 
BRANCH  13  14
HETATM   14  C   UNL     1     -40.443 -49.462  11.648  1.00  0.00     0.161 C 
BRANCH  14  15
HETATM   15  C   UNL     1     -38.973 -49.014  11.620  1.00  0.00     0.200 C 
BRANCH  15  16
HETATM   16  O   UNL     1     -38.242 -49.743  12.617  1.00  0.00    -0.389 OA
BRANCH  16  17
HETATM   17  C   UNL     1     -37.311 -50.639  12.003  1.00  0.00     0.163 C 
HETATM   18  C   UNL     1     -37.005 -50.160  10.598  1.00  0.00     0.033 C 
ENDBRANCH  16  17
ENDBRANCH  15  16
ENDBRANCH  14  15
BRANCH  14  19
HETATM   19  O   UNL     1     -40.675 -50.436  10.615  1.00  0.00    -0.392 OA
HETATM   20  H   UNL     1     -41.042 -51.225  11.056  1.00  0.00     0.210 HD
ENDBRANCH  14  19
ENDBRANCH  13  14
ENDBRANCH   1  13
TORSDOF 6
ENDMDL
MODEL 7
REMARK VINA RESULT:      -4.9      3.390      5.863
REMARK  6 active torsions:
REMARK  status: ('A' for Active; 'I' for Inactive)
REMARK    1  A    between atoms: C_2  and  O_3 
REMARK    2  A    between atoms: O_3  and  C_4 
REMARK    3  A    between atoms: C_4  and  C_5 
REMARK    4  A    between atoms: C_5  and  O_6 
REMARK    5  A    between atoms: C_5  and  C_7 
REMARK    6  A    between atoms: C_7  and  N_8 
ROOT
HETATM    1  N   UNL     1     -39.872 -51.408  13.061  1.00  0.00    -0.271 N 
HETATM    2  N   UNL     1     -38.650 -51.628  12.542  1.00  0.00    -0.019 NA
HETATM    3  N   UNL     1     -38.298 -50.535  11.874  1.00  0.00    -0.282 N 
ATOM      4  HN  UNL     1     -37.432 -50.407  11.351  1.00  0.00     0.184 HD
HETATM    5  C   UNL     1     -39.296 -49.612  12.010  1.00  0.00     0.075 A 
HETATM    6  C   UNL     1     -39.414 -48.311  11.507  1.00  0.00     0.058 A 
HETATM    7  C   UNL     1     -40.562 -47.571  11.822  1.00  0.00     0.058 A 
HETATM    8 CL   UNL     1     -40.665 -45.970  11.178  1.00  0.00    -0.082 Cl
HETATM    9  C   UNL     1     -41.573 -48.122  12.627  1.00  0.00     0.058 A 
HETATM   10 CL   UNL     1     -42.991 -47.226  13.053  1.00  0.00    -0.082 Cl
HETATM   11  C   UNL     1     -41.474 -49.433  13.123  1.00  0.00     0.058 A 
HETATM   12  C   UNL     1     -40.316 -50.138  12.794  1.00  0.00     0.078 A 
ENDROOT
BRANCH   1  13
HETATM   13  C   UNL     1     -40.558 -52.484  13.734  1.00  0.00     0.180 C 
BRANCH  13  14
HETATM   14  C   UNL     1     -41.343 -53.390  12.787  1.00  0.00     0.161 C 
BRANCH  14  15
HETATM   15  C   UNL     1     -42.787 -52.912  12.566  1.00  0.00     0.200 C 
BRANCH  15  16
HETATM   16  O   UNL     1     -43.658 -54.053  12.537  1.00  0.00    -0.389 OA
BRANCH  16  17
HETATM   17  C   UNL     1     -44.060 -54.411  13.863  1.00  0.00     0.163 C 
HETATM   18  C   UNL     1     -45.515 -54.838  13.848  1.00  0.00     0.033 C 
ENDBRANCH  16  17
ENDBRANCH  15  16
ENDBRANCH  14  15
BRANCH  14  19
HETATM   19  O   UNL     1     -40.637 -53.400  11.535  1.00  0.00    -0.392 OA
HETATM   20  H   UNL     1     -40.155 -52.553  11.481  1.00  0.00     0.210 HD
ENDBRANCH  14  19
ENDBRANCH  13  14
ENDBRANCH   1  13
TORSDOF 6
ENDMDL
MODEL 8
REMARK VINA RESULT:      -4.8      3.255      4.736
REMARK  6 active torsions:
REMARK  status: ('A' for Active; 'I' for Inactive)
REMARK    1  A    between atoms: C_2  and  O_3 
REMARK    2  A    between atoms: O_3  and  C_4 
REMARK    3  A    between atoms: C_4  and  C_5 
REMARK    4  A    between atoms: C_5  and  O_6 
REMARK    5  A    between atoms: C_5  and  C_7 
REMARK    6  A    between atoms: C_7  and  N_8 
ROOT
HETATM    1  N   UNL     1     -42.838 -51.761  12.867  1.00  0.00    -0.271 N 
HETATM    2  N   UNL     1     -43.342 -52.595  11.939  1.00  0.00    -0.019 NA
HETATM    3  N   UNL     1     -44.585 -52.890  12.301  1.00  0.00    -0.282 N 
ATOM      4  HN  UNL     1     -45.217 -53.520  11.808  1.00  0.00     0.184 HD
HETATM    5  C   UNL     1     -44.870 -52.205  13.448  1.00  0.00     0.075 A 
HETATM    6  C   UNL     1     -46.032 -52.167  14.227  1.00  0.00     0.058 A 
HETATM    7  C   UNL     1     -46.050 -51.350  15.365  1.00  0.00     0.058 A 
HETATM    8 CL   UNL     1     -47.507 -51.336  16.297  1.00  0.00    -0.082 Cl
HETATM    9  C   UNL     1     -44.928 -50.583  15.717  1.00  0.00     0.058 A 
HETATM   10 CL   UNL     1     -44.927 -49.546  17.103  1.00  0.00    -0.082 Cl
HETATM   11  C   UNL     1     -43.749 -50.626  14.953  1.00  0.00     0.058 A 
HETATM   12  C   UNL     1     -43.768 -51.445  13.824  1.00  0.00     0.078 A 
ENDROOT
BRANCH   1  13
HETATM   13  C   UNL     1     -41.449 -51.377  12.793  1.00  0.00     0.180 C 
BRANCH  13  14
HETATM   14  C   UNL     1     -40.484 -52.551  12.952  1.00  0.00     0.161 C 
BRANCH  14  15
HETATM   15  C   UNL     1     -40.747 -53.369  14.226  1.00  0.00     0.200 C 
BRANCH  15  16
HETATM   16  O   UNL     1     -41.438 -54.577  13.873  1.00  0.00    -0.389 OA
BRANCH  16  17
HETATM   17  C   UNL     1     -42.528 -54.814  14.770  1.00  0.00     0.163 C 
HETATM   18  C   UNL     1     -42.314 -54.016  16.041  1.00  0.00     0.033 C 
ENDBRANCH  16  17
ENDBRANCH  15  16
ENDBRANCH  14  15
BRANCH  14  19
HETATM   19  O   UNL     1     -40.649 -53.388  11.794  1.00  0.00    -0.392 OA
HETATM   20  H   UNL     1     -41.597 -53.614  11.747  1.00  0.00     0.210 HD
ENDBRANCH  14  19
ENDBRANCH  13  14
ENDBRANCH   1  13
TORSDOF 6
ENDMDL
MODEL 9
REMARK VINA RESULT:      -4.7      4.370      6.000
REMARK  6 active torsions:
REMARK  status: ('A' for Active; 'I' for Inactive)
REMARK    1  A    between atoms: C_2  and  O_3 
REMARK    2  A    between atoms: O_3  and  C_4 
REMARK    3  A    between atoms: C_4  and  C_5 
REMARK    4  A    between atoms: C_5  and  O_6 
REMARK    5  A    between atoms: C_5  and  C_7 
REMARK    6  A    between atoms: C_7  and  N_8 
ROOT
HETATM    1  N   UNL     1     -41.329 -53.007  12.865  1.00  0.00    -0.271 N 
HETATM    2  N   UNL     1     -41.632 -52.595  11.620  1.00  0.00    -0.019 NA
HETATM    3  N   UNL     1     -40.944 -51.483  11.389  1.00  0.00    -0.282 N 
ATOM      4  HN  UNL     1     -40.982 -50.923  10.538  1.00  0.00     0.184 HD
HETATM    5  C   UNL     1     -40.177 -51.220  12.488  1.00  0.00     0.075 A 
HETATM    6  C   UNL     1     -39.279 -50.178  12.750  1.00  0.00     0.058 A 
HETATM    7  C   UNL     1     -38.606 -50.165  13.979  1.00  0.00     0.058 A 
HETATM    8 CL   UNL     1     -37.509 -48.858  14.259  1.00  0.00    -0.082 Cl
HETATM    9  C   UNL     1     -38.825 -51.176  14.929  1.00  0.00     0.058 A 
HETATM   10 CL   UNL     1     -37.993 -51.201  16.446  1.00  0.00    -0.082 Cl
HETATM   11  C   UNL     1     -39.737 -52.218  14.685  1.00  0.00     0.058 A 
HETATM   12  C   UNL     1     -40.385 -52.202  13.450  1.00  0.00     0.078 A 
ENDROOT
BRANCH   1  13
HETATM   13  C   UNL     1     -42.035 -54.131  13.430  1.00  0.00     0.180 C 
BRANCH  13  14
HETATM   14  C   UNL     1     -43.552 -53.943  13.457  1.00  0.00     0.161 C 
BRANCH  14  15
HETATM   15  C   UNL     1     -43.975 -52.604  14.082  1.00  0.00     0.200 C 
BRANCH  15  16
HETATM   16  O   UNL     1     -44.920 -52.856  15.132  1.00  0.00    -0.389 OA
BRANCH  16  17
HETATM   17  C   UNL     1     -46.258 -52.810  14.627  1.00  0.00     0.163 C 
HETATM   18  C   UNL     1     -46.472 -51.501  13.894  1.00  0.00     0.033 C 
ENDBRANCH  16  17
ENDBRANCH  15  16
ENDBRANCH  14  15
BRANCH  14  19
HETATM   19  O   UNL     1     -44.007 -54.009  12.094  1.00  0.00    -0.392 OA
HETATM   20  H   UNL     1     -43.215 -54.161  11.545  1.00  0.00     0.210 HD
ENDBRANCH  14  19
ENDBRANCH  13  14
ENDBRANCH   1  13
TORSDOF 6
ENDMDL
