MODEL 1
REMARK VINA RESULT:      -6.0      0.000      0.000
REMARK  6 active torsions:
REMARK  status: ('A' for Active; 'I' for Inactive)
REMARK    1  A    between atoms: C_2  and  N_3 
REMARK    2  A    between atoms: N_3  and  C_4 
REMARK    3  A    between atoms: N_8  and  C_9 
REMARK    4  A    between atoms: C_9  and  C_10 
REMARK    5  A    between atoms: C_10  and  O_11 
REMARK    6  A    between atoms: O_11  and  C_12 
ROOT
HETATM    1  C   UNL     1     -40.148 -52.201  12.807  1.00  0.00     0.052 A 
HETATM    2  C   UNL     1     -41.223 -51.849  11.847  1.00  0.00     0.132 A 
HETATM    3  N   UNL     1     -42.413 -52.351  11.801  1.00  0.00    -0.305 N 
ATOM      4  HN  UNL     1     -43.088 -52.050  11.098  1.00  0.00     0.186 HD
HETATM    5  N   UNL     1     -42.733 -53.309  12.736  1.00  0.00    -0.254 N 
HETATM    6  C   UNL     1     -41.855 -53.745  13.728  1.00  0.00     0.285 A 
HETATM    7  O   UNL     1     -42.163 -54.580  14.574  1.00  0.00    -0.265 OA
HETATM    8  C   UNL     1     -40.494 -53.139  13.698  1.00  0.00     0.126 A 
HETATM    9 CL   UNL     1     -39.364 -53.671  14.899  1.00  0.00    -0.076 Cl
ENDROOT
BRANCH   5  10
HETATM   10  C   UNL     1     -44.068 -53.908  12.676  1.00  0.00     0.179 C 
BRANCH  10  11
HETATM   11  C   UNL     1     -45.216 -52.908  12.556  1.00  0.00     0.197 C 
BRANCH  11  12
HETATM   12  O   UNL     1     -44.833 -51.666  13.162  1.00  0.00    -0.349 OA
BRANCH  12  13
HETATM   13  C   UNL     1     -45.430 -51.406  14.369  1.00  0.00     0.068 A 
HETATM   14  C   UNL     1     -44.617 -50.798  15.328  1.00  0.00     0.038 A 
HETATM   15  C   UNL     1     -45.123 -50.494  16.594  1.00  0.00     0.026 A 
HETATM   16  C   UNL     1     -46.454 -50.778  16.892  1.00  0.00     0.034 A 
HETATM   17 CL   UNL     1     -47.085 -50.410  18.450  1.00  0.00    -0.084 Cl
HETATM   18  C   UNL     1     -47.281 -51.356  15.932  1.00  0.00     0.026 A 
HETATM   19  C   UNL     1     -46.769 -51.668  14.669  1.00  0.00     0.038 A 
ENDBRANCH  12  13
ENDBRANCH  11  12
ENDBRANCH  10  11
ENDBRANCH   5  10
BRANCH   1  20
HETATM   20  N   UNL     1     -38.899 -51.589  12.653  1.00  0.00    -0.291 NA
HETATM   21  H   UNL     1     -38.430 -51.597  13.564  1.00  0.00     0.127 HD
BRANCH  20  22
HETATM   22  C   UNL     1     -38.831 -50.211  12.147  1.00  0.00     0.088 C 
HETATM   23  C   UNL     1     -37.561 -50.033  11.332  1.00  0.00     0.021 C 
ENDBRANCH  20  22
ENDBRANCH   1  20
TORSDOF 6
ENDMDL
MODEL 2
REMARK VINA RESULT:      -5.9      2.894      6.308
REMARK  6 active torsions:
REMARK  status: ('A' for Active; 'I' for Inactive)
REMARK    1  A    between atoms: C_2  and  N_3 
REMARK    2  A    between atoms: N_3  and  C_4 
REMARK    3  A    between atoms: N_8  and  C_9 
REMARK    4  A    between atoms: C_9  and  C_10 
REMARK    5  A    between atoms: C_10  and  O_11 
REMARK    6  A    between atoms: O_11  and  C_12 
ROOT
HETATM    1  C   UNL     1     -44.830 -53.442  12.703  1.00  0.00     0.052 A 
HETATM    2  C   UNL     1     -43.526 -52.964  12.182  1.00  0.00     0.132 A 
HETATM    3  N   UNL     1     -42.353 -53.293  12.614  1.00  0.00    -0.305 N 
ATOM      4  HN  UNL     1     -41.507 -52.908  12.195  1.00  0.00     0.186 HD
HETATM    5  N   UNL     1     -42.292 -54.183  13.663  1.00  0.00    -0.254 N 
HETATM    6  C   UNL     1     -43.415 -54.751  14.261  1.00  0.00     0.285 A 
HETATM    7  O   UNL     1     -43.345 -55.566  15.178  1.00  0.00    -0.265 OA
HETATM    8  C   UNL     1     -44.730 -54.302  13.725  1.00  0.00     0.126 A 
HETATM    9 CL   UNL     1     -46.153 -54.966  14.457  1.00  0.00    -0.076 Cl
ENDROOT
BRANCH   5  10
HETATM   10  C   UNL     1     -40.970 -54.541  14.182  1.00  0.00     0.179 C 
BRANCH  10  11
HETATM   11  C   UNL     1     -40.082 -53.355  14.551  1.00  0.00     0.197 C 
BRANCH  11  12
HETATM   12  O   UNL     1     -39.504 -52.802  13.361  1.00  0.00    -0.349 OA
BRANCH  12  13
HETATM   13  C   UNL     1     -39.229 -51.460  13.423  1.00  0.00     0.068 A 
HETATM   14  C   UNL     1     -40.235 -50.661  13.972  1.00  0.00     0.038 A 
HETATM   15  C   UNL     1     -40.061 -49.278  14.078  1.00  0.00     0.026 A 
HETATM   16  C   UNL     1     -38.867 -48.698  13.654  1.00  0.00     0.034 A 
HETATM   17 CL   UNL     1     -38.646 -46.996  13.779  1.00  0.00    -0.084 Cl
HETATM   18  C   UNL     1     -37.847 -49.491  13.135  1.00  0.00     0.026 A 
HETATM   19  C   UNL     1     -38.027 -50.873  13.021  1.00  0.00     0.038 A 
ENDBRANCH  12  13
ENDBRANCH  11  12
ENDBRANCH  10  11
ENDBRANCH   5  10
BRANCH   1  20
HETATM   20  N   UNL     1     -45.998 -52.916  12.140  1.00  0.00    -0.291 NA
HETATM   21  H   UNL     1     -45.908 -52.970  11.120  1.00  0.00     0.127 HD
BRANCH  20  22
HETATM   22  C   UNL     1     -46.396 -51.539  12.463  1.00  0.00     0.088 C 
HETATM   23  C   UNL     1     -46.751 -51.447  13.937  1.00  0.00     0.021 C 
ENDBRANCH  20  22
ENDBRANCH   1  20
TORSDOF 6
ENDMDL
MODEL 3
REMARK VINA RESULT:      -5.7      2.702      3.208
REMARK  6 active torsions:
REMARK  status: ('A' for Active; 'I' for Inactive)
REMARK    1  A    between atoms: C_2  and  N_3 
REMARK    2  A    between atoms: N_3  and  C_4 
REMARK    3  A    between atoms: N_8  and  C_9 
REMARK    4  A    between atoms: C_9  and  C_10 
REMARK    5  A    between atoms: C_10  and  O_11 
REMARK    6  A    between atoms: O_11  and  C_12 
ROOT
HETATM    1  C   UNL     1     -40.137 -48.902  11.686  1.00  0.00     0.052 A 
HETATM    2  C   UNL     1     -41.514 -49.436  11.550  1.00  0.00     0.132 A 
HETATM    3  N   UNL     1     -41.903 -50.644  11.796  1.00  0.00    -0.305 N 
ATOM      4  HN  UNL     1     -42.876 -50.924  11.668  1.00  0.00     0.186 HD
HETATM    5  N   UNL     1     -40.954 -51.537  12.238  1.00  0.00    -0.254 N 
HETATM    6  C   UNL     1     -39.616 -51.203  12.446  1.00  0.00     0.285 A 
HETATM    7  O   UNL     1     -38.784 -52.004  12.867  1.00  0.00    -0.265 OA
HETATM    8  C   UNL     1     -39.241 -49.801  12.114  1.00  0.00     0.126 A 
HETATM    9 CL   UNL     1     -37.582 -49.351  12.335  1.00  0.00    -0.076 Cl
ENDROOT
BRANCH   5  10
HETATM   10  C   UNL     1     -41.375 -52.917  12.492  1.00  0.00     0.179 C 
BRANCH  10  11
HETATM   11  C   UNL     1     -42.508 -53.066  13.505  1.00  0.00     0.197 C 
BRANCH  11  12
HETATM   12  O   UNL     1     -43.764 -52.831  12.855  1.00  0.00    -0.349 OA
BRANCH  12  13
HETATM   13  C   UNL     1     -44.773 -52.414  13.684  1.00  0.00     0.068 A 
HETATM   14  C   UNL     1     -44.603 -52.707  15.039  1.00  0.00     0.038 A 
HETATM   15  C   UNL     1     -45.575 -52.332  15.971  1.00  0.00     0.026 A 
HETATM   16  C   UNL     1     -46.707 -51.641  15.547  1.00  0.00     0.034 A 
HETATM   17 CL   UNL     1     -47.909 -51.177  16.688  1.00  0.00    -0.084 Cl
HETATM   18  C   UNL     1     -46.870 -51.316  14.203  1.00  0.00     0.026 A 
HETATM   19  C   UNL     1     -45.901 -51.701  13.271  1.00  0.00     0.038 A 
ENDBRANCH  12  13
ENDBRANCH  11  12
ENDBRANCH  10  11
ENDBRANCH   5  10
BRANCH   1  20
HETATM   20  N   UNL     1     -39.903 -47.576  11.307  1.00  0.00    -0.291 NA
HETATM   21  H   UNL     1     -39.245 -47.168  11.978  1.00  0.00     0.127 HD
BRANCH  20  22
HETATM   22  C   UNL     1     -41.037 -46.648  11.199  1.00  0.00     0.088 C 
HETATM   23  C   UNL     1     -40.595 -45.391  10.468  1.00  0.00     0.021 C 
ENDBRANCH  20  22
ENDBRANCH   1  20
TORSDOF 6
ENDMDL
MODEL 4
REMARK VINA RESULT:      -5.7      3.699      5.393
REMARK  6 active torsions:
REMARK  status: ('A' for Active; 'I' for Inactive)
REMARK    1  A    between atoms: C_2  and  N_3 
REMARK    2  A    between atoms: N_3  and  C_4 
REMARK    3  A    between atoms: N_8  and  C_9 
REMARK    4  A    between atoms: C_9  and  C_10 
REMARK    5  A    between atoms: C_10  and  O_11 
REMARK    6  A    between atoms: O_11  and  C_12 
ROOT
HETATM    1  C   UNL     1     -40.245 -48.410  11.459  1.00  0.00     0.052 A 
HETATM    2  C   UNL     1     -40.270 -49.855  11.127  1.00  0.00     0.132 A 
HETATM    3  N   UNL     1     -39.711 -50.811  11.794  1.00  0.00    -0.305 N 
ATOM      4  HN  UNL     1     -39.777 -51.781  11.486  1.00  0.00     0.186 HD
HETATM    5  N   UNL     1     -39.024 -50.469  12.936  1.00  0.00    -0.254 N 
HETATM    6  C   UNL     1     -38.917 -49.162  13.411  1.00  0.00     0.285 A 
HETATM    7  O   UNL     1     -38.324 -48.873  14.448  1.00  0.00    -0.265 OA
HETATM    8  C   UNL     1     -39.564 -48.115  12.573  1.00  0.00     0.126 A 
HETATM    9 CL   UNL     1     -39.434 -46.474  13.116  1.00  0.00    -0.076 Cl
ENDROOT
BRANCH   5  10
HETATM   10  C   UNL     1     -38.360 -51.538  13.685  1.00  0.00     0.179 C 
BRANCH  10  11
HETATM   11  C   UNL     1     -39.304 -52.547  14.337  1.00  0.00     0.197 C 
BRANCH  11  12
HETATM   12  O   UNL     1     -39.915 -53.354  13.322  1.00  0.00    -0.349 OA
BRANCH  12  13
HETATM   13  C   UNL     1     -41.197 -53.755  13.598  1.00  0.00     0.068 A 
HETATM   14  C   UNL     1     -42.167 -53.358  12.674  1.00  0.00     0.038 A 
HETATM   15  C   UNL     1     -43.507 -53.708  12.862  1.00  0.00     0.026 A 
HETATM   16  C   UNL     1     -43.873 -54.475  13.966  1.00  0.00     0.034 A 
HETATM   17 CL   UNL     1     -45.520 -54.907  14.206  1.00  0.00    -0.084 Cl
HETATM   18  C   UNL     1     -42.908 -54.901  14.875  1.00  0.00     0.026 A 
HETATM   19  C   UNL     1     -41.569 -54.543  14.690  1.00  0.00     0.038 A 
ENDBRANCH  12  13
ENDBRANCH  11  12
ENDBRANCH  10  11
ENDBRANCH   5  10
BRANCH   1  20
HETATM   20  N   UNL     1     -40.859 -47.519  10.571  1.00  0.00    -0.291 NA
HETATM   21  H   UNL     1     -40.865 -46.592  11.010  1.00  0.00     0.127 HD
BRANCH  20  22
HETATM   22  C   UNL     1     -42.230 -47.786  10.116  1.00  0.00     0.088 C 
HETATM   23  C   UNL     1     -43.214 -47.353  11.190  1.00  0.00     0.021 C 
ENDBRANCH  20  22
ENDBRANCH   1  20
TORSDOF 6
ENDMDL
MODEL 5
REMARK VINA RESULT:      -5.6      3.462      6.519
REMARK  6 active torsions:
REMARK  status: ('A' for Active; 'I' for Inactive)
REMARK    1  A    between atoms: C_2  and  N_3 
REMARK    2  A    between atoms: N_3  and  C_4 
REMARK    3  A    between atoms: N_8  and  C_9 
REMARK    4  A    between atoms: C_9  and  C_10 
REMARK    5  A    between atoms: C_10  and  O_11 
REMARK    6  A    between atoms: O_11  and  C_12 
ROOT
HETATM    1  C   UNL     1     -44.425 -54.339  13.356  1.00  0.00     0.052 A 
HETATM    2  C   UNL     1     -44.261 -53.335  12.277  1.00  0.00     0.132 A 
HETATM    3  N   UNL     1     -43.168 -52.734  11.940  1.00  0.00    -0.305 N 
ATOM      4  HN  UNL     1     -43.151 -52.049  11.184  1.00  0.00     0.186 HD
HETATM    5  N   UNL     1     -42.027 -53.053  12.642  1.00  0.00    -0.254 N 
HETATM    6  C   UNL     1     -41.991 -53.992  13.672  1.00  0.00     0.285 A 
HETATM    7  O   UNL     1     -40.960 -54.288  14.271  1.00  0.00    -0.265 OA
HETATM    8  C   UNL     1     -43.296 -54.621  14.019  1.00  0.00     0.126 A 
HETATM    9 CL   UNL     1     -43.299 -55.776  15.311  1.00  0.00    -0.076 Cl
ENDROOT
BRANCH   5  10
HETATM   10  C   UNL     1     -40.787 -52.357  12.289  1.00  0.00     0.179 C 
BRANCH  10  11
HETATM   11  C   UNL     1     -40.737 -50.887  12.700  1.00  0.00     0.197 C 
BRANCH  11  12
HETATM   12  O   UNL     1     -41.642 -50.132  11.884  1.00  0.00    -0.349 OA
BRANCH  12  13
HETATM   13  C   UNL     1     -41.223 -48.862  11.582  1.00  0.00     0.068 A 
HETATM   14  C   UNL     1     -42.061 -48.133  10.735  1.00  0.00     0.038 A 
HETATM   15  C   UNL     1     -41.726 -46.830  10.357  1.00  0.00     0.026 A 
HETATM   16  C   UNL     1     -40.559 -46.248  10.848  1.00  0.00     0.034 A 
HETATM   17 CL   UNL     1     -40.137 -44.645  10.387  1.00  0.00    -0.084 Cl
HETATM   18  C   UNL     1     -39.733 -46.956  11.718  1.00  0.00     0.026 A 
HETATM   19  C   UNL     1     -40.066 -48.263  12.086  1.00  0.00     0.038 A 
ENDBRANCH  12  13
ENDBRANCH  11  12
ENDBRANCH  10  11
ENDBRANCH   5  10
BRANCH   1  20
HETATM   20  N   UNL     1     -45.710 -54.830  13.612  1.00  0.00    -0.291 NA
HETATM   21  H   UNL     1     -46.311 -54.563  12.825  1.00  0.00     0.127 HD
BRANCH  20  22
HETATM   22  C   UNL     1     -46.405 -54.421  14.840  1.00  0.00     0.088 C 
HETATM   23  C   UNL     1     -46.856 -52.976  14.711  1.00  0.00     0.021 C 
ENDBRANCH  20  22
ENDBRANCH   1  20
TORSDOF 6
ENDMDL
MODEL 6
REMARK VINA RESULT:      -5.6      4.646      6.567
REMARK  6 active torsions:
REMARK  status: ('A' for Active; 'I' for Inactive)
REMARK    1  A    between atoms: C_2  and  N_3 
REMARK    2  A    between atoms: N_3  and  C_4 
REMARK    3  A    between atoms: N_8  and  C_9 
REMARK    4  A    between atoms: C_9  and  C_10 
REMARK    5  A    between atoms: C_10  and  O_11 
REMARK    6  A    between atoms: O_11  and  C_12 
ROOT
HETATM    1  C   UNL     1     -42.598 -46.768  10.548  1.00  0.00     0.052 A 
HETATM    2  C   UNL     1     -42.205 -48.106  10.041  1.00  0.00     0.132 A 
HETATM    3  N   UNL     1     -41.189 -48.809  10.421  1.00  0.00    -0.305 N 
ATOM      4  HN  UNL     1     -40.993 -49.722  10.011  1.00  0.00     0.186 HD
HETATM    5  N   UNL     1     -40.382 -48.277  11.401  1.00  0.00    -0.254 N 
HETATM    6  C   UNL     1     -40.613 -47.043  12.007  1.00  0.00     0.285 A 
HETATM    7  O   UNL     1     -39.900 -46.592  12.901  1.00  0.00    -0.265 OA
HETATM    8  C   UNL     1     -41.787 -46.281  11.496  1.00  0.00     0.126 A 
HETATM    9 CL   UNL     1     -42.096 -44.731  12.206  1.00  0.00    -0.076 Cl
ENDROOT
BRANCH   5  10
HETATM   10  C   UNL     1     -39.210 -49.050  11.819  1.00  0.00     0.179 C 
BRANCH  10  11
HETATM   11  C   UNL     1     -39.507 -50.191  12.790  1.00  0.00     0.197 C 
BRANCH  11  12
HETATM   12  O   UNL     1     -39.767 -51.391  12.051  1.00  0.00    -0.349 OA
BRANCH  12  13
HETATM   13  C   UNL     1     -40.900 -52.066  12.429  1.00  0.00     0.068 A 
HETATM   14  C   UNL     1     -40.712 -53.396  12.814  1.00  0.00     0.038 A 
HETATM   15  C   UNL     1     -41.800 -54.177  13.211  1.00  0.00     0.026 A 
HETATM   16  C   UNL     1     -43.076 -53.618  13.246  1.00  0.00     0.034 A 
HETATM   17 CL   UNL     1     -44.421 -54.574  13.732  1.00  0.00    -0.084 Cl
HETATM   18  C   UNL     1     -43.267 -52.285  12.894  1.00  0.00     0.026 A 
HETATM   19  C   UNL     1     -42.179 -51.507  12.487  1.00  0.00     0.038 A 
ENDBRANCH  12  13
ENDBRANCH  11  12
ENDBRANCH  10  11
ENDBRANCH   5  10
BRANCH   1  20
HETATM   20  N   UNL     1     -43.700 -46.138   9.960  1.00  0.00    -0.291 NA
HETATM   21  H   UNL     1     -44.415 -46.016  10.684  1.00  0.00     0.127 HD
BRANCH  20  22
HETATM   22  C   UNL     1     -44.360 -46.767   8.808  1.00  0.00     0.088 C 
HETATM   23  C   UNL     1     -45.760 -47.205   9.202  1.00  0.00     0.021 C 
ENDBRANCH  20  22
ENDBRANCH   1  20
TORSDOF 6
ENDMDL
MODEL 7
REMARK VINA RESULT:      -5.1     21.734     23.440
REMARK  6 active torsions:
REMARK  status: ('A' for Active; 'I' for Inactive)
REMARK    1  A    between atoms: C_2  and  N_3 
REMARK    2  A    between atoms: N_3  and  C_4 
REMARK    3  A    between atoms: N_8  and  C_9 
REMARK    4  A    between atoms: C_9  and  C_10 
REMARK    5  A    between atoms: C_10  and  O_11 
REMARK    6  A    between atoms: O_11  and  C_12 
ROOT
HETATM    1  C   UNL     1     -26.882 -40.549   0.269  1.00  0.00     0.052 A 
HETATM    2  C   UNL     1     -27.195 -41.027  -1.100  1.00  0.00     0.132 A 
HETATM    3  N   UNL     1     -26.869 -42.168  -1.613  1.00  0.00    -0.305 N 
ATOM      4  HN  UNL     1     -27.125 -42.411  -2.570  1.00  0.00     0.186 HD
HETATM    5  N   UNL     1     -26.164 -43.043  -0.817  1.00  0.00    -0.254 N 
HETATM    6  C   UNL     1     -25.805 -42.769   0.502  1.00  0.00     0.285 A 
HETATM    7  O   UNL     1     -25.200 -43.570   1.210  1.00  0.00    -0.265 OA
HETATM    8  C   UNL     1     -26.192 -41.424   1.012  1.00  0.00     0.126 A 
HETATM    9 CL   UNL     1     -25.742 -41.034   2.639  1.00  0.00    -0.076 Cl
ENDROOT
BRANCH   5  10
HETATM   10  C   UNL     1     -25.763 -44.327  -1.396  1.00  0.00     0.179 C 
BRANCH  10  11
HETATM   11  C   UNL     1     -26.914 -45.180  -1.926  1.00  0.00     0.197 C 
BRANCH  11  12
HETATM   12  O   UNL     1     -28.098 -44.912  -1.164  1.00  0.00    -0.349 OA
BRANCH  12  13
HETATM   13  C   UNL     1     -29.273 -45.044  -1.858  1.00  0.00     0.068 A 
HETATM   14  C   UNL     1     -30.078 -46.123  -1.487  1.00  0.00     0.038 A 
HETATM   15  C   UNL     1     -31.295 -46.354  -2.134  1.00  0.00     0.026 A 
HETATM   16  C   UNL     1     -31.716 -45.488  -3.140  1.00  0.00     0.034 A 
HETATM   17 CL   UNL     1     -33.212 -45.766  -3.944  1.00  0.00    -0.084 Cl
HETATM   18  C   UNL     1     -30.936 -44.391  -3.496  1.00  0.00     0.026 A 
HETATM   19  C   UNL     1     -29.714 -44.167  -2.853  1.00  0.00     0.038 A 
ENDBRANCH  12  13
ENDBRANCH  11  12
ENDBRANCH  10  11
ENDBRANCH   5  10
BRANCH   1  20
HETATM   20  N   UNL     1     -27.267 -39.249   0.617  1.00  0.00    -0.291 NA
HETATM   21  H   UNL     1     -28.245 -39.282   0.920  1.00  0.00     0.127 HD
BRANCH  20  22
HETATM   22  C   UNL     1     -27.162 -38.176  -0.380  1.00  0.00     0.088 C 
HETATM   23  C   UNL     1     -28.504 -37.477  -0.515  1.00  0.00     0.021 C 
ENDBRANCH  20  22
ENDBRANCH   1  20
TORSDOF 6
ENDMDL
MODEL 8
REMARK VINA RESULT:      -5.1      4.089      6.294
REMARK  6 active torsions:
REMARK  status: ('A' for Active; 'I' for Inactive)
REMARK    1  A    between atoms: C_2  and  N_3 
REMARK    2  A    between atoms: N_3  and  C_4 
REMARK    3  A    between atoms: N_8  and  C_9 
REMARK    4  A    between atoms: C_9  and  C_10 
REMARK    5  A    between atoms: C_10  and  O_11 
REMARK    6  A    between atoms: O_11  and  C_12 
ROOT
HETATM    1  C   UNL     1     -42.622 -52.884  13.834  1.00  0.00     0.052 A 
HETATM    2  C   UNL     1     -42.745 -51.690  12.963  1.00  0.00     0.132 A 
HETATM    3  N   UNL     1     -41.778 -51.007  12.446  1.00  0.00    -0.305 N 
ATOM      4  HN  UNL     1     -41.959 -50.192  11.860  1.00  0.00     0.186 HD
HETATM    5  N   UNL     1     -40.494 -51.423  12.717  1.00  0.00    -0.254 N 
HETATM    6  C   UNL     1     -40.191 -52.539  13.496  1.00  0.00     0.285 A 
HETATM    7  O   UNL     1     -39.040 -52.915  13.707  1.00  0.00    -0.265 OA
HETATM    8  C   UNL     1     -41.359 -53.256  14.079  1.00  0.00     0.126 A 
HETATM    9 CL   UNL     1     -41.025 -54.635  15.075  1.00  0.00    -0.076 Cl
ENDROOT
BRANCH   5  10
HETATM   10  C   UNL     1     -39.387 -50.641  12.161  1.00  0.00     0.179 C 
BRANCH  10  11
HETATM   11  C   UNL     1     -39.803 -49.555  11.171  1.00  0.00     0.197 C 
BRANCH  11  12
HETATM   12  O   UNL     1     -40.198 -48.379  11.889  1.00  0.00    -0.349 OA
BRANCH  12  13
HETATM   13  C   UNL     1     -41.132 -47.602  11.253  1.00  0.00     0.068 A 
HETATM   14  C   UNL     1     -41.890 -48.247  10.273  1.00  0.00     0.038 A 
HETATM   15  C   UNL     1     -42.866 -47.546   9.559  1.00  0.00     0.026 A 
HETATM   16  C   UNL     1     -43.098 -46.202   9.843  1.00  0.00     0.034 A 
HETATM   17 CL   UNL     1     -44.295 -45.332   8.967  1.00  0.00    -0.084 Cl
HETATM   18  C   UNL     1     -42.368 -45.559  10.840  1.00  0.00     0.026 A 
HETATM   19  C   UNL     1     -41.386 -46.260  11.547  1.00  0.00     0.038 A 
ENDBRANCH  12  13
ENDBRANCH  11  12
ENDBRANCH  10  11
ENDBRANCH   5  10
BRANCH   1  20
HETATM   20  N   UNL     1     -43.794 -53.448  14.351  1.00  0.00    -0.291 NA
HETATM   21  H   UNL     1     -43.535 -54.301  14.858  1.00  0.00     0.127 HD
BRANCH  20  22
HETATM   22  C   UNL     1     -44.884 -53.808  13.434  1.00  0.00     0.088 C 
HETATM   23  C   UNL     1     -45.406 -55.191  13.786  1.00  0.00     0.021 C 
ENDBRANCH  20  22
ENDBRANCH   1  20
TORSDOF 6
ENDMDL
MODEL 9
REMARK VINA RESULT:      -5.0      4.493      6.951
REMARK  6 active torsions:
REMARK  status: ('A' for Active; 'I' for Inactive)
REMARK    1  A    between atoms: C_2  and  N_3 
REMARK    2  A    between atoms: N_3  and  C_4 
REMARK    3  A    between atoms: N_8  and  C_9 
REMARK    4  A    between atoms: C_9  and  C_10 
REMARK    5  A    between atoms: C_10  and  O_11 
REMARK    6  A    between atoms: O_11  and  C_12 
ROOT
HETATM    1  C   UNL     1     -43.632 -52.091  13.746  1.00  0.00     0.052 A 
HETATM    2  C   UNL     1     -43.701 -50.707  13.219  1.00  0.00     0.132 A 
HETATM    3  N   UNL     1     -42.819 -50.114  12.485  1.00  0.00    -0.305 N 
ATOM      4  HN  UNL     1     -42.950 -49.152  12.171  1.00  0.00     0.186 HD
HETATM    5  N   UNL     1     -41.694 -50.831  12.143  1.00  0.00    -0.254 N 
HETATM    6  C   UNL     1     -41.473 -52.152  12.530  1.00  0.00     0.285 A 
HETATM    7  O   UNL     1     -40.478 -52.790  12.194  1.00  0.00    -0.265 OA
HETATM    8  C   UNL     1     -42.523 -52.756  13.397  1.00  0.00     0.126 A 
HETATM    9 CL   UNL     1     -42.275 -54.389  13.921  1.00  0.00    -0.076 Cl
ENDROOT
BRANCH   5  10
HETATM   10  C   UNL     1     -40.672 -50.161  11.336  1.00  0.00     0.179 C 
BRANCH  10  11
HETATM   11  C   UNL     1     -40.942 -48.685  11.053  1.00  0.00     0.197 C 
BRANCH  11  12
HETATM   12  O   UNL     1     -40.645 -47.912  12.224  1.00  0.00    -0.349 OA
BRANCH  12  13
HETATM   13  C   UNL     1     -40.576 -46.558  12.018  1.00  0.00     0.068 A 
HETATM   14  C   UNL     1     -41.120 -45.763  13.029  1.00  0.00     0.038 A 
HETATM   15  C   UNL     1     -41.107 -44.370  12.918  1.00  0.00     0.026 A 
HETATM   16  C   UNL     1     -40.527 -43.772  11.802  1.00  0.00     0.034 A 
HETATM   17 CL   UNL     1     -40.509 -42.058  11.655  1.00  0.00    -0.084 Cl
HETATM   18  C   UNL     1     -39.954 -44.556  10.803  1.00  0.00     0.026 A 
HETATM   19  C   UNL     1     -39.977 -45.950  10.912  1.00  0.00     0.038 A 
ENDBRANCH  12  13
ENDBRANCH  11  12
ENDBRANCH  10  11
ENDBRANCH   5  10
BRANCH   1  20
HETATM   20  N   UNL     1     -44.664 -52.532  14.582  1.00  0.00    -0.291 NA
HETATM   21  H   UNL     1     -44.456 -53.497  14.857  1.00  0.00     0.127 HD
BRANCH  20  22
HETATM   22  C   UNL     1     -46.048 -52.516  14.087  1.00  0.00     0.088 C 
HETATM   23  C   UNL     1     -46.847 -51.474  14.850  1.00  0.00     0.021 C 
ENDBRANCH  20  22
ENDBRANCH   1  20
TORSDOF 6
ENDMDL
