MODEL 1
REMARK VINA RESULT:      -6.4      0.000      0.000
REMARK  3 active torsions:
REMARK  status: ('A' for Active; 'I' for Inactive)
REMARK    1  A    between atoms: C_6  and  N_7 
REMARK       I    between atoms: N_7  and  C_8 
REMARK       I    between atoms: C_8  and  N_10 
REMARK    2  A    between atoms: N_10  and  C_11 
REMARK    3  A    between atoms: C_11  and  C_12 
ROOT
HETATM    1  N   UNL     1     -41.872 -51.394  11.668  1.00  0.00    -0.304 N 
HETATM    2  C   UNL     1     -42.357 -52.334  12.545  1.00  0.00     0.320 C 
HETATM    3  O   UNL     1     -41.979 -52.493  13.700  1.00  0.00    -0.247 OA
HETATM    4  N   UNL     1     -43.336 -53.125  11.986  1.00  0.00    -0.342 N 
HETATM    5  H   UNL     1     -42.446 -51.147  10.871  1.00  0.00     0.171 HD
HETATM    6  H   UNL     1     -43.688 -52.901  11.066  1.00  0.00     0.164 HD
ENDROOT
BRANCH   1   7
HETATM    7  C   UNL     1     -40.778 -50.575  11.856  1.00  0.00     0.105 A 
HETATM    8  C   UNL     1     -39.554 -50.979  12.237  1.00  0.00     0.037 A 
HETATM    9  C   UNL     1     -38.456 -50.056  12.367  1.00  0.00     0.020 A 
HETATM   10  C   UNL     1     -38.629 -48.768  12.058  1.00  0.00     0.094 A 
HETATM   11  N   UNL     1     -39.855 -48.287  11.641  1.00  0.00    -0.327 N 
HETATM   12  C   UNL     1     -40.006 -46.875  11.319  1.00  0.00     0.159 C 
HETATM   13  C   UNL     1     -40.985 -49.106  11.556  1.00  0.00     0.274 A 
HETATM   14  O   UNL     1     -42.111 -48.707  11.253  1.00  0.00    -0.266 OA
ENDBRANCH   1   7
BRANCH   4  15
HETATM   15  C   UNL     1     -44.021 -54.087  12.819  1.00  0.00     0.129 C 
BRANCH  15  16
HETATM   16  C   UNL     1     -45.358 -53.596  13.397  1.00  0.00     0.007 C 
HETATM   17  C   UNL     1     -45.902 -52.424  12.558  1.00  0.00     0.010 C 
HETATM   18  C   UNL     1     -46.879 -51.473  13.248  1.00  0.00     0.027 C 
HETATM   19  C   UNL     1     -46.857 -51.477  14.740  1.00  0.00    -0.031 C 
HETATM   20  C   UNL     1     -46.083 -52.282  15.474  1.00  0.00    -0.030 C 
HETATM   21  C   UNL     1     -45.134 -53.270  14.886  1.00  0.00     0.033 C 
ENDBRANCH  15  16
ENDBRANCH   4  15
TORSDOF 3
ENDMDL
MODEL 2
REMARK VINA RESULT:      -6.1      2.720      6.983
REMARK  3 active torsions:
REMARK  status: ('A' for Active; 'I' for Inactive)
REMARK    1  A    between atoms: C_6  and  N_7 
REMARK       I    between atoms: N_7  and  C_8 
REMARK       I    between atoms: C_8  and  N_10 
REMARK    2  A    between atoms: N_10  and  C_11 
REMARK    3  A    between atoms: C_11  and  C_12 
ROOT
HETATM    1  N   UNL     1     -41.042 -51.027  11.435  1.00  0.00    -0.304 N 
HETATM    2  C   UNL     1     -41.480 -49.735  11.601  1.00  0.00     0.320 C 
HETATM    3  O   UNL     1     -42.118 -49.317  12.561  1.00  0.00    -0.247 OA
HETATM    4  N   UNL     1     -41.141 -48.921  10.544  1.00  0.00    -0.342 N 
HETATM    5  H   UNL     1     -40.284 -51.192  10.784  1.00  0.00     0.171 HD
HETATM    6  H   UNL     1     -40.534 -49.277   9.820  1.00  0.00     0.164 HD
ENDROOT
BRANCH   1   7
HETATM    7  C   UNL     1     -41.366 -52.116  12.217  1.00  0.00     0.105 A 
HETATM    8  C   UNL     1     -42.579 -52.690  12.296  1.00  0.00     0.037 A 
HETATM    9  C   UNL     1     -42.817 -53.855  13.109  1.00  0.00     0.020 A 
HETATM   10  C   UNL     1     -41.804 -54.424  13.770  1.00  0.00     0.094 A 
HETATM   11  N   UNL     1     -40.528 -53.899  13.718  1.00  0.00    -0.327 N 
HETATM   12  C   UNL     1     -39.451 -54.543  14.457  1.00  0.00     0.159 C 
HETATM   13  C   UNL     1     -40.232 -52.732  13.007  1.00  0.00     0.274 A 
HETATM   14  O   UNL     1     -39.124 -52.194  12.987  1.00  0.00    -0.266 OA
ENDBRANCH   1   7
BRANCH   4  15
HETATM   15  C   UNL     1     -41.436 -47.509  10.624  1.00  0.00     0.129 C 
BRANCH  15  16
HETATM   16  C   UNL     1     -40.246 -46.628  11.037  1.00  0.00     0.007 C 
HETATM   17  C   UNL     1     -40.071 -46.652  12.567  1.00  0.00     0.010 C 
HETATM   18  C   UNL     1     -39.343 -45.468  13.200  1.00  0.00     0.027 C 
HETATM   19  C   UNL     1     -39.287 -44.220  12.386  1.00  0.00    -0.031 C 
HETATM   20  C   UNL     1     -39.784 -44.110  11.151  1.00  0.00    -0.030 C 
HETATM   21  C   UNL     1     -40.470 -45.226  10.439  1.00  0.00     0.033 C 
ENDBRANCH  15  16
ENDBRANCH   4  15
TORSDOF 3
ENDMDL
MODEL 3
REMARK VINA RESULT:      -6.0      2.051      3.154
REMARK  3 active torsions:
REMARK  status: ('A' for Active; 'I' for Inactive)
REMARK    1  A    between atoms: C_6  and  N_7 
REMARK       I    between atoms: N_7  and  C_8 
REMARK       I    between atoms: C_8  and  N_10 
REMARK    2  A    between atoms: N_10  and  C_11 
REMARK    3  A    between atoms: C_11  and  C_12 
ROOT
HETATM    1  N   UNL     1     -41.162 -49.941  11.006  1.00  0.00    -0.304 N 
HETATM    2  C   UNL     1     -41.016 -50.923  11.955  1.00  0.00     0.320 C 
HETATM    3  O   UNL     1     -40.781 -50.736  13.144  1.00  0.00    -0.247 OA
HETATM    4  N   UNL     1     -41.147 -52.190  11.431  1.00  0.00    -0.342 N 
HETATM    5  H   UNL     1     -41.647 -50.177  10.148  1.00  0.00     0.171 HD
HETATM    6  H   UNL     1     -41.435 -52.300  10.470  1.00  0.00     0.164 HD
ENDROOT
BRANCH   1   7
HETATM    7  C   UNL     1     -40.916 -48.593  11.167  1.00  0.00     0.105 A 
HETATM    8  C   UNL     1     -39.795 -48.057  11.679  1.00  0.00     0.037 A 
HETATM    9  C   UNL     1     -39.607 -46.632  11.770  1.00  0.00     0.020 A 
HETATM   10  C   UNL     1     -40.541 -45.805  11.292  1.00  0.00     0.094 A 
HETATM   11  N   UNL     1     -41.710 -46.287  10.735  1.00  0.00    -0.327 N 
HETATM   12  C   UNL     1     -42.708 -45.354  10.231  1.00  0.00     0.159 C 
HETATM   13  C   UNL     1     -41.996 -47.654  10.673  1.00  0.00     0.274 A 
HETATM   14  O   UNL     1     -43.051 -48.124  10.245  1.00  0.00    -0.266 OA
ENDBRANCH   1   7
BRANCH   4  15
HETATM   15  C   UNL     1     -41.129 -53.324  12.326  1.00  0.00     0.129 C 
BRANCH  15  16
HETATM   16  C   UNL     1     -42.333 -53.408  13.278  1.00  0.00     0.007 C 
HETATM   17  C   UNL     1     -42.103 -54.508  14.331  1.00  0.00     0.010 C 
HETATM   18  C   UNL     1     -43.344 -55.108  14.988  1.00  0.00     0.027 C 
HETATM   19  C   UNL     1     -44.629 -54.930  14.251  1.00  0.00    -0.031 C 
HETATM   20  C   UNL     1     -44.746 -54.251  13.107  1.00  0.00    -0.030 C 
HETATM   21  C   UNL     1     -43.598 -53.597  12.418  1.00  0.00     0.033 C 
ENDBRANCH  15  16
ENDBRANCH   4  15
TORSDOF 3
ENDMDL
MODEL 4
REMARK VINA RESULT:      -6.0      2.049      6.964
REMARK  3 active torsions:
REMARK  status: ('A' for Active; 'I' for Inactive)
REMARK    1  A    between atoms: C_6  and  N_7 
REMARK       I    between atoms: N_7  and  C_8 
REMARK       I    between atoms: C_8  and  N_10 
REMARK    2  A    between atoms: N_10  and  C_11 
REMARK    3  A    between atoms: C_11  and  C_12 
ROOT
HETATM    1  N   UNL     1     -41.862 -52.712  12.080  1.00  0.00    -0.304 N 
HETATM    2  C   UNL     1     -41.644 -51.356  12.127  1.00  0.00     0.320 C 
HETATM    3  O   UNL     1     -42.126 -50.586  12.949  1.00  0.00    -0.247 OA
HETATM    4  N   UNL     1     -40.814 -50.918  11.119  1.00  0.00    -0.342 N 
HETATM    5  H   UNL     1     -41.196 -53.284  11.574  1.00  0.00     0.171 HD
HETATM    6  H   UNL     1     -40.361 -51.594  10.521  1.00  0.00     0.164 HD
ENDROOT
BRANCH   1   7
HETATM    7  C   UNL     1     -42.773 -53.429  12.828  1.00  0.00     0.105 A 
HETATM    8  C   UNL     1     -44.072 -53.598  12.528  1.00  0.00     0.037 A 
HETATM    9  C   UNL     1     -44.943 -54.402  13.348  1.00  0.00     0.020 A 
HETATM   10  C   UNL     1     -44.451 -55.043  14.411  1.00  0.00     0.094 A 
HETATM   11  N   UNL     1     -43.121 -54.929  14.767  1.00  0.00    -0.327 N 
HETATM   12  C   UNL     1     -42.623 -55.638  15.938  1.00  0.00     0.159 C 
HETATM   13  C   UNL     1     -42.230 -54.115  14.063  1.00  0.00     0.274 A 
HETATM   14  O   UNL     1     -41.053 -53.933  14.383  1.00  0.00    -0.266 OA
ENDBRANCH   1   7
BRANCH   4  15
HETATM   15  C   UNL     1     -40.402 -49.533  11.102  1.00  0.00     0.129 C 
BRANCH  15  16
HETATM   16  C   UNL     1     -39.067 -49.254  11.811  1.00  0.00     0.007 C 
HETATM   17  C   UNL     1     -38.365 -50.578  12.165  1.00  0.00     0.010 C 
HETATM   18  C   UNL     1     -37.354 -50.542  13.310  1.00  0.00     0.027 C 
HETATM   19  C   UNL     1     -37.475 -49.395  14.257  1.00  0.00    -0.031 C 
HETATM   20  C   UNL     1     -38.365 -48.408  14.125  1.00  0.00    -0.030 C 
HETATM   21  C   UNL     1     -39.359 -48.339  13.016  1.00  0.00     0.033 C 
ENDBRANCH  15  16
ENDBRANCH   4  15
TORSDOF 3
ENDMDL
MODEL 5
REMARK VINA RESULT:      -6.0      1.958      6.753
REMARK  3 active torsions:
REMARK  status: ('A' for Active; 'I' for Inactive)
REMARK    1  A    between atoms: C_6  and  N_7 
REMARK       I    between atoms: N_7  and  C_8 
REMARK       I    between atoms: C_8  and  N_10 
REMARK    2  A    between atoms: N_10  and  C_11 
REMARK    3  A    between atoms: C_11  and  C_12 
ROOT
HETATM    1  N   UNL     1     -42.100 -52.497  11.834  1.00  0.00    -0.304 N 
HETATM    2  C   UNL     1     -41.486 -51.308  12.143  1.00  0.00     0.320 C 
HETATM    3  O   UNL     1     -41.509 -50.758  13.239  1.00  0.00    -0.247 OA
HETATM    4  N   UNL     1     -40.830 -50.755  11.066  1.00  0.00    -0.342 N 
HETATM    5  H   UNL     1     -41.772 -53.004  11.020  1.00  0.00     0.171 HD
HETATM    6  H   UNL     1     -40.752 -51.283  10.210  1.00  0.00     0.164 HD
ENDROOT
BRANCH   1   7
HETATM    7  C   UNL     1     -42.976 -53.207  12.629  1.00  0.00     0.105 A 
HETATM    8  C   UNL     1     -44.310 -53.250  12.479  1.00  0.00     0.037 A 
HETATM    9  C   UNL     1     -45.146 -54.054  13.333  1.00  0.00     0.020 A 
HETATM   10  C   UNL     1     -44.592 -54.822  14.275  1.00  0.00     0.094 A 
HETATM   11  N   UNL     1     -43.225 -54.842  14.473  1.00  0.00    -0.327 N 
HETATM   12  C   UNL     1     -42.658 -55.688  15.514  1.00  0.00     0.159 C 
HETATM   13  C   UNL     1     -42.354 -54.038  13.731  1.00  0.00     0.274 A 
HETATM   14  O   UNL     1     -41.138 -53.976  13.918  1.00  0.00    -0.266 OA
ENDBRANCH   1   7
BRANCH   4  15
HETATM   15  C   UNL     1     -40.044 -49.559  11.264  1.00  0.00     0.129 C 
BRANCH  15  16
HETATM   16  C   UNL     1     -40.865 -48.266  11.387  1.00  0.00     0.007 C 
HETATM   17  C   UNL     1     -41.936 -48.208  10.281  1.00  0.00     0.010 C 
HETATM   18  C   UNL     1     -42.461 -46.826   9.896  1.00  0.00     0.027 C 
HETATM   19  C   UNL     1     -41.595 -45.668  10.263  1.00  0.00    -0.031 C 
HETATM   20  C   UNL     1     -40.445 -45.779  10.934  1.00  0.00    -0.030 C 
HETATM   21  C   UNL     1     -39.879 -47.082  11.387  1.00  0.00     0.033 C 
ENDBRANCH  15  16
ENDBRANCH   4  15
TORSDOF 3
ENDMDL
MODEL 6
REMARK VINA RESULT:      -6.0      1.609      6.710
REMARK  3 active torsions:
REMARK  status: ('A' for Active; 'I' for Inactive)
REMARK    1  A    between atoms: C_6  and  N_7 
REMARK       I    between atoms: N_7  and  C_8 
REMARK       I    between atoms: C_8  and  N_10 
REMARK    2  A    between atoms: N_10  and  C_11 
REMARK    3  A    between atoms: C_11  and  C_12 
ROOT
HETATM    1  N   UNL     1     -43.391 -52.553  12.127  1.00  0.00    -0.304 N 
HETATM    2  C   UNL     1     -42.202 -52.027  12.572  1.00  0.00     0.320 C 
HETATM    3  O   UNL     1     -41.736 -52.172  13.697  1.00  0.00    -0.247 OA
HETATM    4  N   UNL     1     -41.560 -51.280  11.610  1.00  0.00    -0.342 N 
HETATM    5  H   UNL     1     -43.529 -52.636  11.127  1.00  0.00     0.171 HD
HETATM    6  H   UNL     1     -41.926 -51.265  10.669  1.00  0.00     0.164 HD
ENDROOT
BRANCH   1   7
HETATM    7  C   UNL     1     -44.348 -53.192  12.887  1.00  0.00     0.105 A 
HETATM    8  C   UNL     1     -44.478 -54.523  13.027  1.00  0.00     0.037 A 
HETATM    9  C   UNL     1     -45.484 -55.103  13.879  1.00  0.00     0.020 A 
HETATM   10  C   UNL     1     -46.287 -54.311  14.595  1.00  0.00     0.094 A 
HETATM   11  N   UNL     1     -46.197 -52.935  14.515  1.00  0.00    -0.327 N 
HETATM   12  C   UNL     1     -47.095 -52.105  15.306  1.00  0.00     0.159 C 
HETATM   13  C   UNL     1     -45.293 -52.297  13.660  1.00  0.00     0.274 A 
HETATM   14  O   UNL     1     -45.223 -51.077  13.509  1.00  0.00    -0.266 OA
ENDBRANCH   1   7
BRANCH   4  15
HETATM   15  C   UNL     1     -40.245 -50.754  11.893  1.00  0.00     0.129 C 
BRANCH  15  16
HETATM   16  C   UNL     1     -40.018 -49.308  11.423  1.00  0.00     0.007 C 
HETATM   17  C   UNL     1     -39.472 -48.452  12.581  1.00  0.00     0.010 C 
HETATM   18  C   UNL     1     -39.697 -46.944  12.494  1.00  0.00     0.027 C 
HETATM   19  C   UNL     1     -40.789 -46.494  11.582  1.00  0.00    -0.031 C 
HETATM   20  C   UNL     1     -41.521 -47.319  10.829  1.00  0.00    -0.030 C 
HETATM   21  C   UNL     1     -41.340 -48.799  10.817  1.00  0.00     0.033 C 
ENDBRANCH  15  16
ENDBRANCH   4  15
TORSDOF 3
ENDMDL
MODEL 7
REMARK VINA RESULT:      -5.9      2.251      3.390
REMARK  3 active torsions:
REMARK  status: ('A' for Active; 'I' for Inactive)
REMARK    1  A    between atoms: C_6  and  N_7 
REMARK       I    between atoms: N_7  and  C_8 
REMARK       I    between atoms: C_8  and  N_10 
REMARK    2  A    between atoms: N_10  and  C_11 
REMARK    3  A    between atoms: C_11  and  C_12 
ROOT
HETATM    1  N   UNL     1     -41.526 -49.664  10.976  1.00  0.00    -0.304 N 
HETATM    2  C   UNL     1     -41.602 -50.312  12.185  1.00  0.00     0.320 C 
HETATM    3  O   UNL     1     -42.026 -49.826  13.227  1.00  0.00    -0.247 OA
HETATM    4  N   UNL     1     -41.125 -51.602  12.125  1.00  0.00    -0.342 N 
HETATM    5  H   UNL     1     -41.456 -50.228  10.137  1.00  0.00     0.171 HD
HETATM    6  H   UNL     1     -40.874 -51.996  11.230  1.00  0.00     0.164 HD
ENDROOT
BRANCH   1   7
HETATM    7  C   UNL     1     -41.753 -48.324  10.740  1.00  0.00     0.105 A 
HETATM    8  C   UNL     1     -42.891 -47.795  10.260  1.00  0.00     0.037 A 
HETATM    9  C   UNL     1     -43.055 -46.374  10.085  1.00  0.00     0.020 A 
HETATM   10  C   UNL     1     -42.077 -45.541  10.453  1.00  0.00     0.094 A 
HETATM   11  N   UNL     1     -40.887 -46.015  10.972  1.00  0.00    -0.327 N 
HETATM   12  C   UNL     1     -39.842 -45.076  11.355  1.00  0.00     0.159 C 
HETATM   13  C   UNL     1     -40.627 -47.381  11.107  1.00  0.00     0.274 A 
HETATM   14  O   UNL     1     -39.558 -47.848  11.504  1.00  0.00    -0.266 OA
ENDBRANCH   1   7
BRANCH   4  15
HETATM   15  C   UNL     1     -41.241 -52.447  13.291  1.00  0.00     0.129 C 
BRANCH  15  16
HETATM   16  C   UNL     1     -42.230 -53.614  13.141  1.00  0.00     0.007 C 
HETATM   17  C   UNL     1     -43.572 -53.106  12.582  1.00  0.00     0.010 C 
HETATM   18  C   UNL     1     -44.808 -53.956  12.870  1.00  0.00     0.027 C 
HETATM   19  C   UNL     1     -44.701 -54.906  14.014  1.00  0.00    -0.031 C 
HETATM   20  C   UNL     1     -43.594 -55.077  14.742  1.00  0.00    -0.030 C 
HETATM   21  C   UNL     1     -42.330 -54.323  14.505  1.00  0.00     0.033 C 
ENDBRANCH  15  16
ENDBRANCH   4  15
TORSDOF 3
ENDMDL
MODEL 8
REMARK VINA RESULT:      -5.7      1.742      6.690
REMARK  3 active torsions:
REMARK  status: ('A' for Active; 'I' for Inactive)
REMARK    1  A    between atoms: C_6  and  N_7 
REMARK       I    between atoms: N_7  and  C_8 
REMARK       I    between atoms: C_8  and  N_10 
REMARK    2  A    between atoms: N_10  and  C_11 
REMARK    3  A    between atoms: C_11  and  C_12 
ROOT
HETATM    1  N   UNL     1     -42.844 -52.248  12.173  1.00  0.00    -0.304 N 
HETATM    2  C   UNL     1     -41.919 -51.278  12.471  1.00  0.00     0.320 C 
HETATM    3  O   UNL     1     -41.476 -51.035  13.589  1.00  0.00    -0.247 OA
HETATM    4  N   UNL     1     -41.526 -50.561  11.363  1.00  0.00    -0.342 N 
HETATM    5  H   UNL     1     -42.908 -52.565  11.213  1.00  0.00     0.171 HD
HETATM    6  H   UNL     1     -41.839 -50.853  10.448  1.00  0.00     0.164 HD
ENDROOT
BRANCH   1   7
HETATM    7  C   UNL     1     -43.562 -53.010  13.071  1.00  0.00     0.105 A 
HETATM    8  C   UNL     1     -43.154 -54.168  13.618  1.00  0.00     0.037 A 
HETATM    9  C   UNL     1     -43.955 -54.876  14.583  1.00  0.00     0.020 A 
HETATM   10  C   UNL     1     -45.115 -54.358  14.994  1.00  0.00     0.094 A 
HETATM   11  N   UNL     1     -45.587 -53.162  14.489  1.00  0.00    -0.327 N 
HETATM   12  C   UNL     1     -46.860 -52.632  14.957  1.00  0.00     0.159 C 
HETATM   13  C   UNL     1     -44.902 -52.450  13.500  1.00  0.00     0.274 A 
HETATM   14  O   UNL     1     -45.317 -51.416  12.975  1.00  0.00    -0.266 OA
ENDBRANCH   1   7
BRANCH   4  15
HETATM   15  C   UNL     1     -40.474 -49.580  11.499  1.00  0.00     0.129 C 
BRANCH  15  16
HETATM   16  C   UNL     1     -40.964 -48.128  11.618  1.00  0.00     0.007 C 
HETATM   17  C   UNL     1     -42.089 -47.860  10.600  1.00  0.00     0.010 C 
HETATM   18  C   UNL     1     -42.317 -46.408  10.186  1.00  0.00     0.027 C 
HETATM   19  C   UNL     1     -41.180 -45.471  10.420  1.00  0.00    -0.031 C 
HETATM   20  C   UNL     1     -40.030 -45.823  11.002  1.00  0.00    -0.030 C 
HETATM   21  C   UNL     1     -39.738 -47.206  11.477  1.00  0.00     0.033 C 
ENDBRANCH  15  16
ENDBRANCH   4  15
TORSDOF 3
ENDMDL
MODEL 9
REMARK VINA RESULT:      -5.7      1.743      2.662
REMARK  3 active torsions:
REMARK  status: ('A' for Active; 'I' for Inactive)
REMARK    1  A    between atoms: C_6  and  N_7 
REMARK       I    between atoms: N_7  and  C_8 
REMARK       I    between atoms: C_8  and  N_10 
REMARK    2  A    between atoms: N_10  and  C_11 
REMARK    3  A    between atoms: C_11  and  C_12 
ROOT
HETATM    1  N   UNL     1     -40.473 -52.057  12.244  1.00  0.00    -0.304 N 
HETATM    2  C   UNL     1     -41.833 -51.881  12.314  1.00  0.00     0.320 C 
HETATM    3  O   UNL     1     -42.406 -50.805  12.443  1.00  0.00    -0.247 OA
HETATM    4  N   UNL     1     -42.526 -53.069  12.239  1.00  0.00    -0.342 N 
HETATM    5  H   UNL     1     -40.125 -52.918  11.838  1.00  0.00     0.171 HD
HETATM    6  H   UNL     1     -42.026 -53.921  12.036  1.00  0.00     0.164 HD
ENDROOT
BRANCH   1   7
HETATM    7  C   UNL     1     -39.503 -51.102  12.466  1.00  0.00     0.105 A 
HETATM    8  C   UNL     1     -39.175 -50.109  11.622  1.00  0.00     0.037 A 
HETATM    9  C   UNL     1     -38.175 -49.127  11.956  1.00  0.00     0.020 A 
HETATM   10  C   UNL     1     -37.583 -49.160  13.153  1.00  0.00     0.094 A 
HETATM   11  N   UNL     1     -37.886 -50.141  14.077  1.00  0.00    -0.327 N 
HETATM   12  C   UNL     1     -37.214 -50.148  15.369  1.00  0.00     0.159 C 
HETATM   13  C   UNL     1     -38.793 -51.168  13.802  1.00  0.00     0.274 A 
HETATM   14  O   UNL     1     -39.044 -52.098  14.570  1.00  0.00    -0.266 OA
ENDBRANCH   1   7
BRANCH   4  15
HETATM   15  C   UNL     1     -43.970 -53.036  12.187  1.00  0.00     0.129 C 
BRANCH  15  16
HETATM   16  C   UNL     1     -44.656 -52.867  13.551  1.00  0.00     0.007 C 
HETATM   17  C   UNL     1     -45.464 -54.131  13.901  1.00  0.00     0.010 C 
HETATM   18  C   UNL     1     -46.614 -53.966  14.893  1.00  0.00     0.027 C 
HETATM   19  C   UNL     1     -47.139 -52.580  15.066  1.00  0.00    -0.031 C 
HETATM   20  C   UNL     1     -46.634 -51.507  14.451  1.00  0.00    -0.030 C 
HETATM   21  C   UNL     1     -45.485 -51.569  13.502  1.00  0.00     0.033 C 
ENDBRANCH  15  16
ENDBRANCH   4  15
TORSDOF 3
ENDMDL
