MODEL 1
REMARK VINA RESULT:      -6.5      0.000      0.000
REMARK  4 active torsions:
REMARK  status: ('A' for Active; 'I' for Inactive)
REMARK    1  A    between atoms: C_7  and  C_9 
REMARK    2  A    between atoms: C_9  and  O_10 
REMARK    3  A    between atoms: C_9  and  C_11 
REMARK    4  A    between atoms: C_11  and  N_12 
ROOT
HETATM    1  C   UNL     1     -41.374 -49.324  11.266  1.00  0.00     0.170 C 
ENDROOT
BRANCH   1   2
HETATM    2  C   UNL     1     -41.031 -47.840  11.384  1.00  0.00    -0.022 A 
HETATM    3  C   UNL     1     -41.676 -46.879  10.565  1.00  0.00    -0.053 A 
HETATM    4  C   UNL     1     -41.353 -45.517  10.702  1.00  0.00     0.008 A 
HETATM    5  C   UNL     1     -42.735 -47.257   9.561  1.00  0.00     0.049 C 
HETATM    6  C   UNL     1     -40.436 -45.086  11.660  1.00  0.00     0.007 A 
HETATM    7  C   UNL     1     -39.815 -46.010  12.496  1.00  0.00    -0.061 A 
HETATM    8  C   UNL     1     -38.880 -45.567  13.582  1.00  0.00     0.048 C 
HETATM    9  C   UNL     1     -40.096 -47.376  12.333  1.00  0.00     0.017 A 
ENDBRANCH   1   2
BRANCH   1  10
HETATM   10  O   UNL     1     -40.391 -49.972  10.441  1.00  0.00    -0.389 OA
HETATM   11  H   UNL     1     -39.623 -49.378  10.385  1.00  0.00     0.210 HD
ENDBRANCH   1  10
BRANCH   1  12
HETATM   12  C   UNL     1     -41.441 -50.118  12.596  1.00  0.00     0.169 C 
BRANCH  12  13
HETATM   13  N   UNL     1     -42.496 -51.141  12.602  1.00  0.00    -0.305 N 
HETATM   14  C   UNL     1     -43.736 -50.843  13.132  1.00  0.00     0.125 A 
HETATM   15  C   UNL     1     -44.713 -51.749  13.218  1.00  0.00     0.117 A 
HETATM   16 CL   UNL     1     -46.248 -51.380  13.886  1.00  0.00    -0.077 Cl
HETATM   17  C   UNL     1     -44.445 -53.125  12.731  1.00  0.00     0.272 A 
HETATM   18  O   UNL     1     -45.273 -54.029  12.782  1.00  0.00    -0.266 OA
HETATM   19  N   UNL     1     -43.196 -53.332  12.212  1.00  0.00    -0.274 N 
HETATM   20  C   UNL     1     -42.179 -52.413  12.153  1.00  0.00     0.329 A 
HETATM   21  H   UNL     1     -42.982 -54.263  11.891  1.00  0.00     0.173 HD
HETATM   22  O   UNL     1     -41.073 -52.736  11.727  1.00  0.00    -0.246 OA
ENDBRANCH  12  13
ENDBRANCH   1  12
TORSDOF 4
ENDMDL
MODEL 2
REMARK VINA RESULT:      -6.4      3.421      7.032
REMARK  4 active torsions:
REMARK  status: ('A' for Active; 'I' for Inactive)
REMARK    1  A    between atoms: C_7  and  C_9 
REMARK    2  A    between atoms: C_9  and  O_10 
REMARK    3  A    between atoms: C_9  and  C_11 
REMARK    4  A    between atoms: C_11  and  N_12 
ROOT
HETATM    1  C   UNL     1     -40.541 -50.074  11.825  1.00  0.00     0.170 C 
ENDROOT
BRANCH   1   2
HETATM    2  C   UNL     1     -40.866 -51.444  12.420  1.00  0.00    -0.022 A 
HETATM    3  C   UNL     1     -39.916 -52.135  13.212  1.00  0.00    -0.053 A 
HETATM    4  C   UNL     1     -40.244 -53.388  13.760  1.00  0.00     0.008 A 
HETATM    5  C   UNL     1     -38.558 -51.559  13.527  1.00  0.00     0.049 C 
HETATM    6  C   UNL     1     -41.505 -53.948  13.572  1.00  0.00     0.007 A 
HETATM    7  C   UNL     1     -42.464 -53.272  12.823  1.00  0.00    -0.061 A 
HETATM    8  C   UNL     1     -43.853 -53.819  12.666  1.00  0.00     0.048 C 
HETATM    9  C   UNL     1     -42.129 -52.043  12.233  1.00  0.00     0.017 A 
ENDBRANCH   1   2
BRANCH   1  10
HETATM   10  O   UNL     1     -40.446 -50.190  10.395  1.00  0.00    -0.389 OA
HETATM   11  H   UNL     1     -41.300 -49.907  10.024  1.00  0.00     0.210 HD
ENDBRANCH   1  10
BRANCH   1  12
HETATM   12  C   UNL     1     -41.557 -48.942  12.121  1.00  0.00     0.169 C 
BRANCH  12  13
HETATM   13  N   UNL     1     -41.134 -47.637  11.593  1.00  0.00    -0.305 N 
HETATM   14  C   UNL     1     -40.310 -46.827  12.350  1.00  0.00     0.125 A 
HETATM   15  C   UNL     1     -39.942 -45.607  11.948  1.00  0.00     0.117 A 
HETATM   16 CL   UNL     1     -38.928 -44.600  12.894  1.00  0.00    -0.077 Cl
HETATM   17  C   UNL     1     -40.446 -45.112  10.643  1.00  0.00     0.272 A 
HETATM   18  O   UNL     1     -40.176 -44.001  10.196  1.00  0.00    -0.266 OA
HETATM   19  N   UNL     1     -41.247 -45.981   9.953  1.00  0.00    -0.274 N 
HETATM   20  C   UNL     1     -41.654 -47.220  10.378  1.00  0.00     0.329 A 
HETATM   21  H   UNL     1     -41.617 -45.661   9.073  1.00  0.00     0.173 HD
HETATM   22  O   UNL     1     -42.433 -47.884   9.700  1.00  0.00    -0.246 OA
ENDBRANCH  12  13
ENDBRANCH   1  12
TORSDOF 4
ENDMDL
MODEL 3
REMARK VINA RESULT:      -6.1      3.306      7.365
REMARK  4 active torsions:
REMARK  status: ('A' for Active; 'I' for Inactive)
REMARK    1  A    between atoms: C_7  and  C_9 
REMARK    2  A    between atoms: C_9  and  O_10 
REMARK    3  A    between atoms: C_9  and  C_11 
REMARK    4  A    between atoms: C_11  and  N_12 
ROOT
HETATM    1  C   UNL     1     -40.874 -52.772  12.493  1.00  0.00     0.170 C 
ENDROOT
BRANCH   1   2
HETATM    2  C   UNL     1     -41.665 -53.660  13.453  1.00  0.00    -0.022 A 
HETATM    3  C   UNL     1     -41.070 -54.158  14.639  1.00  0.00    -0.053 A 
HETATM    4  C   UNL     1     -41.824 -54.962  15.513  1.00  0.00     0.008 A 
HETATM    5  C   UNL     1     -39.650 -53.831  15.027  1.00  0.00     0.049 C 
HETATM    6  C   UNL     1     -43.164 -55.245  15.256  1.00  0.00     0.007 A 
HETATM    7  C   UNL     1     -43.777 -54.739  14.114  1.00  0.00    -0.061 A 
HETATM    8  C   UNL     1     -45.236 -54.969  13.850  1.00  0.00     0.048 C 
HETATM    9  C   UNL     1     -43.018 -53.977  13.211  1.00  0.00     0.017 A 
ENDBRANCH   1   2
BRANCH   1  10
HETATM   10  O   UNL     1     -40.608 -53.504  11.285  1.00  0.00    -0.389 OA
HETATM   11  H   UNL     1     -41.312 -54.167  11.187  1.00  0.00     0.210 HD
ENDBRANCH   1  10
BRANCH   1  12
HETATM   12  C   UNL     1     -41.550 -51.442  12.077  1.00  0.00     0.169 C 
BRANCH  12  13
HETATM   13  N   UNL     1     -40.765 -50.256  12.450  1.00  0.00    -0.305 N 
HETATM   14  C   UNL     1     -39.615 -50.405  13.201  1.00  0.00     0.125 A 
HETATM   15  C   UNL     1     -38.894 -49.361  13.618  1.00  0.00     0.117 A 
HETATM   16 CL   UNL     1     -37.474 -49.547  14.559  1.00  0.00    -0.077 Cl
HETATM   17  C   UNL     1     -39.357 -47.996  13.263  1.00  0.00     0.272 A 
HETATM   18  O   UNL     1     -38.772 -46.976  13.613  1.00  0.00    -0.266 OA
HETATM   19  N   UNL     1     -40.498 -47.939  12.508  1.00  0.00    -0.274 N 
HETATM   20  C   UNL     1     -41.259 -49.008  12.107  1.00  0.00     0.329 A 
HETATM   21  H   UNL     1     -40.843 -47.024  12.269  1.00  0.00     0.173 HD
HETATM   22  O   UNL     1     -42.305 -48.828  11.489  1.00  0.00    -0.246 OA
ENDBRANCH  12  13
ENDBRANCH   1  12
TORSDOF 4
ENDMDL
MODEL 4
REMARK VINA RESULT:      -6.0      2.723      6.654
REMARK  4 active torsions:
REMARK  status: ('A' for Active; 'I' for Inactive)
REMARK    1  A    between atoms: C_7  and  C_9 
REMARK    2  A    between atoms: C_9  and  O_10 
REMARK    3  A    between atoms: C_9  and  C_11 
REMARK    4  A    between atoms: C_11  and  N_12 
ROOT
HETATM    1  C   UNL     1     -40.706 -53.395  12.967  1.00  0.00     0.170 C 
ENDROOT
BRANCH   1   2
HETATM    2  C   UNL     1     -42.143 -53.729  13.365  1.00  0.00    -0.022 A 
HETATM    3  C   UNL     1     -42.412 -54.548  14.491  1.00  0.00    -0.053 A 
HETATM    4  C   UNL     1     -43.743 -54.830  14.845  1.00  0.00     0.008 A 
HETATM    5  C   UNL     1     -41.315 -55.111  15.358  1.00  0.00     0.049 C 
HETATM    6  C   UNL     1     -44.810 -54.285  14.133  1.00  0.00     0.007 A 
HETATM    7  C   UNL     1     -44.567 -53.453  13.043  1.00  0.00    -0.061 A 
HETATM    8  C   UNL     1     -45.696 -52.795  12.304  1.00  0.00     0.048 C 
HETATM    9  C   UNL     1     -43.242 -53.205  12.653  1.00  0.00     0.017 A 
ENDBRANCH   1   2
BRANCH   1  10
HETATM   10  O   UNL     1     -40.638 -53.227  11.541  1.00  0.00    -0.389 OA
HETATM   11  H   UNL     1     -41.506 -52.902  11.246  1.00  0.00     0.210 HD
ENDBRANCH   1  10
BRANCH   1  12
HETATM   12  C   UNL     1     -40.100 -52.117  13.602  1.00  0.00     0.169 C 
BRANCH  12  13
HETATM   13  N   UNL     1     -40.361 -50.904  12.814  1.00  0.00    -0.305 N 
HETATM   14  C   UNL     1     -41.604 -50.303  12.873  1.00  0.00     0.125 A 
HETATM   15  C   UNL     1     -41.917 -49.235  12.135  1.00  0.00     0.117 A 
HETATM   16 CL   UNL     1     -43.463 -48.499  12.201  1.00  0.00    -0.077 Cl
HETATM   17  C   UNL     1     -40.889 -48.685  11.218  1.00  0.00     0.272 A 
HETATM   18  O   UNL     1     -41.087 -47.717  10.490  1.00  0.00    -0.266 OA
HETATM   19  N   UNL     1     -39.683 -49.332  11.230  1.00  0.00    -0.274 N 
HETATM   20  C   UNL     1     -39.369 -50.449  11.961  1.00  0.00     0.329 A 
HETATM   21  H   UNL     1     -38.973 -48.989  10.602  1.00  0.00     0.173 HD
HETATM   22  O   UNL     1     -38.271 -50.985  11.836  1.00  0.00    -0.246 OA
ENDBRANCH  12  13
ENDBRANCH   1  12
TORSDOF 4
ENDMDL
MODEL 5
REMARK VINA RESULT:      -5.9      4.502      7.560
REMARK  4 active torsions:
REMARK  status: ('A' for Active; 'I' for Inactive)
REMARK    1  A    between atoms: C_7  and  C_9 
REMARK    2  A    between atoms: C_9  and  O_10 
REMARK    3  A    between atoms: C_9  and  C_11 
REMARK    4  A    between atoms: C_11  and  N_12 
ROOT
HETATM    1  C   UNL     1     -40.443 -53.154  12.751  1.00  0.00     0.170 C 
ENDROOT
BRANCH   1   2
HETATM    2  C   UNL     1     -41.480 -53.880  13.608  1.00  0.00    -0.022 A 
HETATM    3  C   UNL     1     -41.116 -54.469  14.845  1.00  0.00    -0.053 A 
HETATM    4  C   UNL     1     -42.091 -55.119  15.621  1.00  0.00     0.008 A 
HETATM    5  C   UNL     1     -39.711 -54.397  15.388  1.00  0.00     0.049 C 
HETATM    6  C   UNL     1     -43.424 -55.162  15.217  1.00  0.00     0.007 A 
HETATM    7  C   UNL     1     -43.809 -54.562  14.021  1.00  0.00    -0.061 A 
HETATM    8  C   UNL     1     -45.248 -54.530  13.598  1.00  0.00     0.048 C 
HETATM    9  C   UNL     1     -42.833 -53.953  13.216  1.00  0.00     0.017 A 
ENDBRANCH   1   2
BRANCH   1  10
HETATM   10  O   UNL     1     -40.654 -53.490  11.370  1.00  0.00    -0.389 OA
HETATM   11  H   UNL     1     -41.559 -53.218  11.140  1.00  0.00     0.210 HD
ENDBRANCH   1  10
BRANCH   1  12
HETATM   12  C   UNL     1     -40.441 -51.607  12.846  1.00  0.00     0.169 C 
BRANCH  12  13
HETATM   13  N   UNL     1     -39.402 -51.087  13.746  1.00  0.00    -0.305 N 
HETATM   14  C   UNL     1     -39.741 -50.692  15.026  1.00  0.00     0.125 A 
HETATM   15  C   UNL     1     -38.852 -50.158  15.868  1.00  0.00     0.117 A 
HETATM   16 CL   UNL     1     -39.276 -49.658  17.451  1.00  0.00    -0.077 Cl
HETATM   17  C   UNL     1     -37.454 -49.982  15.400  1.00  0.00     0.272 A 
HETATM   18  O   UNL     1     -36.571 -49.487  16.093  1.00  0.00    -0.266 OA
HETATM   19  N   UNL     1     -37.202 -50.409  14.125  1.00  0.00    -0.274 N 
HETATM   20  C   UNL     1     -38.121 -50.927  13.246  1.00  0.00     0.329 A 
HETATM   21  H   UNL     1     -36.265 -50.283  13.776  1.00  0.00     0.173 HD
HETATM   22  O   UNL     1     -37.789 -51.212  12.098  1.00  0.00    -0.246 OA
ENDBRANCH  12  13
ENDBRANCH   1  12
TORSDOF 4
ENDMDL
MODEL 6
REMARK VINA RESULT:      -5.9      3.838      6.766
REMARK  4 active torsions:
REMARK  status: ('A' for Active; 'I' for Inactive)
REMARK    1  A    between atoms: C_7  and  C_9 
REMARK    2  A    between atoms: C_9  and  O_10 
REMARK    3  A    between atoms: C_9  and  C_11 
REMARK    4  A    between atoms: C_11  and  N_12 
ROOT
HETATM    1  C   UNL     1     -43.481 -54.065  14.443  1.00  0.00     0.170 C 
ENDROOT
BRANCH   1   2
HETATM    2  C   UNL     1     -44.679 -53.127  14.302  1.00  0.00    -0.022 A 
HETATM    3  C   UNL     1     -45.146 -52.374  15.408  1.00  0.00    -0.053 A 
HETATM    4  C   UNL     1     -46.242 -51.508  15.248  1.00  0.00     0.008 A 
HETATM    5  C   UNL     1     -44.486 -52.438  16.762  1.00  0.00     0.049 C 
HETATM    6  C   UNL     1     -46.856 -51.343  14.008  1.00  0.00     0.007 A 
HETATM    7  C   UNL     1     -46.393 -52.049  12.902  1.00  0.00    -0.061 A 
HETATM    8  C   UNL     1     -46.989 -51.836  11.541  1.00  0.00     0.048 C 
HETATM    9  C   UNL     1     -45.331 -52.953  13.063  1.00  0.00     0.017 A 
ENDBRANCH   1   2
BRANCH   1  10
HETATM   10  O   UNL     1     -43.950 -55.386  14.763  1.00  0.00    -0.389 OA
HETATM   11  H   UNL     1     -44.831 -55.291  15.165  1.00  0.00     0.210 HD
ENDBRANCH   1  10
BRANCH   1  12
HETATM   12  C   UNL     1     -42.567 -54.199  13.198  1.00  0.00     0.169 C 
BRANCH  12  13
HETATM   13  N   UNL     1     -41.509 -53.180  13.149  1.00  0.00    -0.305 N 
HETATM   14  C   UNL     1     -41.701 -52.030  12.408  1.00  0.00     0.125 A 
HETATM   15  C   UNL     1     -40.754 -51.097  12.279  1.00  0.00     0.117 A 
HETATM   16 CL   UNL     1     -40.989 -49.676  11.349  1.00  0.00    -0.077 Cl
HETATM   17  C   UNL     1     -39.450 -51.316  12.955  1.00  0.00     0.272 A 
HETATM   18  O   UNL     1     -38.515 -50.524  12.882  1.00  0.00    -0.266 OA
HETATM   19  N   UNL     1     -39.349 -52.474  13.677  1.00  0.00    -0.274 N 
HETATM   20  C   UNL     1     -40.308 -53.449  13.784  1.00  0.00     0.329 A 
HETATM   21  H   UNL     1     -38.468 -52.655  14.130  1.00  0.00     0.173 HD
HETATM   22  O   UNL     1     -40.075 -54.482  14.406  1.00  0.00    -0.246 OA
ENDBRANCH  12  13
ENDBRANCH   1  12
TORSDOF 4
ENDMDL
MODEL 7
REMARK VINA RESULT:      -5.9      2.851      4.318
REMARK  4 active torsions:
REMARK  status: ('A' for Active; 'I' for Inactive)
REMARK    1  A    between atoms: C_7  and  C_9 
REMARK    2  A    between atoms: C_9  and  O_10 
REMARK    3  A    between atoms: C_9  and  C_11 
REMARK    4  A    between atoms: C_11  and  N_12 
ROOT
HETATM    1  C   UNL     1     -41.373 -52.913  12.483  1.00  0.00     0.170 C 
ENDROOT
BRANCH   1   2
HETATM    2  C   UNL     1     -40.512 -51.964  13.317  1.00  0.00    -0.022 A 
HETATM    3  C   UNL     1     -40.409 -50.592  12.980  1.00  0.00    -0.053 A 
HETATM    4  C   UNL     1     -39.621 -49.737  13.771  1.00  0.00     0.008 A 
HETATM    5  C   UNL     1     -41.145 -49.992  11.809  1.00  0.00     0.049 C 
HETATM    6  C   UNL     1     -38.970 -50.206  14.910  1.00  0.00     0.007 A 
HETATM    7  C   UNL     1     -39.085 -51.544  15.278  1.00  0.00    -0.061 A 
HETATM    8  C   UNL     1     -38.453 -52.058  16.538  1.00  0.00     0.048 C 
HETATM    9  C   UNL     1     -39.829 -52.414  14.466  1.00  0.00     0.017 A 
ENDBRANCH   1   2
BRANCH   1  10
HETATM   10  O   UNL     1     -40.587 -53.434  11.399  1.00  0.00    -0.389 OA
HETATM   11  H   UNL     1     -40.426 -52.702  10.779  1.00  0.00     0.210 HD
ENDBRANCH   1  10
BRANCH   1  12
HETATM   12  C   UNL     1     -41.973 -54.129  13.233  1.00  0.00     0.169 C 
BRANCH  12  13
HETATM   13  N   UNL     1     -43.396 -53.958  13.561  1.00  0.00    -0.305 N 
HETATM   14  C   UNL     1     -44.121 -52.949  12.957  1.00  0.00     0.125 A 
HETATM   15  C   UNL     1     -45.400 -52.709  13.259  1.00  0.00     0.117 A 
HETATM   16 CL   UNL     1     -46.294 -51.450  12.517  1.00  0.00    -0.077 Cl
HETATM   17  C   UNL     1     -46.054 -53.558  14.286  1.00  0.00     0.272 A 
HETATM   18  O   UNL     1     -47.219 -53.405  14.641  1.00  0.00    -0.266 OA
HETATM   19  N   UNL     1     -45.268 -54.540  14.825  1.00  0.00    -0.274 N 
HETATM   20  C   UNL     1     -43.945 -54.767  14.542  1.00  0.00     0.329 A 
HETATM   21  H   UNL     1     -45.683 -55.118  15.538  1.00  0.00     0.173 HD
HETATM   22  O   UNL     1     -43.322 -55.638  15.143  1.00  0.00    -0.246 OA
ENDBRANCH  12  13
ENDBRANCH   1  12
TORSDOF 4
ENDMDL
MODEL 8
REMARK VINA RESULT:      -5.8      3.052      6.395
REMARK  4 active torsions:
REMARK  status: ('A' for Active; 'I' for Inactive)
REMARK    1  A    between atoms: C_7  and  C_9 
REMARK    2  A    between atoms: C_9  and  O_10 
REMARK    3  A    between atoms: C_9  and  C_11 
REMARK    4  A    between atoms: C_11  and  N_12 
ROOT
HETATM    1  C   UNL     1     -43.196 -49.698  13.163  1.00  0.00     0.170 C 
ENDROOT
BRANCH   1   2
HETATM    2  C   UNL     1     -43.155 -51.222  13.274  1.00  0.00    -0.022 A 
HETATM    3  C   UNL     1     -44.351 -51.974  13.380  1.00  0.00    -0.053 A 
HETATM    4  C   UNL     1     -44.288 -53.376  13.467  1.00  0.00     0.008 A 
HETATM    5  C   UNL     1     -45.714 -51.327  13.370  1.00  0.00     0.049 C 
HETATM    6  C   UNL     1     -43.068 -54.047  13.409  1.00  0.00     0.007 A 
HETATM    7  C   UNL     1     -41.883 -53.329  13.272  1.00  0.00    -0.061 A 
HETATM    8  C   UNL     1     -40.564 -54.030  13.135  1.00  0.00     0.048 C 
HETATM    9  C   UNL     1     -41.934 -51.927  13.234  1.00  0.00     0.017 A 
ENDBRANCH   1   2
BRANCH   1  10
HETATM   10  O   UNL     1     -43.311 -49.132  14.479  1.00  0.00    -0.389 OA
HETATM   11  H   UNL     1     -42.788 -48.312  14.489  1.00  0.00     0.210 HD
ENDBRANCH   1  10
BRANCH   1  12
HETATM   12  C   UNL     1     -41.971 -49.028  12.488  1.00  0.00     0.169 C 
BRANCH  12  13
HETATM   13  N   UNL     1     -42.345 -48.093  11.418  1.00  0.00    -0.305 N 
HETATM   14  C   UNL     1     -43.649 -48.056  10.964  1.00  0.00     0.125 A 
HETATM   15  C   UNL     1     -44.033 -47.269   9.956  1.00  0.00     0.117 A 
HETATM   16 CL   UNL     1     -45.650 -47.235   9.387  1.00  0.00    -0.077 Cl
HETATM   17  C   UNL     1     -43.013 -46.412   9.301  1.00  0.00     0.272 A 
HETATM   18  O   UNL     1     -43.266 -45.669   8.358  1.00  0.00    -0.266 OA
HETATM   19  N   UNL     1     -41.750 -46.501   9.819  1.00  0.00    -0.274 N 
HETATM   20  C   UNL     1     -41.345 -47.333  10.832  1.00  0.00     0.329 A 
HETATM   21  H   UNL     1     -41.035 -45.943   9.380  1.00  0.00     0.173 HD
HETATM   22  O   UNL     1     -40.164 -47.375  11.166  1.00  0.00    -0.246 OA
ENDBRANCH  12  13
ENDBRANCH   1  12
TORSDOF 4
ENDMDL
MODEL 9
REMARK VINA RESULT:      -5.8      4.714      6.999
REMARK  4 active torsions:
REMARK  status: ('A' for Active; 'I' for Inactive)
REMARK    1  A    between atoms: C_7  and  C_9 
REMARK    2  A    between atoms: C_9  and  O_10 
REMARK    3  A    between atoms: C_9  and  C_11 
REMARK    4  A    between atoms: C_11  and  N_12 
ROOT
HETATM    1  C   UNL     1     -43.584 -54.205  14.568  1.00  0.00     0.170 C 
ENDROOT
BRANCH   1   2
HETATM    2  C   UNL     1     -44.737 -53.214  14.406  1.00  0.00    -0.022 A 
HETATM    3  C   UNL     1     -45.177 -52.427  15.499  1.00  0.00    -0.053 A 
HETATM    4  C   UNL     1     -46.231 -51.513  15.320  1.00  0.00     0.008 A 
HETATM    5  C   UNL     1     -44.531 -52.505  16.859  1.00  0.00     0.049 C 
HETATM    6  C   UNL     1     -46.827 -51.335  14.073  1.00  0.00     0.007 A 
HETATM    7  C   UNL     1     -46.388 -52.075  12.979  1.00  0.00    -0.061 A 
HETATM    8  C   UNL     1     -46.963 -51.852  11.611  1.00  0.00     0.048 C 
HETATM    9  C   UNL     1     -45.370 -53.025  13.159  1.00  0.00     0.017 A 
ENDBRANCH   1   2
BRANCH   1  10
HETATM   10  O   UNL     1     -44.119 -55.525  14.758  1.00  0.00    -0.389 OA
HETATM   11  H   UNL     1     -45.024 -55.425  15.099  1.00  0.00     0.210 HD
ENDBRANCH   1  10
BRANCH   1  12
HETATM   12  C   UNL     1     -42.582 -54.287  13.389  1.00  0.00     0.169 C 
BRANCH  12  13
HETATM   13  N   UNL     1     -41.352 -53.519  13.624  1.00  0.00    -0.305 N 
HETATM   14  C   UNL     1     -40.631 -53.719  14.786  1.00  0.00     0.125 A 
HETATM   15  C   UNL     1     -39.539 -53.009  15.081  1.00  0.00     0.117 A 
HETATM   16 CL   UNL     1     -38.654 -53.251  16.529  1.00  0.00    -0.077 Cl
HETATM   17  C   UNL     1     -39.096 -51.965  14.124  1.00  0.00     0.272 A 
HETATM   18  O   UNL     1     -38.115 -51.252  14.314  1.00  0.00    -0.266 OA
HETATM   19  N   UNL     1     -39.859 -51.840  12.995  1.00  0.00    -0.274 N 
HETATM   20  C   UNL     1     -41.000 -52.545  12.704  1.00  0.00     0.329 A 
HETATM   21  H   UNL     1     -39.589 -51.126  12.337  1.00  0.00     0.173 HD
HETATM   22  O   UNL     1     -41.642 -52.296  11.687  1.00  0.00    -0.246 OA
ENDBRANCH  12  13
ENDBRANCH   1  12
TORSDOF 4
ENDMDL
