MODEL 1
REMARK VINA RESULT:      -6.1      0.000      0.000
REMARK  5 active torsions:
REMARK  status: ('A' for Active; 'I' for Inactive)
REMARK    1  A    between atoms: C_5  and  C_6 
REMARK    2  A    between atoms: C_6  and  C_7 
REMARK    3  A    between atoms: C_7  and  N_8 
REMARK       I    between atoms: N_8  and  C_9 
REMARK       I    between atoms: C_9  and  N_11 
REMARK    4  A    between atoms: N_11  and  C_12 
REMARK    5  A    between atoms: C_12  and  C_13 
ROOT
HETATM    1  N   UNL     1     -41.831 -51.554  11.733  1.00  0.00    -0.343 N 
HETATM    2  C   UNL     1     -42.383 -52.560  12.474  1.00  0.00     0.316 C 
HETATM    3  O   UNL     1     -41.852 -53.025  13.475  1.00  0.00    -0.247 OA
HETATM    4  N   UNL     1     -43.593 -52.969  11.997  1.00  0.00    -0.341 N 
HETATM    5  H   UNL     1     -42.305 -51.229  10.904  1.00  0.00     0.164 HD
HETATM    6  H   UNL     1     -43.921 -52.652  11.096  1.00  0.00     0.164 HD
ENDROOT
BRANCH   1   7
HETATM    7  C   UNL     1     -40.577 -50.925  12.114  1.00  0.00     0.130 C 
BRANCH   7   8
HETATM    8  C   UNL     1     -40.160 -49.779  11.190  1.00  0.00     0.077 C 
BRANCH   8   9
HETATM    9  C   UNL     1     -41.235 -48.751  11.029  1.00  0.00     0.018 A 
HETATM   10  N   UNL     1     -41.743 -48.502   9.764  1.00  0.00    -0.357 N 
HETATM   11  C   UNL     1     -42.681 -47.580   9.827  1.00  0.00     0.046 A 
ATOM     12  HN  UNL     1     -41.435 -48.965   8.909  1.00  0.00     0.166 HD
HETATM   13  C   UNL     1     -43.453 -47.077   8.660  1.00  0.00     0.076 C 
HETATM   14  S   UNL     1     -42.988 -46.945  11.395  1.00  0.00    -0.087 SA
HETATM   15  C   UNL     1     -41.797 -47.992  12.038  1.00  0.00     0.076 A 
ENDBRANCH   8   9
ENDBRANCH   7   8
ENDBRANCH   1   7
BRANCH   4  16
HETATM   16  C   UNL     1     -44.408 -53.941  12.707  1.00  0.00     0.156 C 
BRANCH  16  17
HETATM   17  C   UNL     1     -45.697 -53.365  13.294  1.00  0.00     0.139 C 
HETATM   18  C   UNL     1     -45.958 -51.889  13.031  1.00  0.00     0.035 C 
HETATM   19  C   UNL     1     -46.705 -51.418  14.266  1.00  0.00     0.029 C 
HETATM   20  C   UNL     1     -46.782 -52.637  15.162  1.00  0.00     0.168 C 
HETATM   21  O   UNL     1     -45.724 -53.499  14.728  1.00  0.00    -0.384 OA
ENDBRANCH  16  17
ENDBRANCH   4  16
TORSDOF 5
ENDMDL
MODEL 2
REMARK VINA RESULT:      -5.9      3.186      6.062
REMARK  5 active torsions:
REMARK  status: ('A' for Active; 'I' for Inactive)
REMARK    1  A    between atoms: C_5  and  C_6 
REMARK    2  A    between atoms: C_6  and  C_7 
REMARK    3  A    between atoms: C_7  and  N_8 
REMARK       I    between atoms: N_8  and  C_9 
REMARK       I    between atoms: C_9  and  N_11 
REMARK    4  A    between atoms: N_11  and  C_12 
REMARK    5  A    between atoms: C_12  and  C_13 
ROOT
HETATM    1  N   UNL     1     -41.603 -49.758  11.183  1.00  0.00    -0.343 N 
HETATM    2  C   UNL     1     -42.512 -48.743  11.083  1.00  0.00     0.316 C 
HETATM    3  O   UNL     1     -43.294 -48.452  11.979  1.00  0.00    -0.247 OA
HETATM    4  N   UNL     1     -42.436 -48.077   9.895  1.00  0.00    -0.341 N 
HETATM    5  H   UNL     1     -41.000 -49.966  10.401  1.00  0.00     0.164 HD
HETATM    6  H   UNL     1     -41.872 -48.440   9.141  1.00  0.00     0.164 HD
ENDROOT
BRANCH   1   7
HETATM    7  C   UNL     1     -41.470 -50.546  12.397  1.00  0.00     0.130 C 
BRANCH   7   8
HETATM    8  C   UNL     1     -41.672 -52.047  12.180  1.00  0.00     0.077 C 
BRANCH   8   9
HETATM    9  C   UNL     1     -43.018 -52.516  12.635  1.00  0.00     0.018 A 
HETATM   10  N   UNL     1     -44.048 -51.594  12.748  1.00  0.00    -0.357 N 
HETATM   11  C   UNL     1     -45.149 -52.195  13.148  1.00  0.00     0.046 A 
ATOM     12  HN  UNL     1     -43.964 -50.597  12.550  1.00  0.00     0.166 HD
HETATM   13  C   UNL     1     -46.455 -51.514  13.361  1.00  0.00     0.076 C 
HETATM   14  S   UNL     1     -45.008 -53.884  13.434  1.00  0.00    -0.087 SA
HETATM   15  C   UNL     1     -43.363 -53.811  12.970  1.00  0.00     0.076 A 
ENDBRANCH   8   9
ENDBRANCH   7   8
ENDBRANCH   1   7
BRANCH   4  16
HETATM   16  C   UNL     1     -43.227 -46.886   9.633  1.00  0.00     0.156 C 
BRANCH  16  17
HETATM   17  C   UNL     1     -44.467 -47.137   8.775  1.00  0.00     0.139 C 
HETATM   18  C   UNL     1     -45.741 -47.506   9.521  1.00  0.00     0.035 C 
HETATM   19  C   UNL     1     -46.474 -48.434   8.568  1.00  0.00     0.029 C 
HETATM   20  C   UNL     1     -45.557 -48.564   7.369  1.00  0.00     0.168 C 
HETATM   21  O   UNL     1     -44.251 -48.217   7.847  1.00  0.00    -0.384 OA
ENDBRANCH  16  17
ENDBRANCH   4  16
TORSDOF 5
ENDMDL
MODEL 3
REMARK VINA RESULT:      -5.4      2.081      2.726
REMARK  5 active torsions:
REMARK  status: ('A' for Active; 'I' for Inactive)
REMARK    1  A    between atoms: C_5  and  C_6 
REMARK    2  A    between atoms: C_6  and  C_7 
REMARK    3  A    between atoms: C_7  and  N_8 
REMARK       I    between atoms: N_8  and  C_9 
REMARK       I    between atoms: C_9  and  N_11 
REMARK    4  A    between atoms: N_11  and  C_12 
REMARK    5  A    between atoms: C_12  and  C_13 
ROOT
HETATM    1  N   UNL     1     -40.758 -50.910  11.116  1.00  0.00    -0.343 N 
HETATM    2  C   UNL     1     -40.697 -51.735  12.205  1.00  0.00     0.316 C 
HETATM    3  O   UNL     1     -40.405 -51.343  13.327  1.00  0.00    -0.247 OA
HETATM    4  N   UNL     1     -41.020 -53.026  11.911  1.00  0.00    -0.341 N 
HETATM    5  H   UNL     1     -40.981 -51.296  10.212  1.00  0.00     0.164 HD
HETATM    6  H   UNL     1     -41.119 -53.323  10.951  1.00  0.00     0.164 HD
ENDROOT
BRANCH   1   7
HETATM    7  C   UNL     1     -40.521 -49.481  11.228  1.00  0.00     0.130 C 
BRANCH   7   8
HETATM    8  C   UNL     1     -41.802 -48.644  11.224  1.00  0.00     0.077 C 
BRANCH   8   9
HETATM    9  C   UNL     1     -41.528 -47.176  11.119  1.00  0.00     0.018 A 
HETATM   10  N   UNL     1     -40.390 -46.752  10.450  1.00  0.00    -0.357 N 
HETATM   11  C   UNL     1     -40.330 -45.436  10.454  1.00  0.00     0.046 A 
ATOM     12  HN  UNL     1     -39.702 -47.368  10.019  1.00  0.00     0.166 HD
HETATM   13  C   UNL     1     -39.250 -44.638   9.813  1.00  0.00     0.076 C 
HETATM   14  S   UNL     1     -41.611 -44.639  11.276  1.00  0.00    -0.087 SA
HETATM   15  C   UNL     1     -42.309 -46.160  11.635  1.00  0.00     0.076 A 
ENDBRANCH   8   9
ENDBRANCH   7   8
ENDBRANCH   1   7
BRANCH   4  16
HETATM   16  C   UNL     1     -41.140 -54.040  12.946  1.00  0.00     0.156 C 
BRANCH  16  17
HETATM   17  C   UNL     1     -42.581 -54.353  13.349  1.00  0.00     0.139 C 
HETATM   18  C   UNL     1     -43.670 -53.582  12.618  1.00  0.00     0.035 C 
HETATM   19  C   UNL     1     -44.774 -53.429  13.649  1.00  0.00     0.029 C 
HETATM   20  C   UNL     1     -44.228 -54.082  14.903  1.00  0.00     0.168 C 
HETATM   21  O   UNL     1     -42.804 -54.080  14.746  1.00  0.00    -0.384 OA
ENDBRANCH  16  17
ENDBRANCH   4  16
TORSDOF 5
ENDMDL
MODEL 4
REMARK VINA RESULT:      -5.3      3.355      6.484
REMARK  5 active torsions:
REMARK  status: ('A' for Active; 'I' for Inactive)
REMARK    1  A    between atoms: C_5  and  C_6 
REMARK    2  A    between atoms: C_6  and  C_7 
REMARK    3  A    between atoms: C_7  and  N_8 
REMARK       I    between atoms: N_8  and  C_9 
REMARK       I    between atoms: C_9  and  N_11 
REMARK    4  A    between atoms: N_11  and  C_12 
REMARK    5  A    between atoms: C_12  and  C_13 
ROOT
HETATM    1  N   UNL     1     -41.303 -51.346  12.014  1.00  0.00    -0.343 N 
HETATM    2  C   UNL     1     -40.881 -50.090  11.680  1.00  0.00     0.316 C 
HETATM    3  O   UNL     1     -39.754 -49.675  11.918  1.00  0.00    -0.247 OA
HETATM    4  N   UNL     1     -41.837 -49.364  11.033  1.00  0.00    -0.341 N 
HETATM    5  H   UNL     1     -42.252 -51.622  11.814  1.00  0.00     0.164 HD
HETATM    6  H   UNL     1     -42.788 -49.699  10.984  1.00  0.00     0.164 HD
ENDROOT
BRANCH   1   7
HETATM    7  C   UNL     1     -40.414 -52.306  12.646  1.00  0.00     0.130 C 
BRANCH   7   8
HETATM    8  C   UNL     1     -40.903 -53.753  12.548  1.00  0.00     0.077 C 
BRANCH   8   9
HETATM    9  C   UNL     1     -42.016 -54.047  13.504  1.00  0.00     0.018 A 
HETATM   10  N   UNL     1     -43.280 -54.318  13.001  1.00  0.00    -0.357 N 
HETATM   11  C   UNL     1     -44.116 -54.561  13.989  1.00  0.00     0.046 A 
ATOM     12  HN  UNL     1     -43.525 -54.327  12.011  1.00  0.00     0.166 HD
HETATM   13  C   UNL     1     -45.553 -54.904  13.815  1.00  0.00     0.076 C 
HETATM   14  S   UNL     1     -43.446 -54.456  15.568  1.00  0.00    -0.087 SA
HETATM   15  C   UNL     1     -41.924 -54.078  14.882  1.00  0.00     0.076 A 
ENDBRANCH   8   9
ENDBRANCH   7   8
ENDBRANCH   1   7
BRANCH   4  16
HETATM   16  C   UNL     1     -41.557 -48.049  10.479  1.00  0.00     0.156 C 
BRANCH  16  17
HETATM   17  C   UNL     1     -42.764 -47.378   9.823  1.00  0.00     0.139 C 
HETATM   18  C   UNL     1     -44.077 -47.451  10.589  1.00  0.00     0.035 C 
HETATM   19  C   UNL     1     -45.138 -47.501   9.504  1.00  0.00     0.029 C 
HETATM   20  C   UNL     1     -44.363 -47.494   8.202  1.00  0.00     0.168 C 
HETATM   21  O   UNL     1     -43.049 -47.958   8.536  1.00  0.00    -0.384 OA
ENDBRANCH  16  17
ENDBRANCH   4  16
TORSDOF 5
ENDMDL
MODEL 5
REMARK VINA RESULT:      -5.3      2.489      5.692
REMARK  5 active torsions:
REMARK  status: ('A' for Active; 'I' for Inactive)
REMARK    1  A    between atoms: C_5  and  C_6 
REMARK    2  A    between atoms: C_6  and  C_7 
REMARK    3  A    between atoms: C_7  and  N_8 
REMARK       I    between atoms: N_8  and  C_9 
REMARK       I    between atoms: C_9  and  N_11 
REMARK    4  A    between atoms: N_11  and  C_12 
REMARK    5  A    between atoms: C_12  and  C_13 
ROOT
HETATM    1  N   UNL     1     -41.036 -52.705  11.824  1.00  0.00    -0.343 N 
HETATM    2  C   UNL     1     -40.876 -51.377  12.106  1.00  0.00     0.316 C 
HETATM    3  O   UNL     1     -40.864 -50.931  13.246  1.00  0.00    -0.247 OA
HETATM    4  N   UNL     1     -40.705 -50.614  10.989  1.00  0.00    -0.341 N 
HETATM    5  H   UNL     1     -41.061 -53.010  10.863  1.00  0.00     0.164 HD
HETATM    6  H   UNL     1     -40.859 -51.008  10.072  1.00  0.00     0.164 HD
ENDROOT
BRANCH   1   7
HETATM    7  C   UNL     1     -41.161 -53.699  12.876  1.00  0.00     0.130 C 
BRANCH   7   8
HETATM    8  C   UNL     1     -42.555 -54.323  12.969  1.00  0.00     0.077 C 
BRANCH   8   9
HETATM    9  C   UNL     1     -43.609 -53.321  13.321  1.00  0.00     0.018 A 
HETATM   10  N   UNL     1     -44.622 -53.062  12.410  1.00  0.00    -0.357 N 
HETATM   11  C   UNL     1     -45.453 -52.167  12.901  1.00  0.00     0.046 A 
ATOM     12  HN  UNL     1     -44.709 -53.501  11.494  1.00  0.00     0.166 HD
HETATM   13  C   UNL     1     -46.665 -51.664  12.200  1.00  0.00     0.076 C 
HETATM   14  S   UNL     1     -45.058 -51.569  14.464  1.00  0.00    -0.087 SA
HETATM   15  C   UNL     1     -43.688 -52.595  14.495  1.00  0.00     0.076 A 
ENDBRANCH   8   9
ENDBRANCH   7   8
ENDBRANCH   1   7
BRANCH   4  16
HETATM   16  C   UNL     1     -40.393 -49.196  11.071  1.00  0.00     0.156 C 
BRANCH  16  17
HETATM   17  C   UNL     1     -41.509 -48.282  10.564  1.00  0.00     0.139 C 
HETATM   18  C   UNL     1     -41.247 -46.785  10.650  1.00  0.00     0.035 C 
HETATM   19  C   UNL     1     -42.620 -46.182  10.893  1.00  0.00     0.029 C 
HETATM   20  C   UNL     1     -43.558 -47.369  10.969  1.00  0.00     0.168 C 
HETATM   21  O   UNL     1     -42.730 -48.491  11.298  1.00  0.00    -0.384 OA
ENDBRANCH  16  17
ENDBRANCH   4  16
TORSDOF 5
ENDMDL
MODEL 6
REMARK VINA RESULT:      -5.2      3.290      6.710
REMARK  5 active torsions:
REMARK  status: ('A' for Active; 'I' for Inactive)
REMARK    1  A    between atoms: C_5  and  C_6 
REMARK    2  A    between atoms: C_6  and  C_7 
REMARK    3  A    between atoms: C_7  and  N_8 
REMARK       I    between atoms: N_8  and  C_9 
REMARK       I    between atoms: C_9  and  N_11 
REMARK    4  A    between atoms: N_11  and  C_12 
REMARK    5  A    between atoms: C_12  and  C_13 
ROOT
HETATM    1  N   UNL     1     -40.548 -50.665  11.273  1.00  0.00    -0.343 N 
HETATM    2  C   UNL     1     -41.359 -49.571  11.395  1.00  0.00     0.316 C 
HETATM    3  O   UNL     1     -42.075 -49.373  12.368  1.00  0.00    -0.247 OA
HETATM    4  N   UNL     1     -41.263 -48.718  10.336  1.00  0.00    -0.341 N 
HETATM    5  H   UNL     1     -39.998 -50.785  10.436  1.00  0.00     0.164 HD
HETATM    6  H   UNL     1     -40.765 -48.993   9.502  1.00  0.00     0.164 HD
ENDROOT
BRANCH   1   7
HETATM    7  C   UNL     1     -40.446 -51.661  12.326  1.00  0.00     0.130 C 
BRANCH   7   8
HETATM    8  C   UNL     1     -41.323 -52.893  12.092  1.00  0.00     0.077 C 
BRANCH   8   9
HETATM    9  C   UNL     1     -42.583 -52.862  12.898  1.00  0.00     0.018 A 
HETATM   10  N   UNL     1     -43.653 -52.107  12.442  1.00  0.00    -0.357 N 
HETATM   11  C   UNL     1     -44.667 -52.213  13.274  1.00  0.00     0.046 A 
ATOM     12  HN  UNL     1     -43.653 -51.549  11.588  1.00  0.00     0.166 HD
HETATM   13  C   UNL     1     -45.985 -51.548  13.092  1.00  0.00     0.076 C 
HETATM   14  S   UNL     1     -44.391 -53.200  14.655  1.00  0.00    -0.087 SA
HETATM   15  C   UNL     1     -42.808 -53.524  14.089  1.00  0.00     0.076 A 
ENDBRANCH   8   9
ENDBRANCH   7   8
ENDBRANCH   1   7
BRANCH   4  16
HETATM   16  C   UNL     1     -41.944 -47.434  10.322  1.00  0.00     0.156 C 
BRANCH  16  17
HETATM   17  C   UNL     1     -41.190 -46.320  11.048  1.00  0.00     0.139 C 
HETATM   18  C   UNL     1     -42.041 -45.290  11.777  1.00  0.00     0.035 C 
HETATM   19  C   UNL     1     -41.242 -44.004  11.670  1.00  0.00     0.029 C 
HETATM   20  C   UNL     1     -40.017 -44.374  10.859  1.00  0.00     0.168 C 
HETATM   21  O   UNL     1     -40.380 -45.556  10.135  1.00  0.00    -0.384 OA
ENDBRANCH  16  17
ENDBRANCH   4  16
TORSDOF 5
ENDMDL
MODEL 7
REMARK VINA RESULT:      -5.1      1.811      2.408
REMARK  5 active torsions:
REMARK  status: ('A' for Active; 'I' for Inactive)
REMARK    1  A    between atoms: C_5  and  C_6 
REMARK    2  A    between atoms: C_6  and  C_7 
REMARK    3  A    between atoms: C_7  and  N_8 
REMARK       I    between atoms: N_8  and  C_9 
REMARK       I    between atoms: C_9  and  N_11 
REMARK    4  A    between atoms: N_11  and  C_12 
REMARK    5  A    between atoms: C_12  and  C_13 
ROOT
HETATM    1  N   UNL     1     -42.359 -50.098  11.789  1.00  0.00    -0.343 N 
HETATM    2  C   UNL     1     -41.784 -51.146  12.452  1.00  0.00     0.316 C 
HETATM    3  O   UNL     1     -40.768 -51.036  13.127  1.00  0.00    -0.247 OA
HETATM    4  N   UNL     1     -42.474 -52.312  12.302  1.00  0.00    -0.341 N 
HETATM    5  H   UNL     1     -43.182 -50.256  11.228  1.00  0.00     0.164 HD
HETATM    6  H   UNL     1     -43.223 -52.380  11.628  1.00  0.00     0.164 HD
ENDROOT
BRANCH   1   7
HETATM    7  C   UNL     1     -41.821 -48.751  11.878  1.00  0.00     0.130 C 
BRANCH   7   8
HETATM    8  C   UNL     1     -41.523 -48.118  10.517  1.00  0.00     0.077 C 
BRANCH   8   9
HETATM    9  C   UNL     1     -42.711 -47.415   9.939  1.00  0.00     0.018 A 
HETATM   10  N   UNL     1     -43.866 -48.141   9.693  1.00  0.00    -0.357 N 
HETATM   11  C   UNL     1     -44.797 -47.352   9.199  1.00  0.00     0.046 A 
ATOM     12  HN  UNL     1     -43.978 -49.139   9.868  1.00  0.00     0.166 HD
HETATM   13  C   UNL     1     -46.171 -47.791   8.831  1.00  0.00     0.076 C 
HETATM   14  S   UNL     1     -44.336 -45.711   8.979  1.00  0.00    -0.087 SA
HETATM   15  C   UNL     1     -42.787 -46.076   9.609  1.00  0.00     0.076 A 
ENDBRANCH   8   9
ENDBRANCH   7   8
ENDBRANCH   1   7
BRANCH   4  16
HETATM   16  C   UNL     1     -42.105 -53.519  13.024  1.00  0.00     0.156 C 
BRANCH  16  17
HETATM   17  C   UNL     1     -43.268 -54.183  13.764  1.00  0.00     0.139 C 
HETATM   18  C   UNL     1     -44.583 -54.280  13.006  1.00  0.00     0.035 C 
HETATM   19  C   UNL     1     -45.644 -54.170  14.087  1.00  0.00     0.029 C 
HETATM   20  C   UNL     1     -44.868 -53.978  15.375  1.00  0.00     0.168 C 
HETATM   21  O   UNL     1     -43.587 -53.476  14.978  1.00  0.00    -0.384 OA
ENDBRANCH  16  17
ENDBRANCH   4  16
TORSDOF 5
ENDMDL
MODEL 8
REMARK VINA RESULT:      -5.1      2.395      3.037
REMARK  5 active torsions:
REMARK  status: ('A' for Active; 'I' for Inactive)
REMARK    1  A    between atoms: C_5  and  C_6 
REMARK    2  A    between atoms: C_6  and  C_7 
REMARK    3  A    between atoms: C_7  and  N_8 
REMARK       I    between atoms: N_8  and  C_9 
REMARK       I    between atoms: C_9  and  N_11 
REMARK    4  A    between atoms: N_11  and  C_12 
REMARK    5  A    between atoms: C_12  and  C_13 
ROOT
HETATM    1  N   UNL     1     -41.406 -51.320  11.481  1.00  0.00    -0.343 N 
HETATM    2  C   UNL     1     -41.950 -52.343  12.206  1.00  0.00     0.316 C 
HETATM    3  O   UNL     1     -41.369 -52.890  13.135  1.00  0.00    -0.247 OA
HETATM    4  N   UNL     1     -43.210 -52.669  11.802  1.00  0.00    -0.341 N 
HETATM    5  H   UNL     1     -41.924 -50.926  10.711  1.00  0.00     0.164 HD
HETATM    6  H   UNL     1     -43.589 -52.284  10.949  1.00  0.00     0.164 HD
ENDROOT
BRANCH   1   7
HETATM    7  C   UNL     1     -40.097 -50.773  11.798  1.00  0.00     0.130 C 
BRANCH   7   8
HETATM    8  C   UNL     1     -39.967 -49.279  11.492  1.00  0.00     0.077 C 
BRANCH   8   9
HETATM    9  C   UNL     1     -39.255 -48.532  12.575  1.00  0.00     0.018 A 
HETATM   10  N   UNL     1     -39.700 -47.266  12.923  1.00  0.00    -0.357 N 
HETATM   11  C   UNL     1     -38.959 -46.778  13.896  1.00  0.00     0.046 A 
ATOM     12  HN  UNL     1     -40.487 -46.784  12.489  1.00  0.00     0.166 HD
HETATM   13  C   UNL     1     -39.162 -45.447  14.528  1.00  0.00     0.076 C 
HETATM   14  S   UNL     1     -37.677 -47.792  14.428  1.00  0.00    -0.087 SA
HETATM   15  C   UNL     1     -38.160 -48.977  13.292  1.00  0.00     0.076 A 
ENDBRANCH   8   9
ENDBRANCH   7   8
ENDBRANCH   1   7
BRANCH   4  16
HETATM   16  C   UNL     1     -44.017 -53.643  12.518  1.00  0.00     0.156 C 
BRANCH  16  17
HETATM   17  C   UNL     1     -45.392 -53.124  12.942  1.00  0.00     0.139 C 
HETATM   18  C   UNL     1     -45.522 -51.618  13.114  1.00  0.00     0.035 C 
HETATM   19  C   UNL     1     -46.545 -51.458  14.224  1.00  0.00     0.029 C 
HETATM   20  C   UNL     1     -46.896 -52.873  14.637  1.00  0.00     0.168 C 
HETATM   21  O   UNL     1     -45.793 -53.681  14.208  1.00  0.00    -0.384 OA
ENDBRANCH  16  17
ENDBRANCH   4  16
TORSDOF 5
ENDMDL
MODEL 9
REMARK VINA RESULT:      -5.1      2.972      4.164
REMARK  5 active torsions:
REMARK  status: ('A' for Active; 'I' for Inactive)
REMARK    1  A    between atoms: C_5  and  C_6 
REMARK    2  A    between atoms: C_6  and  C_7 
REMARK    3  A    between atoms: C_7  and  N_8 
REMARK       I    between atoms: N_8  and  C_9 
REMARK       I    between atoms: C_9  and  N_11 
REMARK    4  A    between atoms: N_11  and  C_12 
REMARK    5  A    between atoms: C_12  and  C_13 
ROOT
HETATM    1  N   UNL     1     -40.927 -50.834  11.290  1.00  0.00    -0.343 N 
HETATM    2  C   UNL     1     -41.282 -51.901  12.066  1.00  0.00     0.316 C 
HETATM    3  O   UNL     1     -40.550 -52.383  12.921  1.00  0.00    -0.247 OA
HETATM    4  N   UNL     1     -42.543 -52.351  11.805  1.00  0.00    -0.341 N 
HETATM    5  H   UNL     1     -41.564 -50.497  10.585  1.00  0.00     0.164 HD
HETATM    6  H   UNL     1     -43.051 -52.011  11.002  1.00  0.00     0.164 HD
ENDROOT
BRANCH   1   7
HETATM    7  C   UNL     1     -39.651 -50.159  11.460  1.00  0.00     0.130 C 
BRANCH   7   8
HETATM    8  C   UNL     1     -39.716 -48.949  12.394  1.00  0.00     0.077 C 
BRANCH   8   9
HETATM    9  C   UNL     1     -38.839 -49.105  13.596  1.00  0.00     0.018 A 
HETATM   10  N   UNL     1     -38.995 -50.221  14.403  1.00  0.00    -0.357 N 
HETATM   11  C   UNL     1     -38.132 -50.186  15.396  1.00  0.00     0.046 A 
ATOM     12  HN  UNL     1     -39.680 -50.962  14.249  1.00  0.00     0.166 HD
HETATM   13  C   UNL     1     -38.007 -51.231  16.447  1.00  0.00     0.076 C 
HETATM   14  S   UNL     1     -37.106 -48.807  15.434  1.00  0.00    -0.087 SA
HETATM   15  C   UNL     1     -37.855 -48.227  14.009  1.00  0.00     0.076 A 
ENDBRANCH   8   9
ENDBRANCH   7   8
ENDBRANCH   1   7
BRANCH   4  16
HETATM   16  C   UNL     1     -43.164 -53.396  12.602  1.00  0.00     0.156 C 
BRANCH  16  17
HETATM   17  C   UNL     1     -44.401 -52.937  13.377  1.00  0.00     0.139 C 
HETATM   18  C   UNL     1     -45.663 -52.708  12.559  1.00  0.00     0.035 C 
HETATM   19  C   UNL     1     -46.376 -51.580  13.285  1.00  0.00     0.029 C 
HETATM   20  C   UNL     1     -45.458 -51.217  14.435  1.00  0.00     0.168 C 
HETATM   21  O   UNL     1     -44.160 -51.688  14.053  1.00  0.00    -0.384 OA
ENDBRANCH  16  17
ENDBRANCH   4  16
TORSDOF 5
ENDMDL
