MODEL 1
REMARK VINA RESULT:      -5.8      0.000      0.000
REMARK  8 active torsions:
REMARK  status: ('A' for Active; 'I' for Inactive)
REMARK    1  A    between atoms: C_2  and  N_3 
REMARK    2  A    between atoms: N_3  and  C_4 
REMARK    3  A    between atoms: N_3  and  C_11 
REMARK    4  A    between atoms: C_4  and  C_5 
REMARK    5  A    between atoms: C_12  and  N_13 
REMARK    6  A    between atoms: N_14  and  C_15 
REMARK    7  A    between atoms: C_15  and  C_16 
REMARK    8  A    between atoms: C_16  and  O_17 
ROOT
HETATM    1  C   UNL     1     -41.678 -49.319  11.991  1.00  0.00     0.138 A 
HETATM    2  C   UNL     1     -42.474 -48.365  11.449  1.00  0.00     0.116 A 
HETATM    3  N   UNL     1     -41.952 -47.155  11.003  1.00  0.00    -0.286 N 
HETATM    4  C   UNL     1     -40.581 -46.914  10.970  1.00  0.00     0.330 A 
HETATM    5  O   UNL     1     -40.052 -45.897  10.518  1.00  0.00    -0.246 OA
HETATM    6  N   UNL     1     -39.782 -47.899  11.473  1.00  0.00    -0.273 N 
HETATM    7  C   UNL     1     -40.201 -49.058  12.048  1.00  0.00     0.279 A 
HETATM    8  O   UNL     1     -39.408 -49.839  12.570  1.00  0.00    -0.265 OA
HETATM    9  H   UNL     1     -38.790 -47.715  11.469  1.00  0.00     0.173 HD
ENDROOT
BRANCH   1  10
HETATM   10  N   UNL     1     -42.203 -50.501  12.570  1.00  0.00    -0.370 N 
BRANCH  10  11
HETATM   11  C   UNL     1     -41.879 -51.809  11.972  1.00  0.00     0.119 C 
HETATM   12  C   UNL     1     -41.289 -52.812  12.954  1.00  0.00     0.026 C 
ENDBRANCH  10  11
BRANCH  10  13
HETATM   13  C   UNL     1     -42.499 -50.497  14.019  1.00  0.00     0.161 C 
BRANCH  13  14
HETATM   14  C   UNL     1     -43.974 -50.710  14.308  1.00  0.00    -0.040 A 
HETATM   15  C   UNL     1     -44.842 -51.116  13.284  1.00  0.00     0.009 A 
HETATM   16  C   UNL     1     -46.166 -51.463  13.564  1.00  0.00     0.001 A 
HETATM   17  C   UNL     1     -46.645 -51.398  14.870  1.00  0.00     0.000 A 
HETATM   18  C   UNL     1     -45.803 -50.976  15.896  1.00  0.00     0.001 A 
HETATM   19  C   UNL     1     -44.475 -50.638  15.618  1.00  0.00     0.009 A 
ENDBRANCH  13  14
ENDBRANCH  10  13
ENDBRANCH   1  10
BRANCH   2  20
HETATM   20  N   UNL     1     -43.847 -48.637  11.390  1.00  0.00    -0.286 NA
HETATM   21  H   UNL     1     -43.940 -49.606  11.062  1.00  0.00     0.125 HD
HETATM   22  H   UNL     1     -44.208 -48.662  12.337  1.00  0.00     0.125 HD
ENDBRANCH   2  20
BRANCH   3  23
HETATM   23  C   UNL     1     -42.825 -46.127  10.409  1.00  0.00     0.161 C 
BRANCH  23  24
HETATM   24  C   UNL     1     -43.117 -46.231   8.903  1.00  0.00     0.187 C 
BRANCH  24  25
HETATM   25  O   UNL     1     -44.031 -47.287   8.601  1.00  0.00    -0.394 OA
HETATM   26  C   UNL     1     -43.555 -48.084   7.519  1.00  0.00     0.201 C 
ENDBRANCH  24  25
ENDBRANCH  23  24
ENDBRANCH   3  23
TORSDOF 8
ENDMDL
MODEL 2
REMARK VINA RESULT:      -5.8      2.580      5.922
REMARK  8 active torsions:
REMARK  status: ('A' for Active; 'I' for Inactive)
REMARK    1  A    between atoms: C_2  and  N_3 
REMARK    2  A    between atoms: N_3  and  C_4 
REMARK    3  A    between atoms: N_3  and  C_11 
REMARK    4  A    between atoms: C_4  and  C_5 
REMARK    5  A    between atoms: C_12  and  N_13 
REMARK    6  A    between atoms: N_14  and  C_15 
REMARK    7  A    between atoms: C_15  and  C_16 
REMARK    8  A    between atoms: C_16  and  O_17 
ROOT
HETATM    1  C   UNL     1     -41.575 -49.749  12.050  1.00  0.00     0.138 A 
HETATM    2  C   UNL     1     -42.473 -50.649  12.519  1.00  0.00     0.116 A 
HETATM    3  N   UNL     1     -42.124 -51.980  12.724  1.00  0.00    -0.286 N 
HETATM    4  C   UNL     1     -40.812 -52.426  12.582  1.00  0.00     0.330 A 
HETATM    5  O   UNL     1     -40.424 -53.570  12.821  1.00  0.00    -0.246 OA
HETATM    6  N   UNL     1     -39.903 -51.502  12.156  1.00  0.00    -0.273 N 
HETATM    7  C   UNL     1     -40.169 -50.215  11.806  1.00  0.00     0.279 A 
HETATM    8  O   UNL     1     -39.301 -49.485  11.331  1.00  0.00    -0.265 OA
HETATM    9  H   UNL     1     -38.957 -51.830  12.032  1.00  0.00     0.173 HD
ENDROOT
BRANCH   1  10
HETATM   10  N   UNL     1     -41.942 -48.423  11.711  1.00  0.00    -0.370 N 
BRANCH  10  11
HETATM   11  C   UNL     1     -41.667 -47.328  12.659  1.00  0.00     0.119 C 
HETATM   12  C   UNL     1     -42.896 -46.832  13.409  1.00  0.00     0.026 C 
ENDBRANCH  10  11
BRANCH  10  13
HETATM   13  C   UNL     1     -41.987 -48.055  10.280  1.00  0.00     0.161 C 
BRANCH  13  14
HETATM   14  C   UNL     1     -43.266 -47.325   9.910  1.00  0.00    -0.040 A 
HETATM   15  C   UNL     1     -43.209 -46.025   9.386  1.00  0.00     0.009 A 
HETATM   16  C   UNL     1     -44.360 -45.399   8.899  1.00  0.00     0.001 A 
HETATM   17  C   UNL     1     -45.586 -46.059   8.940  1.00  0.00     0.000 A 
HETATM   18  C   UNL     1     -45.664 -47.341   9.477  1.00  0.00     0.001 A 
HETATM   19  C   UNL     1     -44.511 -47.972   9.955  1.00  0.00     0.009 A 
ENDBRANCH  13  14
ENDBRANCH  10  13
ENDBRANCH   1  10
BRANCH   2  20
HETATM   20  N   UNL     1     -43.774 -50.188  12.756  1.00  0.00    -0.286 NA
HETATM   21  H   UNL     1     -43.688 -49.360  13.358  1.00  0.00     0.125 HD
HETATM   22  H   UNL     1     -44.146 -49.822  11.886  1.00  0.00     0.125 HD
ENDBRANCH   2  20
BRANCH   3  23
HETATM   23  C   UNL     1     -43.105 -52.949  13.240  1.00  0.00     0.161 C 
BRANCH  23  24
HETATM   24  C   UNL     1     -43.982 -53.685  12.213  1.00  0.00     0.187 C 
BRANCH  24  25
HETATM   25  O   UNL     1     -45.251 -54.058  12.753  1.00  0.00    -0.394 OA
HETATM   26  C   UNL     1     -45.096 -54.889  13.900  1.00  0.00     0.201 C 
ENDBRANCH  24  25
ENDBRANCH  23  24
ENDBRANCH   3  23
TORSDOF 8
ENDMDL
MODEL 3
REMARK VINA RESULT:      -5.7      3.129      3.940
REMARK  8 active torsions:
REMARK  status: ('A' for Active; 'I' for Inactive)
REMARK    1  A    between atoms: C_2  and  N_3 
REMARK    2  A    between atoms: N_3  and  C_4 
REMARK    3  A    between atoms: N_3  and  C_11 
REMARK    4  A    between atoms: C_4  and  C_5 
REMARK    5  A    between atoms: C_12  and  N_13 
REMARK    6  A    between atoms: N_14  and  C_15 
REMARK    7  A    between atoms: C_15  and  C_16 
REMARK    8  A    between atoms: C_16  and  O_17 
ROOT
HETATM    1  C   UNL     1     -39.999 -48.033  11.985  1.00  0.00     0.138 A 
HETATM    2  C   UNL     1     -40.914 -48.154  10.992  1.00  0.00     0.116 A 
HETATM    3  N   UNL     1     -41.665 -47.064  10.564  1.00  0.00    -0.286 N 
HETATM    4  C   UNL     1     -41.428 -45.777  11.037  1.00  0.00     0.330 A 
HETATM    5  O   UNL     1     -42.004 -44.761  10.644  1.00  0.00    -0.246 OA
HETATM    6  N   UNL     1     -40.472 -45.654  12.002  1.00  0.00    -0.273 N 
HETATM    7  C   UNL     1     -39.776 -46.672  12.578  1.00  0.00     0.279 A 
HETATM    8  O   UNL     1     -39.008 -46.474  13.518  1.00  0.00    -0.265 OA
HETATM    9  H   UNL     1     -40.315 -44.725  12.361  1.00  0.00     0.173 HD
ENDROOT
BRANCH   1  10
HETATM   10  N   UNL     1     -39.318 -49.152  12.525  1.00  0.00    -0.370 N 
BRANCH  10  11
HETATM   11  C   UNL     1     -37.857 -49.260  12.366  1.00  0.00     0.119 C 
HETATM   12  C   UNL     1     -37.422 -49.996  11.106  1.00  0.00     0.026 C 
ENDBRANCH  10  11
BRANCH  10  13
HETATM   13  C   UNL     1     -39.900 -49.817  13.711  1.00  0.00     0.161 C 
BRANCH  13  14
HETATM   14  C   UNL     1     -39.877 -51.331  13.594  1.00  0.00    -0.040 A 
HETATM   15  C   UNL     1     -39.053 -52.090  14.438  1.00  0.00     0.009 A 
HETATM   16  C   UNL     1     -39.133 -53.485  14.449  1.00  0.00     0.001 A 
HETATM   17  C   UNL     1     -40.029 -54.142  13.609  1.00  0.00     0.000 A 
HETATM   18  C   UNL     1     -40.838 -53.404  12.749  1.00  0.00     0.001 A 
HETATM   19  C   UNL     1     -40.767 -52.008  12.744  1.00  0.00     0.009 A 
ENDBRANCH  13  14
ENDBRANCH  10  13
ENDBRANCH   1  10
BRANCH   2  20
HETATM   20  N   UNL     1     -41.092 -49.430  10.441  1.00  0.00    -0.286 NA
HETATM   21  H   UNL     1     -40.286 -49.600   9.828  1.00  0.00     0.125 HD
HETATM   22  H   UNL     1     -40.987 -50.114  11.183  1.00  0.00     0.125 HD
ENDBRANCH   2  20
BRANCH   3  23
HETATM   23  C   UNL     1     -42.652 -47.205   9.479  1.00  0.00     0.161 C 
BRANCH  23  24
HETATM   24  C   UNL     1     -44.117 -47.442   9.882  1.00  0.00     0.187 C 
BRANCH  24  25
HETATM   25  O   UNL     1     -44.984 -47.520   8.749  1.00  0.00    -0.394 OA
HETATM   26  C   UNL     1     -46.312 -47.132   9.091  1.00  0.00     0.201 C 
ENDBRANCH  24  25
ENDBRANCH  23  24
ENDBRANCH   3  23
TORSDOF 8
ENDMDL
MODEL 4
REMARK VINA RESULT:      -5.7      2.210      3.572
REMARK  8 active torsions:
REMARK  status: ('A' for Active; 'I' for Inactive)
REMARK    1  A    between atoms: C_2  and  N_3 
REMARK    2  A    between atoms: N_3  and  C_4 
REMARK    3  A    between atoms: N_3  and  C_11 
REMARK    4  A    between atoms: C_4  and  C_5 
REMARK    5  A    between atoms: C_12  and  N_13 
REMARK    6  A    between atoms: N_14  and  C_15 
REMARK    7  A    between atoms: C_15  and  C_16 
REMARK    8  A    between atoms: C_16  and  O_17 
ROOT
HETATM    1  C   UNL     1     -41.629 -46.845  11.506  1.00  0.00     0.138 A 
HETATM    2  C   UNL     1     -42.071 -47.311  10.312  1.00  0.00     0.116 A 
HETATM    3  N   UNL     1     -42.935 -46.564   9.519  1.00  0.00    -0.286 N 
HETATM    4  C   UNL     1     -43.288 -45.257   9.845  1.00  0.00     0.330 A 
HETATM    5  O   UNL     1     -43.985 -44.518   9.149  1.00  0.00    -0.246 OA
HETATM    6  N   UNL     1     -42.800 -44.776  11.025  1.00  0.00    -0.273 N 
HETATM    7  C   UNL     1     -42.056 -45.470  11.929  1.00  0.00     0.279 A 
HETATM    8  O   UNL     1     -41.751 -44.985  13.017  1.00  0.00    -0.265 OA
HETATM    9  H   UNL     1     -43.072 -43.837  11.272  1.00  0.00     0.173 HD
ENDROOT
BRANCH   1  10
HETATM   10  N   UNL     1     -40.855 -47.640  12.387  1.00  0.00    -0.370 N 
BRANCH  10  11
HETATM   11  C   UNL     1     -39.395 -47.447  12.447  1.00  0.00     0.119 C 
HETATM   12  C   UNL     1     -38.795 -47.670  13.829  1.00  0.00     0.026 C 
ENDBRANCH  10  11
BRANCH  10  13
HETATM   13  C   UNL     1     -41.500 -48.150  13.616  1.00  0.00     0.161 C 
BRANCH  13  14
HETATM   14  C   UNL     1     -42.083 -49.539  13.430  1.00  0.00    -0.040 A 
HETATM   15  C   UNL     1     -43.447 -49.769  13.671  1.00  0.00     0.009 A 
HETATM   16  C   UNL     1     -44.030 -51.000  13.359  1.00  0.00     0.001 A 
HETATM   17  C   UNL     1     -43.258 -52.022  12.811  1.00  0.00     0.000 A 
HETATM   18  C   UNL     1     -41.899 -51.817  12.586  1.00  0.00     0.001 A 
HETATM   19  C   UNL     1     -41.316 -50.583  12.889  1.00  0.00     0.009 A 
ENDBRANCH  13  14
ENDBRANCH  10  13
ENDBRANCH   1  10
BRANCH   2  20
HETATM   20  N   UNL     1     -41.645 -48.590   9.930  1.00  0.00    -0.286 NA
HETATM   21  H   UNL     1     -40.630 -48.619  10.080  1.00  0.00     0.125 HD
HETATM   22  H   UNL     1     -42.012 -49.260  10.596  1.00  0.00     0.125 HD
ENDBRANCH   2  20
BRANCH   3  23
HETATM   23  C   UNL     1     -43.405 -47.077   8.220  1.00  0.00     0.161 C 
BRANCH  23  24
HETATM   24  C   UNL     1     -44.709 -47.893   8.210  1.00  0.00     0.187 C 
BRANCH  24  25
HETATM   25  O   UNL     1     -45.480 -47.694   9.396  1.00  0.00    -0.394 OA
HETATM   26  C   UNL     1     -46.764 -47.157   9.089  1.00  0.00     0.201 C 
ENDBRANCH  24  25
ENDBRANCH  23  24
ENDBRANCH   3  23
TORSDOF 8
ENDMDL
MODEL 5
REMARK VINA RESULT:      -5.6      2.936      6.357
REMARK  8 active torsions:
REMARK  status: ('A' for Active; 'I' for Inactive)
REMARK    1  A    between atoms: C_2  and  N_3 
REMARK    2  A    between atoms: N_3  and  C_4 
REMARK    3  A    between atoms: N_3  and  C_11 
REMARK    4  A    between atoms: C_4  and  C_5 
REMARK    5  A    between atoms: C_12  and  N_13 
REMARK    6  A    between atoms: N_14  and  C_15 
REMARK    7  A    between atoms: C_15  and  C_16 
REMARK    8  A    between atoms: C_16  and  O_17 
ROOT
HETATM    1  C   UNL     1     -41.903 -51.435  12.856  1.00  0.00     0.138 A 
HETATM    2  C   UNL     1     -43.192 -51.079  13.079  1.00  0.00     0.116 A 
HETATM    3  N   UNL     1     -44.233 -51.986  12.909  1.00  0.00    -0.286 N 
HETATM    4  C   UNL     1     -43.999 -53.330  12.629  1.00  0.00     0.330 A 
HETATM    5  O   UNL     1     -44.870 -54.197  12.543  1.00  0.00    -0.246 OA
HETATM    6  N   UNL     1     -42.695 -53.692  12.455  1.00  0.00    -0.273 N 
HETATM    7  C   UNL     1     -41.620 -52.858  12.471  1.00  0.00     0.279 A 
HETATM    8  O   UNL     1     -40.491 -53.260  12.197  1.00  0.00    -0.265 OA
HETATM    9  H   UNL     1     -42.527 -54.661  12.231  1.00  0.00     0.173 HD
ENDROOT
BRANCH   1  10
HETATM   10  N   UNL     1     -40.843 -50.496  12.896  1.00  0.00    -0.370 N 
BRANCH  10  11
HETATM   11  C   UNL     1     -39.921 -50.489  14.046  1.00  0.00     0.119 C 
HETATM   12  C   UNL     1     -38.461 -50.706  13.673  1.00  0.00     0.026 C 
ENDBRANCH  10  11
BRANCH  10  13
HETATM   13  C   UNL     1     -40.294 -50.009  11.612  1.00  0.00     0.161 C 
BRANCH  13  14
HETATM   14  C   UNL     1     -40.664 -48.563  11.337  1.00  0.00    -0.040 A 
HETATM   15  C   UNL     1     -39.786 -47.529  11.698  1.00  0.00     0.009 A 
HETATM   16  C   UNL     1     -40.039 -46.209  11.316  1.00  0.00     0.001 A 
HETATM   17  C   UNL     1     -41.179 -45.901  10.578  1.00  0.00     0.000 A 
HETATM   18  C   UNL     1     -42.073 -46.911  10.231  1.00  0.00     0.001 A 
HETATM   19  C   UNL     1     -41.815 -48.234  10.603  1.00  0.00     0.009 A 
ENDBRANCH  13  14
ENDBRANCH  10  13
ENDBRANCH   1  10
BRANCH   2  20
HETATM   20  N   UNL     1     -43.431 -49.750  13.454  1.00  0.00    -0.286 NA
HETATM   21  H   UNL     1     -44.038 -49.346  12.732  1.00  0.00     0.125 HD
HETATM   22  H   UNL     1     -44.009 -49.755  14.288  1.00  0.00     0.125 HD
ENDBRANCH   2  20
BRANCH   3  23
HETATM   23  C   UNL     1     -45.630 -51.591  13.160  1.00  0.00     0.161 C 
BRANCH  23  24
HETATM   24  C   UNL     1     -46.129 -51.640  14.615  1.00  0.00     0.187 C 
BRANCH  24  25
HETATM   25  O   UNL     1     -46.817 -52.856  14.909  1.00  0.00    -0.394 OA
HETATM   26  C   UNL     1     -46.068 -53.664  15.814  1.00  0.00     0.201 C 
ENDBRANCH  24  25
ENDBRANCH  23  24
ENDBRANCH   3  23
TORSDOF 8
ENDMDL
MODEL 6
REMARK VINA RESULT:      -5.5      3.086      4.361
REMARK  8 active torsions:
REMARK  status: ('A' for Active; 'I' for Inactive)
REMARK    1  A    between atoms: C_2  and  N_3 
REMARK    2  A    between atoms: N_3  and  C_4 
REMARK    3  A    between atoms: N_3  and  C_11 
REMARK    4  A    between atoms: C_4  and  C_5 
REMARK    5  A    between atoms: C_12  and  N_13 
REMARK    6  A    between atoms: N_14  and  C_15 
REMARK    7  A    between atoms: C_15  and  C_16 
REMARK    8  A    between atoms: C_16  and  O_17 
ROOT
HETATM    1  C   UNL     1     -39.238 -51.959  14.170  1.00  0.00     0.138 A 
HETATM    2  C   UNL     1     -39.265 -51.188  13.056  1.00  0.00     0.116 A 
HETATM    3  N   UNL     1     -38.693 -49.920  13.040  1.00  0.00    -0.286 N 
HETATM    4  C   UNL     1     -37.957 -49.432  14.116  1.00  0.00     0.330 A 
HETATM    5  O   UNL     1     -37.363 -48.352  14.136  1.00  0.00    -0.246 OA
HETATM    6  N   UNL     1     -37.893 -50.234  15.218  1.00  0.00    -0.273 N 
HETATM    7  C   UNL     1     -38.523 -51.428  15.379  1.00  0.00     0.279 A 
HETATM    8  O   UNL     1     -38.493 -52.031  16.451  1.00  0.00    -0.265 OA
HETATM    9  H   UNL     1     -37.378 -49.871  16.005  1.00  0.00     0.173 HD
ENDROOT
BRANCH   1  10
HETATM   10  N   UNL     1     -39.925 -53.195  14.250  1.00  0.00    -0.370 N 
BRANCH  10  11
HETATM   11  C   UNL     1     -39.187 -54.453  14.034  1.00  0.00     0.119 C 
HETATM   12  C   UNL     1     -38.929 -55.248  15.306  1.00  0.00     0.026 C 
ENDBRANCH  10  11
BRANCH  10  13
HETATM   13  C   UNL     1     -41.118 -53.277  15.120  1.00  0.00     0.161 C 
BRANCH  13  14
HETATM   14  C   UNL     1     -42.348 -53.759  14.373  1.00  0.00    -0.040 A 
HETATM   15  C   UNL     1     -43.170 -54.748  14.933  1.00  0.00     0.009 A 
HETATM   16  C   UNL     1     -44.384 -55.093  14.333  1.00  0.00     0.001 A 
HETATM   17  C   UNL     1     -44.789 -54.463  13.159  1.00  0.00     0.000 A 
HETATM   18  C   UNL     1     -43.974 -53.494  12.577  1.00  0.00     0.001 A 
HETATM   19  C   UNL     1     -42.764 -53.141  13.182  1.00  0.00     0.009 A 
ENDBRANCH  13  14
ENDBRANCH  10  13
ENDBRANCH   1  10
BRANCH   2  20
HETATM   20  N   UNL     1     -39.921 -51.711  11.934  1.00  0.00    -0.286 NA
HETATM   21  H   UNL     1     -40.070 -52.710  12.120  1.00  0.00     0.125 HD
HETATM   22  H   UNL     1     -40.858 -51.323  11.905  1.00  0.00     0.125 HD
ENDBRANCH   2  20
BRANCH   3  23
HETATM   23  C   UNL     1     -38.721 -49.093  11.821  1.00  0.00     0.161 C 
BRANCH  23  24
HETATM   24  C   UNL     1     -39.978 -48.241  11.573  1.00  0.00     0.187 C 
BRANCH  24  25
HETATM   25  O   UNL     1     -40.967 -48.944  10.819  1.00  0.00    -0.394 OA
HETATM   26  C   UNL     1     -42.159 -48.174  10.693  1.00  0.00     0.201 C 
ENDBRANCH  24  25
ENDBRANCH  23  24
ENDBRANCH   3  23
TORSDOF 8
ENDMDL
MODEL 7
REMARK VINA RESULT:      -5.5      3.081      5.112
REMARK  8 active torsions:
REMARK  status: ('A' for Active; 'I' for Inactive)
REMARK    1  A    between atoms: C_2  and  N_3 
REMARK    2  A    between atoms: N_3  and  C_4 
REMARK    3  A    between atoms: N_3  and  C_11 
REMARK    4  A    between atoms: C_4  and  C_5 
REMARK    5  A    between atoms: C_12  and  N_13 
REMARK    6  A    between atoms: N_14  and  C_15 
REMARK    7  A    between atoms: C_15  and  C_16 
REMARK    8  A    between atoms: C_16  and  O_17 
ROOT
HETATM    1  C   UNL     1     -41.559 -46.940  11.520  1.00  0.00     0.138 A 
HETATM    2  C   UNL     1     -42.042 -47.310  10.309  1.00  0.00     0.116 A 
HETATM    3  N   UNL     1     -42.890 -46.480   9.584  1.00  0.00    -0.286 N 
HETATM    4  C   UNL     1     -43.182 -45.183   9.999  1.00  0.00     0.330 A 
HETATM    5  O   UNL     1     -43.862 -44.374   9.367  1.00  0.00    -0.246 OA
HETATM    6  N   UNL     1     -42.652 -44.799  11.196  1.00  0.00    -0.273 N 
HETATM    7  C   UNL     1     -41.921 -45.578  12.038  1.00  0.00     0.279 A 
HETATM    8  O   UNL     1     -41.575 -45.177  13.148  1.00  0.00    -0.265 OA
HETATM    9  H   UNL     1     -42.881 -43.868  11.508  1.00  0.00     0.173 HD
ENDROOT
BRANCH   1  10
HETATM   10  N   UNL     1     -40.802 -47.820  12.332  1.00  0.00    -0.370 N 
BRANCH  10  11
HETATM   11  C   UNL     1     -41.484 -48.900  13.067  1.00  0.00     0.119 C 
HETATM   12  C   UNL     1     -42.002 -48.487  14.438  1.00  0.00     0.026 C 
ENDBRANCH  10  11
BRANCH  10  13
HETATM   13  C   UNL     1     -39.390 -48.065  11.966  1.00  0.00     0.161 C 
BRANCH  13  14
HETATM   14  C   UNL     1     -38.512 -48.308  13.181  1.00  0.00    -0.040 A 
HETATM   15  C   UNL     1     -38.363 -47.308  14.154  1.00  0.00     0.009 A 
HETATM   16  C   UNL     1     -37.685 -47.568  15.348  1.00  0.00     0.001 A 
HETATM   17  C   UNL     1     -37.137 -48.827  15.583  1.00  0.00     0.000 A 
HETATM   18  C   UNL     1     -37.257 -49.824  14.618  1.00  0.00     0.001 A 
HETATM   19  C   UNL     1     -37.944 -49.568  13.427  1.00  0.00     0.009 A 
ENDBRANCH  13  14
ENDBRANCH  10  13
ENDBRANCH   1  10
BRANCH   2  20
HETATM   20  N   UNL     1     -41.677 -48.578   9.837  1.00  0.00    -0.286 NA
HETATM   21  H   UNL     1     -42.543 -49.122   9.755  1.00  0.00     0.125 HD
HETATM   22  H   UNL     1     -41.356 -48.480   8.879  1.00  0.00     0.125 HD
ENDBRANCH   2  20
BRANCH   3  23
HETATM   23  C   UNL     1     -43.404 -46.889   8.265  1.00  0.00     0.161 C 
BRANCH  23  24
HETATM   24  C   UNL     1     -44.624 -47.826   8.241  1.00  0.00     0.187 C 
BRANCH  24  25
HETATM   25  O   UNL     1     -45.441 -47.680   9.403  1.00  0.00    -0.394 OA
HETATM   26  C   UNL     1     -46.678 -47.046   9.085  1.00  0.00     0.201 C 
ENDBRANCH  24  25
ENDBRANCH  23  24
ENDBRANCH   3  23
TORSDOF 8
ENDMDL
MODEL 8
REMARK VINA RESULT:      -5.4      3.014      4.316
REMARK  8 active torsions:
REMARK  status: ('A' for Active; 'I' for Inactive)
REMARK    1  A    between atoms: C_2  and  N_3 
REMARK    2  A    between atoms: N_3  and  C_4 
REMARK    3  A    between atoms: N_3  and  C_11 
REMARK    4  A    between atoms: C_4  and  C_5 
REMARK    5  A    between atoms: C_12  and  N_13 
REMARK    6  A    between atoms: N_14  and  C_15 
REMARK    7  A    between atoms: C_15  and  C_16 
REMARK    8  A    between atoms: C_16  and  O_17 
ROOT
HETATM    1  C   UNL     1     -42.102 -52.162  13.361  1.00  0.00     0.138 A 
HETATM    2  C   UNL     1     -41.360 -51.623  12.364  1.00  0.00     0.116 A 
HETATM    3  N   UNL     1     -40.917 -50.306  12.423  1.00  0.00    -0.286 N 
HETATM    4  C   UNL     1     -41.101 -49.519  13.557  1.00  0.00     0.330 A 
HETATM    5  O   UNL     1     -40.668 -48.374  13.702  1.00  0.00    -0.246 OA
HETATM    6  N   UNL     1     -41.807 -50.085  14.578  1.00  0.00    -0.273 N 
HETATM    7  C   UNL     1     -42.391 -51.314  14.565  1.00  0.00     0.279 A 
HETATM    8  O   UNL     1     -43.099 -51.698  15.494  1.00  0.00    -0.265 OA
HETATM    9  H   UNL     1     -41.959 -49.508  15.390  1.00  0.00     0.173 HD
ENDROOT
BRANCH   1  10
HETATM   10  N   UNL     1     -42.672 -53.456  13.263  1.00  0.00    -0.370 N 
BRANCH  10  11
HETATM   11  C   UNL     1     -42.387 -54.457  14.308  1.00  0.00     0.119 C 
HETATM   12  C   UNL     1     -40.914 -54.567  14.677  1.00  0.00     0.026 C 
ENDBRANCH  10  11
BRANCH  10  13
HETATM   13  C   UNL     1     -43.959 -53.599  12.551  1.00  0.00     0.161 C 
BRANCH  13  14
HETATM   14  C   UNL     1     -45.137 -53.127  13.384  1.00  0.00    -0.040 A 
HETATM   15  C   UNL     1     -45.598 -53.905  14.457  1.00  0.00     0.009 A 
HETATM   16  C   UNL     1     -46.578 -53.416  15.326  1.00  0.00     0.001 A 
HETATM   17  C   UNL     1     -47.118 -52.148  15.129  1.00  0.00     0.000 A 
HETATM   18  C   UNL     1     -46.688 -51.372  14.055  1.00  0.00     0.001 A 
HETATM   19  C   UNL     1     -45.701 -51.856  13.192  1.00  0.00     0.009 A 
ENDBRANCH  13  14
ENDBRANCH  10  13
ENDBRANCH   1  10
BRANCH   2  20
HETATM   20  N   UNL     1     -41.087 -52.439  11.258  1.00  0.00    -0.286 NA
HETATM   21  H   UNL     1     -40.209 -52.097  10.850  1.00  0.00     0.125 HD
HETATM   22  H   UNL     1     -40.858 -53.367  11.596  1.00  0.00     0.125 HD
ENDBRANCH   2  20
BRANCH   3  23
HETATM   23  C   UNL     1     -40.105 -49.730  11.337  1.00  0.00     0.161 C 
BRANCH  23  24
HETATM   24  C   UNL     1     -38.576 -49.757  11.505  1.00  0.00     0.187 C 
BRANCH  24  25
HETATM   25  O   UNL     1     -38.095 -51.053  11.865  1.00  0.00    -0.394 OA
HETATM   26  C   UNL     1     -37.455 -51.027  13.138  1.00  0.00     0.201 C 
ENDBRANCH  24  25
ENDBRANCH  23  24
ENDBRANCH   3  23
TORSDOF 8
ENDMDL
MODEL 9
REMARK VINA RESULT:      -5.4      2.011      3.388
REMARK  8 active torsions:
REMARK  status: ('A' for Active; 'I' for Inactive)
REMARK    1  A    between atoms: C_2  and  N_3 
REMARK    2  A    between atoms: N_3  and  C_4 
REMARK    3  A    between atoms: N_3  and  C_11 
REMARK    4  A    between atoms: C_4  and  C_5 
REMARK    5  A    between atoms: C_12  and  N_13 
REMARK    6  A    between atoms: N_14  and  C_15 
REMARK    7  A    between atoms: C_15  and  C_16 
REMARK    8  A    between atoms: C_16  and  O_17 
ROOT
HETATM    1  C   UNL     1     -41.214 -48.498  11.817  1.00  0.00     0.138 A 
HETATM    2  C   UNL     1     -42.232 -47.809  11.245  1.00  0.00     0.116 A 
HETATM    3  N   UNL     1     -42.024 -46.563  10.662  1.00  0.00    -0.286 N 
HETATM    4  C   UNL     1     -40.750 -46.020  10.522  1.00  0.00     0.330 A 
HETATM    5  O   UNL     1     -40.492 -44.960   9.950  1.00  0.00    -0.246 OA
HETATM    6  N   UNL     1     -39.724 -46.742  11.058  1.00  0.00    -0.273 N 
HETATM    7  C   UNL     1     -39.838 -47.902  11.758  1.00  0.00     0.279 A 
HETATM    8  O   UNL     1     -38.864 -48.427  12.296  1.00  0.00    -0.265 OA
HETATM    9  H   UNL     1     -38.803 -46.338  10.976  1.00  0.00     0.173 HD
ENDROOT
BRANCH   1  10
HETATM   10  N   UNL     1     -41.425 -49.704  12.528  1.00  0.00    -0.370 N 
BRANCH  10  11
HETATM   11  C   UNL     1     -42.382 -49.730  13.650  1.00  0.00     0.119 C 
HETATM   12  C   UNL     1     -41.817 -49.197  14.960  1.00  0.00     0.026 C 
ENDBRANCH  10  11
BRANCH  10  13
HETATM   13  C   UNL     1     -41.221 -50.982  11.812  1.00  0.00     0.161 C 
BRANCH  13  14
HETATM   14  C   UNL     1     -40.639 -52.060  12.708  1.00  0.00    -0.040 A 
HETATM   15  C   UNL     1     -41.179 -53.355  12.695  1.00  0.00     0.009 A 
HETATM   16  C   UNL     1     -40.562 -54.395  13.395  1.00  0.00     0.001 A 
HETATM   17  C   UNL     1     -39.402 -54.154  14.127  1.00  0.00     0.000 A 
HETATM   18  C   UNL     1     -38.864 -52.870  14.169  1.00  0.00     0.001 A 
HETATM   19  C   UNL     1     -39.476 -51.831  13.460  1.00  0.00     0.009 A 
ENDBRANCH  13  14
ENDBRANCH  10  13
ENDBRANCH   1  10
BRANCH   2  20
HETATM   20  N   UNL     1     -43.505 -48.392  11.295  1.00  0.00    -0.286 NA
HETATM   21  H   UNL     1     -43.443 -49.176  11.955  1.00  0.00     0.125 HD
HETATM   22  H   UNL     1     -44.136 -47.739  11.747  1.00  0.00     0.125 HD
ENDBRANCH   2  20
BRANCH   3  23
HETATM   23  C   UNL     1     -43.136 -45.825  10.036  1.00  0.00     0.161 C 
BRANCH  23  24
HETATM   24  C   UNL     1     -43.451 -46.136   8.563  1.00  0.00     0.187 C 
BRANCH  24  25
HETATM   25  O   UNL     1     -44.085 -47.405   8.401  1.00  0.00    -0.394 OA
HETATM   26  C   UNL     1     -43.447 -48.172   7.384  1.00  0.00     0.201 C 
ENDBRANCH  24  25
ENDBRANCH  23  24
ENDBRANCH   3  23
TORSDOF 8
ENDMDL
