MODEL 1
REMARK VINA RESULT:      -6.2      0.000      0.000
REMARK  2 active torsions:
REMARK  status: ('A' for Active; 'I' for Inactive)
REMARK    1  A    between atoms: C_7  and  N_8 
REMARK       I    between atoms: N_8  and  C_9 
REMARK       I    between atoms: C_9  and  N_11 
REMARK    2  A    between atoms: N_11  and  C_12 
ROOT
HETATM    1  N   UNL     1     -42.184 -50.356  11.937  1.00  0.00    -0.288 N 
HETATM    2  C   UNL     1     -41.487 -49.357  11.309  1.00  0.00     0.322 C 
HETATM    3  O   UNL     1     -40.367 -49.444  10.822  1.00  0.00    -0.247 OA
HETATM    4  N   UNL     1     -42.177 -48.158  11.315  1.00  0.00    -0.330 N 
HETATM    5  H   UNL     1     -43.018 -50.142  12.456  1.00  0.00     0.172 HD
HETATM    6  H   UNL     1     -43.173 -48.252  11.152  1.00  0.00     0.165 HD
ENDROOT
BRANCH   1   7
HETATM    7  C   UNL     1     -41.622 -51.597  12.102  1.00  0.00     0.169 A 
HETATM    8  N   UNL     1     -41.344 -52.518  11.212  1.00  0.00    -0.279 N 
HETATM    9  N   UNL     1     -40.716 -53.611  11.773  1.00  0.00    -0.296 N 
ATOM     10  HN  UNL     1     -41.566 -52.437  10.219  1.00  0.00     0.189 HD
HETATM   11  C   UNL     1     -40.543 -53.468  13.070  1.00  0.00     0.066 A 
ATOM     12  HN  UNL     1     -40.421 -54.433  11.247  1.00  0.00     0.187 HD
HETATM   13  C   UNL     1     -39.846 -54.450  13.936  1.00  0.00     0.078 C 
HETATM   14  S   UNL     1     -41.189 -52.002  13.706  1.00  0.00    -0.038 SA
ENDBRANCH   1   7
BRANCH   4  15
HETATM   15  C   UNL     1     -41.568 -47.001  10.645  1.00  0.00     0.178 C 
HETATM   16  C   UNL     1     -40.807 -46.077  11.607  1.00  0.00     0.036 C 
HETATM   17  C   UNL     1     -41.723 -45.081  12.304  1.00  0.00     0.022 C 
HETATM   18  C   UNL     1     -42.456 -44.260  11.260  1.00  0.00     0.122 C 
HETATM   19  N   UNL     1     -43.154 -45.095  10.315  1.00  0.00    -0.359 N 
HETATM   20  C   UNL     1     -42.670 -46.285   9.842  1.00  0.00     0.240 C 
HETATM   21  H   UNL     1     -43.861 -44.678   9.722  1.00  0.00     0.162 HD
HETATM   22  O   UNL     1     -43.235 -46.828   8.893  1.00  0.00    -0.271 OA
ENDBRANCH   4  15
TORSDOF 2
ENDMDL
MODEL 2
REMARK VINA RESULT:      -6.0      4.073      5.958
REMARK  2 active torsions:
REMARK  status: ('A' for Active; 'I' for Inactive)
REMARK    1  A    between atoms: C_7  and  N_8 
REMARK       I    between atoms: N_8  and  C_9 
REMARK       I    between atoms: C_9  and  N_11 
REMARK    2  A    between atoms: N_11  and  C_12 
ROOT
HETATM    1  N   UNL     1     -41.901 -51.726  11.948  1.00  0.00    -0.288 N 
HETATM    2  C   UNL     1     -42.987 -51.070  12.467  1.00  0.00     0.322 C 
HETATM    3  O   UNL     1     -43.067 -49.874  12.716  1.00  0.00    -0.247 OA
HETATM    4  N   UNL     1     -44.030 -51.934  12.748  1.00  0.00    -0.330 N 
HETATM    5  H   UNL     1     -41.870 -52.730  11.944  1.00  0.00     0.172 HD
HETATM    6  H   UNL     1     -44.168 -52.658  12.052  1.00  0.00     0.165 HD
ENDROOT
BRANCH   1   7
HETATM    7  C   UNL     1     -40.740 -51.044  11.685  1.00  0.00     0.169 A 
HETATM    8  N   UNL     1     -40.430 -50.270  10.672  1.00  0.00    -0.279 N 
HETATM    9  N   UNL     1     -39.176 -49.711  10.808  1.00  0.00    -0.296 N 
ATOM     10  HN  UNL     1     -41.046 -50.101   9.876  1.00  0.00     0.189 HD
HETATM   11  C   UNL     1     -38.589 -50.085  11.925  1.00  0.00     0.066 A 
ATOM     12  HN  UNL     1     -38.754 -49.083  10.125  1.00  0.00     0.187 HD
HETATM   13  C   UNL     1     -37.260 -49.603  12.374  1.00  0.00     0.078 C 
HETATM   14  S   UNL     1     -39.511 -51.196  12.864  1.00  0.00    -0.038 SA
ENDBRANCH   1   7
BRANCH   4  15
HETATM   15  C   UNL     1     -45.278 -51.369  13.279  1.00  0.00     0.178 C 
HETATM   16  C   UNL     1     -45.248 -51.157  14.799  1.00  0.00     0.036 C 
HETATM   17  C   UNL     1     -45.595 -52.423  15.571  1.00  0.00     0.022 C 
HETATM   18  C   UNL     1     -46.964 -52.913  15.139  1.00  0.00     0.122 C 
HETATM   19  N   UNL     1     -47.043 -53.088  13.710  1.00  0.00    -0.359 N 
HETATM   20  C   UNL     1     -46.441 -52.260  12.803  1.00  0.00     0.240 C 
HETATM   21  H   UNL     1     -47.811 -53.626  13.325  1.00  0.00     0.162 HD
HETATM   22  O   UNL     1     -46.727 -52.367  11.609  1.00  0.00    -0.271 OA
ENDBRANCH   4  15
TORSDOF 2
ENDMDL
MODEL 3
REMARK VINA RESULT:      -5.8      2.198      2.663
REMARK  2 active torsions:
REMARK  status: ('A' for Active; 'I' for Inactive)
REMARK    1  A    between atoms: C_7  and  N_8 
REMARK       I    between atoms: N_8  and  C_9 
REMARK       I    between atoms: C_9  and  N_11 
REMARK    2  A    between atoms: N_11  and  C_12 
ROOT
HETATM    1  N   UNL     1     -41.616 -48.289  11.723  1.00  0.00    -0.288 N 
HETATM    2  C   UNL     1     -40.501 -47.492  11.758  1.00  0.00     0.322 C 
HETATM    3  O   UNL     1     -39.336 -47.868  11.745  1.00  0.00    -0.247 OA
HETATM    4  N   UNL     1     -40.824 -46.152  11.865  1.00  0.00    -0.330 N 
HETATM    5  H   UNL     1     -42.523 -47.900  11.914  1.00  0.00     0.172 HD
HETATM    6  H   UNL     1     -41.621 -45.871  11.306  1.00  0.00     0.165 HD
ENDROOT
BRANCH   1   7
HETATM    7  C   UNL     1     -41.492 -49.655  11.702  1.00  0.00     0.169 A 
HETATM    8  N   UNL     1     -40.740 -50.420  10.947  1.00  0.00    -0.279 N 
HETATM    9  N   UNL     1     -40.853 -51.754  11.282  1.00  0.00    -0.296 N 
ATOM     10  HN  UNL     1     -40.142 -50.069  10.199  1.00  0.00     0.189 HD
HETATM   11  C   UNL     1     -41.687 -51.942  12.282  1.00  0.00     0.066 A 
ATOM     12  HN  UNL     1     -40.350 -52.505  10.810  1.00  0.00     0.187 HD
HETATM   13  C   UNL     1     -41.968 -53.260  12.901  1.00  0.00     0.078 C 
HETATM   14  S   UNL     1     -42.438 -50.499  12.850  1.00  0.00    -0.038 SA
ENDBRANCH   1   7
BRANCH   4  15
HETATM   15  C   UNL     1     -39.729 -45.171  11.879  1.00  0.00     0.178 C 
HETATM   16  C   UNL     1     -39.555 -44.478  13.238  1.00  0.00     0.036 C 
HETATM   17  C   UNL     1     -40.498 -43.296  13.413  1.00  0.00     0.022 C 
HETATM   18  C   UNL     1     -40.273 -42.305  12.288  1.00  0.00     0.122 C 
HETATM   19  N   UNL     1     -40.392 -42.928  10.993  1.00  0.00    -0.359 N 
HETATM   20  C   UNL     1     -39.954 -44.194  10.711  1.00  0.00     0.240 C 
HETATM   21  H   UNL     1     -40.497 -42.340  10.175  1.00  0.00     0.162 HD
HETATM   22  O   UNL     1     -39.914 -44.567   9.537  1.00  0.00    -0.271 OA
ENDBRANCH   4  15
TORSDOF 2
ENDMDL
MODEL 4
REMARK VINA RESULT:      -5.7      2.821      7.501
REMARK  2 active torsions:
REMARK  status: ('A' for Active; 'I' for Inactive)
REMARK    1  A    between atoms: C_7  and  N_8 
REMARK       I    between atoms: N_8  and  C_9 
REMARK       I    between atoms: C_9  and  N_11 
REMARK    2  A    between atoms: N_11  and  C_12 
ROOT
HETATM    1  N   UNL     1     -41.420 -50.350  12.818  1.00  0.00    -0.288 N 
HETATM    2  C   UNL     1     -41.360 -51.705  12.623  1.00  0.00     0.322 C 
HETATM    3  O   UNL     1     -41.439 -52.292  11.551  1.00  0.00    -0.247 OA
HETATM    4  N   UNL     1     -41.245 -52.398  13.815  1.00  0.00    -0.330 N 
HETATM    5  H   UNL     1     -41.522 -49.976  13.745  1.00  0.00     0.172 HD
HETATM    6  H   UNL     1     -40.627 -51.962  14.489  1.00  0.00     0.165 HD
ENDROOT
BRANCH   1   7
HETATM    7  C   UNL     1     -41.618 -49.504  11.756  1.00  0.00     0.169 A 
HETATM    8  N   UNL     1     -40.991 -49.437  10.606  1.00  0.00    -0.279 N 
HETATM    9  N   UNL     1     -41.536 -48.484   9.771  1.00  0.00    -0.296 N 
ATOM     10  HN  UNL     1     -40.192 -50.022  10.358  1.00  0.00     0.189 HD
HETATM   11  C   UNL     1     -42.560 -47.870  10.325  1.00  0.00     0.066 A 
ATOM     12  HN  UNL     1     -41.188 -48.279   8.834  1.00  0.00     0.187 HD
HETATM   13  C   UNL     1     -43.384 -46.839   9.650  1.00  0.00     0.078 C 
HETATM   14  S   UNL     1     -42.893 -48.379  11.937  1.00  0.00    -0.038 SA
ENDBRANCH   1   7
BRANCH   4  15
HETATM   15  C   UNL     1     -41.135 -53.862  13.761  1.00  0.00     0.178 C 
HETATM   16  C   UNL     1     -42.254 -54.581  14.528  1.00  0.00     0.036 C 
HETATM   17  C   UNL     1     -41.955 -54.700  16.016  1.00  0.00     0.022 C 
HETATM   18  C   UNL     1     -40.639 -55.429  16.206  1.00  0.00     0.122 C 
HETATM   19  N   UNL     1     -39.569 -54.804  15.470  1.00  0.00    -0.359 N 
HETATM   20  C   UNL     1     -39.719 -54.247  14.228  1.00  0.00     0.240 C 
HETATM   21  H   UNL     1     -38.612 -55.047  15.695  1.00  0.00     0.162 HD
HETATM   22  O   UNL     1     -38.716 -53.918  13.593  1.00  0.00    -0.271 OA
ENDBRANCH   4  15
TORSDOF 2
ENDMDL
MODEL 5
REMARK VINA RESULT:      -5.4      3.648      6.849
REMARK  2 active torsions:
REMARK  status: ('A' for Active; 'I' for Inactive)
REMARK    1  A    between atoms: C_7  and  N_8 
REMARK       I    between atoms: N_8  and  C_9 
REMARK       I    between atoms: C_9  and  N_11 
REMARK    2  A    between atoms: N_11  and  C_12 
ROOT
HETATM    1  N   UNL     1     -42.147 -50.068  11.760  1.00  0.00    -0.288 N 
HETATM    2  C   UNL     1     -42.819 -50.404  12.906  1.00  0.00     0.322 C 
HETATM    3  O   UNL     1     -42.791 -49.802  13.973  1.00  0.00    -0.247 OA
HETATM    4  N   UNL     1     -43.538 -51.577  12.763  1.00  0.00    -0.330 N 
HETATM    5  H   UNL     1     -42.096 -50.717  10.994  1.00  0.00     0.172 HD
HETATM    6  H   UNL     1     -43.999 -51.674  11.866  1.00  0.00     0.165 HD
ENDROOT
BRANCH   1   7
HETATM    7  C   UNL     1     -41.314 -48.977  11.739  1.00  0.00     0.169 A 
HETATM    8  N   UNL     1     -40.195 -48.761  12.387  1.00  0.00    -0.279 N 
HETATM    9  N   UNL     1     -39.617 -47.558  12.040  1.00  0.00    -0.296 N 
ATOM     10  HN  UNL     1     -39.798 -49.408  13.069  1.00  0.00     0.189 HD
HETATM   11  C   UNL     1     -40.325 -46.913  11.137  1.00  0.00     0.066 A 
ATOM     12  HN  UNL     1     -38.744 -47.209  12.435  1.00  0.00     0.187 HD
HETATM   13  C   UNL     1     -39.927 -45.621  10.527  1.00  0.00     0.078 C 
HETATM   14  S   UNL     1     -41.784 -47.712  10.689  1.00  0.00    -0.038 SA
ENDBRANCH   1   7
BRANCH   4  15
HETATM   15  C   UNL     1     -44.339 -52.047  13.901  1.00  0.00     0.178 C 
HETATM   16  C   UNL     1     -43.707 -53.237  14.636  1.00  0.00     0.036 C 
HETATM   17  C   UNL     1     -44.029 -54.569  13.973  1.00  0.00     0.022 C 
HETATM   18  C   UNL     1     -45.534 -54.740  13.898  1.00  0.00     0.122 C 
HETATM   19  N   UNL     1     -46.168 -53.622  13.246  1.00  0.00    -0.359 N 
HETATM   20  C   UNL     1     -45.767 -52.322  13.393  1.00  0.00     0.240 C 
HETATM   21  H   UNL     1     -47.125 -53.720  12.927  1.00  0.00     0.162 HD
HETATM   22  O   UNL     1     -46.486 -51.419  12.962  1.00  0.00    -0.271 OA
ENDBRANCH   4  15
TORSDOF 2
ENDMDL
MODEL 6
REMARK VINA RESULT:      -5.4      4.414      6.620
REMARK  2 active torsions:
REMARK  status: ('A' for Active; 'I' for Inactive)
REMARK    1  A    between atoms: C_7  and  N_8 
REMARK       I    between atoms: N_8  and  C_9 
REMARK       I    between atoms: C_9  and  N_11 
REMARK    2  A    between atoms: N_11  and  C_12 
ROOT
HETATM    1  N   UNL     1     -41.835 -50.721  13.538  1.00  0.00    -0.288 N 
HETATM    2  C   UNL     1     -42.836 -51.636  13.336  1.00  0.00     0.322 C 
HETATM    3  O   UNL     1     -42.986 -52.348  12.351  1.00  0.00    -0.247 OA
HETATM    4  N   UNL     1     -43.743 -51.654  14.380  1.00  0.00    -0.330 N 
HETATM    5  H   UNL     1     -41.896 -50.064  14.296  1.00  0.00     0.172 HD
HETATM    6  H   UNL     1     -43.321 -51.569  15.298  1.00  0.00     0.165 HD
ENDROOT
BRANCH   1   7
HETATM    7  C   UNL     1     -40.888 -50.504  12.569  1.00  0.00     0.169 A 
HETATM    8  N   UNL     1     -41.035 -50.244  11.293  1.00  0.00    -0.279 N 
HETATM    9  N   UNL     1     -39.828 -50.022  10.664  1.00  0.00    -0.296 N 
ATOM     10  HN  UNL     1     -41.939 -50.209  10.819  1.00  0.00     0.189 HD
HETATM   11  C   UNL     1     -38.813 -50.121  11.497  1.00  0.00     0.066 A 
ATOM     12  HN  UNL     1     -39.731 -49.806   9.672  1.00  0.00     0.187 HD
HETATM   13  C   UNL     1     -37.398 -49.878  11.125  1.00  0.00     0.078 C 
HETATM   14  S   UNL     1     -39.264 -50.550  13.103  1.00  0.00    -0.038 SA
ENDBRANCH   1   7
BRANCH   4  15
HETATM   15  C   UNL     1     -44.855 -52.612  14.320  1.00  0.00     0.178 C 
HETATM   16  C   UNL     1     -46.171 -51.983  13.842  1.00  0.00     0.036 C 
HETATM   17  C   UNL     1     -46.934 -51.302  14.970  1.00  0.00     0.022 C 
HETATM   18  C   UNL     1     -47.206 -52.309  16.071  1.00  0.00     0.122 C 
HETATM   19  N   UNL     1     -45.996 -52.950  16.521  1.00  0.00    -0.359 N 
HETATM   20  C   UNL     1     -44.962 -53.299  15.695  1.00  0.00     0.240 C 
HETATM   21  H   UNL     1     -46.008 -53.460  17.396  1.00  0.00     0.162 HD
HETATM   22  O   UNL     1     -44.062 -54.019  16.130  1.00  0.00    -0.271 OA
ENDBRANCH   4  15
TORSDOF 2
ENDMDL
MODEL 7
REMARK VINA RESULT:      -5.4      2.463      6.969
REMARK  2 active torsions:
REMARK  status: ('A' for Active; 'I' for Inactive)
REMARK    1  A    between atoms: C_7  and  N_8 
REMARK       I    between atoms: N_8  and  C_9 
REMARK       I    between atoms: C_9  and  N_11 
REMARK    2  A    between atoms: N_11  and  C_12 
ROOT
HETATM    1  N   UNL     1     -42.303 -48.763  11.026  1.00  0.00    -0.288 N 
HETATM    2  C   UNL     1     -42.438 -49.456  12.201  1.00  0.00     0.322 C 
HETATM    3  O   UNL     1     -42.644 -48.981  13.310  1.00  0.00    -0.247 OA
HETATM    4  N   UNL     1     -42.264 -50.817  12.024  1.00  0.00    -0.330 N 
HETATM    5  H   UNL     1     -41.964 -49.225  10.201  1.00  0.00     0.172 HD
HETATM    6  H   UNL     1     -42.683 -51.182  11.176  1.00  0.00     0.165 HD
ENDROOT
BRANCH   1   7
HETATM    7  C   UNL     1     -42.362 -47.392  11.020  1.00  0.00     0.169 A 
HETATM    8  N   UNL     1     -43.399 -46.594  11.097  1.00  0.00    -0.279 N 
HETATM    9  N   UNL     1     -43.033 -45.264  11.125  1.00  0.00    -0.296 N 
ATOM     10  HN  UNL     1     -44.366 -46.919  11.131  1.00  0.00     0.189 HD
HETATM   11  C   UNL     1     -41.727 -45.112  11.072  1.00  0.00     0.066 A 
ATOM     12  HN  UNL     1     -43.695 -44.491  11.181  1.00  0.00     0.187 HD
HETATM   13  C   UNL     1     -41.033 -43.803  11.143  1.00  0.00     0.078 C 
HETATM   14  S   UNL     1     -40.854 -46.590  10.926  1.00  0.00    -0.038 SA
ENDBRANCH   1   7
BRANCH   4  15
HETATM   15  C   UNL     1     -42.414 -51.696  13.191  1.00  0.00     0.178 C 
HETATM   16  C   UNL     1     -41.128 -51.828  14.019  1.00  0.00     0.036 C 
HETATM   17  C   UNL     1     -40.181 -52.880  13.459  1.00  0.00     0.022 C 
HETATM   18  C   UNL     1     -40.898 -54.215  13.391  1.00  0.00     0.122 C 
HETATM   19  N   UNL     1     -42.132 -54.122  12.652  1.00  0.00    -0.359 N 
HETATM   20  C   UNL     1     -42.974 -53.044  12.700  1.00  0.00     0.240 C 
HETATM   21  H   UNL     1     -42.580 -54.975  12.338  1.00  0.00     0.162 HD
HETATM   22  O   UNL     1     -44.095 -53.135  12.198  1.00  0.00    -0.271 OA
ENDBRANCH   4  15
TORSDOF 2
ENDMDL
MODEL 8
REMARK VINA RESULT:      -5.2      2.212      2.727
REMARK  2 active torsions:
REMARK  status: ('A' for Active; 'I' for Inactive)
REMARK    1  A    between atoms: C_7  and  N_8 
REMARK       I    between atoms: N_8  and  C_9 
REMARK       I    between atoms: C_9  and  N_11 
REMARK    2  A    between atoms: N_11  and  C_12 
ROOT
HETATM    1  N   UNL     1     -42.181 -51.617  11.954  1.00  0.00    -0.288 N 
HETATM    2  C   UNL     1     -42.564 -50.342  12.282  1.00  0.00     0.322 C 
HETATM    3  O   UNL     1     -43.295 -50.016  13.209  1.00  0.00    -0.247 OA
HETATM    4  N   UNL     1     -42.064 -49.405  11.397  1.00  0.00    -0.330 N 
HETATM    5  H   UNL     1     -41.724 -51.799  11.077  1.00  0.00     0.172 HD
HETATM    6  H   UNL     1     -41.110 -49.580  11.102  1.00  0.00     0.165 HD
ENDROOT
BRANCH   1   7
HETATM    7  C   UNL     1     -42.649 -52.689  12.672  1.00  0.00     0.169 A 
HETATM    8  N   UNL     1     -43.622 -53.523  12.398  1.00  0.00    -0.279 N 
HETATM    9  N   UNL     1     -43.741 -54.515  13.349  1.00  0.00    -0.296 N 
ATOM     10  HN  UNL     1     -44.222 -53.448  11.576  1.00  0.00     0.189 HD
HETATM   11  C   UNL     1     -42.846 -54.390  14.306  1.00  0.00     0.066 A 
ATOM     12  HN  UNL     1     -44.439 -55.258  13.316  1.00  0.00     0.187 HD
HETATM   13  C   UNL     1     -42.688 -55.338  15.435  1.00  0.00     0.078 C 
HETATM   14  S   UNL     1     -41.827 -53.010  14.136  1.00  0.00    -0.038 SA
ENDBRANCH   1   7
BRANCH   4  15
HETATM   15  C   UNL     1     -42.363 -47.987  11.641  1.00  0.00     0.178 C 
HETATM   16  C   UNL     1     -43.760 -47.572  11.158  1.00  0.00     0.036 C 
HETATM   17  C   UNL     1     -43.785 -47.231   9.674  1.00  0.00     0.022 C 
HETATM   18  C   UNL     1     -42.785 -46.124   9.397  1.00  0.00     0.122 C 
HETATM   19  N   UNL     1     -41.467 -46.463   9.871  1.00  0.00    -0.359 N 
HETATM   20  C   UNL     1     -41.223 -47.151  11.029  1.00  0.00     0.240 C 
HETATM   21  H   UNL     1     -40.675 -45.922   9.544  1.00  0.00     0.162 HD
HETATM   22  O   UNL     1     -40.069 -47.219  11.456  1.00  0.00    -0.271 OA
ENDBRANCH   4  15
TORSDOF 2
ENDMDL
MODEL 9
REMARK VINA RESULT:      -5.2      2.419      7.000
REMARK  2 active torsions:
REMARK  status: ('A' for Active; 'I' for Inactive)
REMARK    1  A    between atoms: C_7  and  N_8 
REMARK       I    between atoms: N_8  and  C_9 
REMARK       I    between atoms: C_9  and  N_11 
REMARK    2  A    between atoms: N_11  and  C_12 
ROOT
HETATM    1  N   UNL     1     -41.578 -48.395  12.294  1.00  0.00    -0.288 N 
HETATM    2  C   UNL     1     -41.276 -49.637  11.800  1.00  0.00     0.322 C 
HETATM    3  O   UNL     1     -40.634 -49.884  10.787  1.00  0.00    -0.247 OA
HETATM    4  N   UNL     1     -41.832 -50.649  12.563  1.00  0.00    -0.330 N 
HETATM    5  H   UNL     1     -42.254 -48.293  13.030  1.00  0.00     0.172 HD
HETATM    6  H   UNL     1     -41.792 -50.485  13.562  1.00  0.00     0.165 HD
ENDROOT
BRANCH   1   7
HETATM    7  C   UNL     1     -41.181 -47.266  11.621  1.00  0.00     0.169 A 
HETATM    8  N   UNL     1     -40.995 -47.074  10.338  1.00  0.00    -0.279 N 
HETATM    9  N   UNL     1     -40.658 -45.767  10.051  1.00  0.00    -0.296 N 
ATOM     10  HN  UNL     1     -41.090 -47.805   9.633  1.00  0.00     0.189 HD
HETATM   11  C   UNL     1     -40.605 -45.023  11.135  1.00  0.00     0.066 A 
ATOM     12  HN  UNL     1     -40.471 -45.419   9.111  1.00  0.00     0.187 HD
HETATM   13  C   UNL     1     -40.324 -43.566  11.137  1.00  0.00     0.078 C 
HETATM   14  S   UNL     1     -40.912 -45.886  12.594  1.00  0.00    -0.038 SA
ENDBRANCH   1   7
BRANCH   4  15
HETATM   15  C   UNL     1     -41.564 -52.041  12.175  1.00  0.00     0.178 C 
HETATM   16  C   UNL     1     -42.815 -52.930  12.211  1.00  0.00     0.036 C 
HETATM   17  C   UNL     1     -43.107 -53.467  13.606  1.00  0.00     0.022 C 
HETATM   18  C   UNL     1     -41.902 -54.239  14.108  1.00  0.00     0.122 C 
HETATM   19  N   UNL     1     -40.699 -53.447  14.053  1.00  0.00    -0.359 N 
HETATM   20  C   UNL     1     -40.409 -52.562  13.050  1.00  0.00     0.240 C 
HETATM   21  H   UNL     1     -39.885 -53.758  14.570  1.00  0.00     0.162 HD
HETATM   22  O   UNL     1     -39.277 -52.082  12.981  1.00  0.00    -0.271 OA
ENDBRANCH   4  15
TORSDOF 2
ENDMDL
