MODEL 1
REMARK VINA RESULT:      -5.9      0.000      0.000
REMARK  5 active torsions:
REMARK  status: ('A' for Active; 'I' for Inactive)
REMARK    1  A    between atoms: C_2  and  O_3 
REMARK    2  A    between atoms: O_3  and  C_4 
REMARK    3  A    between atoms: C_6  and  N_7 
REMARK       I    between atoms: N_7  and  C_8 
REMARK    4  A    between atoms: C_8  and  C_10 
REMARK    5  A    between atoms: C_10  and  N_11 
ROOT
HETATM    1  N   UNL     1     -42.970 -49.964  13.489  1.00  0.00    -0.354 N 
HETATM    2  C   UNL     1     -42.028 -49.310  14.263  1.00  0.00     0.236 C 
HETATM    3  O   UNL     1     -41.845 -49.539  15.457  1.00  0.00    -0.272 OA
HETATM    4  H   UNL     1     -43.193 -49.543  12.588  1.00  0.00     0.162 HD
ENDROOT
BRANCH   1   5
HETATM    5  C   UNL     1     -43.804 -51.044  14.034  1.00  0.00     0.098 C 
HETATM    6  C   UNL     1     -45.147 -51.261  13.304  1.00  0.00     0.059 C 
HETATM    7  C   UNL     1     -44.985 -52.773  13.622  1.00  0.00     0.133 C 
HETATM    8  C   UNL     1     -43.420 -52.514  13.621  1.00  0.00     0.006 C 
HETATM    9  C   UNL     1     -42.655 -53.296  14.700  1.00  0.00     0.014 C 
HETATM   10  C   UNL     1     -42.811 -52.769  12.224  1.00  0.00     0.014 C 
HETATM   11  C   UNL     1     -41.165 -52.966  14.656  1.00  0.00     0.001 C 
HETATM   12  C   UNL     1     -40.573 -53.272  13.286  1.00  0.00     0.000 C 
HETATM   13  C   UNL     1     -41.307 -52.503  12.192  1.00  0.00     0.001 C 
BRANCH   7  14
HETATM   14  O   UNL     1     -45.555 -53.212  14.882  1.00  0.00    -0.385 OA
BRANCH  14  15
HETATM   15  C   UNL     1     -46.318 -54.415  14.847  1.00  0.00     0.163 C 
HETATM   16  C   UNL     1     -45.689 -55.371  13.854  1.00  0.00     0.033 C 
ENDBRANCH  14  15
ENDBRANCH   7  14
ENDBRANCH   1   5
BRANCH   2  17
HETATM   17  C   UNL     1     -41.265 -48.208  13.535  1.00  0.00     0.235 C 
BRANCH  17  18
HETATM   18  N   UNL     1     -40.128 -48.775  12.817  1.00  0.00    -0.301 N 
HETATM   19  C   UNL     1     -38.911 -48.911  13.449  1.00  0.00     0.102 A 
HETATM   20  C   UNL     1     -37.840 -49.397  12.821  1.00  0.00     0.092 A 
HETATM   21  C   UNL     1     -37.970 -49.799  11.410  1.00  0.00     0.250 A 
HETATM   22  O   UNL     1     -37.006 -50.220  10.781  1.00  0.00    -0.268 OA
HETATM   23  N   UNL     1     -39.213 -49.662  10.863  1.00  0.00    -0.275 N 
HETATM   24  C   UNL     1     -40.303 -49.108  11.482  1.00  0.00     0.329 A 
HETATM   25  H   UNL     1     -39.313 -49.908   9.892  1.00  0.00     0.173 HD
HETATM   26  O   UNL     1     -41.352 -48.911  10.867  1.00  0.00    -0.246 OA
ENDBRANCH  17  18
ENDBRANCH   2  17
TORSDOF 5
ENDMDL
MODEL 2
REMARK VINA RESULT:      -5.7      3.214      5.313
REMARK  5 active torsions:
REMARK  status: ('A' for Active; 'I' for Inactive)
REMARK    1  A    between atoms: C_2  and  O_3 
REMARK    2  A    between atoms: O_3  and  C_4 
REMARK    3  A    between atoms: C_6  and  N_7 
REMARK       I    between atoms: N_7  and  C_8 
REMARK    4  A    between atoms: C_8  and  C_10 
REMARK    5  A    between atoms: C_10  and  N_11 
ROOT
HETATM    1  N   UNL     1     -44.119 -53.434  16.284  1.00  0.00    -0.354 N 
HETATM    2  C   UNL     1     -44.298 -54.455  15.368  1.00  0.00     0.236 C 
HETATM    3  O   UNL     1     -45.384 -54.979  15.130  1.00  0.00    -0.272 OA
HETATM    4  H   UNL     1     -43.161 -53.235  16.566  1.00  0.00     0.162 HD
ENDROOT
BRANCH   1   5
HETATM    5  C   UNL     1     -45.249 -52.849  17.020  1.00  0.00     0.098 C 
HETATM    6  C   UNL     1     -44.858 -52.018  18.261  1.00  0.00     0.059 C 
HETATM    7  C   UNL     1     -46.076 -51.110  17.939  1.00  0.00     0.133 C 
HETATM    8  C   UNL     1     -45.879 -51.535  16.424  1.00  0.00     0.006 C 
HETATM    9  C   UNL     1     -47.194 -51.752  15.659  1.00  0.00     0.014 C 
HETATM   10  C   UNL     1     -44.969 -50.535  15.676  1.00  0.00     0.014 C 
HETATM   11  C   UNL     1     -46.920 -52.193  14.223  1.00  0.00     0.001 C 
HETATM   12  C   UNL     1     -46.063 -51.170  13.487  1.00  0.00     0.000 C 
HETATM   13  C   UNL     1     -44.746 -50.937  14.218  1.00  0.00     0.001 C 
BRANCH   7  14
HETATM   14  O   UNL     1     -47.330 -51.505  18.552  1.00  0.00    -0.385 OA
BRANCH  14  15
HETATM   15  C   UNL     1     -48.125 -50.457  19.101  1.00  0.00     0.163 C 
HETATM   16  C   UNL     1     -47.517 -49.123  18.719  1.00  0.00     0.033 C 
ENDBRANCH  14  15
ENDBRANCH   7  14
ENDBRANCH   1   5
BRANCH   2  17
HETATM   17  C   UNL     1     -43.012 -54.946  14.711  1.00  0.00     0.235 C 
BRANCH  17  18
HETATM   18  N   UNL     1     -42.466 -53.911  13.840  1.00  0.00    -0.301 N 
HETATM   19  C   UNL     1     -41.351 -53.199  14.229  1.00  0.00     0.102 A 
HETATM   20  C   UNL     1     -40.837 -52.225  13.477  1.00  0.00     0.092 A 
HETATM   21  C   UNL     1     -41.485 -51.908  12.193  1.00  0.00     0.250 A 
HETATM   22  O   UNL     1     -41.070 -51.000  11.483  1.00  0.00    -0.268 OA
HETATM   23  N   UNL     1     -42.565 -52.675  11.864  1.00  0.00    -0.275 N 
HETATM   24  C   UNL     1     -43.136 -53.636  12.657  1.00  0.00     0.329 A 
HETATM   25  H   UNL     1     -43.035 -52.455  11.002  1.00  0.00     0.173 HD
HETATM   26  O   UNL     1     -44.185 -54.191  12.329  1.00  0.00    -0.246 OA
ENDBRANCH  17  18
ENDBRANCH   2  17
TORSDOF 5
ENDMDL
MODEL 3
REMARK VINA RESULT:      -5.6      2.663      7.145
REMARK  5 active torsions:
REMARK  status: ('A' for Active; 'I' for Inactive)
REMARK    1  A    between atoms: C_2  and  O_3 
REMARK    2  A    between atoms: O_3  and  C_4 
REMARK    3  A    between atoms: C_6  and  N_7 
REMARK       I    between atoms: N_7  and  C_8 
REMARK    4  A    between atoms: C_8  and  C_10 
REMARK    5  A    between atoms: C_10  and  N_11 
ROOT
HETATM    1  N   UNL     1     -39.870 -51.779  13.955  1.00  0.00    -0.354 N 
HETATM    2  C   UNL     1     -40.925 -51.701  13.063  1.00  0.00     0.236 C 
HETATM    3  O   UNL     1     -41.575 -50.678  12.861  1.00  0.00    -0.272 OA
HETATM    4  H   UNL     1     -39.556 -52.714  14.211  1.00  0.00     0.162 HD
ENDROOT
BRANCH   1   5
HETATM    5  C   UNL     1     -39.402 -50.604  14.705  1.00  0.00     0.098 C 
HETATM    6  C   UNL     1     -38.627 -50.926  16.001  1.00  0.00     0.059 C 
HETATM    7  C   UNL     1     -37.779 -49.657  15.713  1.00  0.00     0.133 C 
HETATM    8  C   UNL     1     -38.096 -49.901  14.179  1.00  0.00     0.006 C 
HETATM    9  C   UNL     1     -38.347 -48.613  13.379  1.00  0.00     0.014 C 
HETATM   10  C   UNL     1     -36.997 -50.756  13.509  1.00  0.00     0.014 C 
HETATM   11  C   UNL     1     -38.680 -48.934  11.924  1.00  0.00     0.001 C 
HETATM   12  C   UNL     1     -37.563 -49.735  11.267  1.00  0.00     0.000 C 
HETATM   13  C   UNL     1     -37.294 -51.025  12.034  1.00  0.00     0.001 C 
BRANCH   7  14
HETATM   14  O   UNL     1     -38.287 -48.422  16.279  1.00  0.00    -0.385 OA
BRANCH  14  15
HETATM   15  C   UNL     1     -37.351 -47.618  16.992  1.00  0.00     0.163 C 
HETATM   16  C   UNL     1     -35.955 -47.923  16.491  1.00  0.00     0.033 C 
ENDBRANCH  14  15
ENDBRANCH   7  14
ENDBRANCH   1   5
BRANCH   2  17
HETATM   17  C   UNL     1     -41.279 -53.021  12.387  1.00  0.00     0.235 C 
BRANCH  17  18
HETATM   18  N   UNL     1     -42.487 -53.582  12.983  1.00  0.00    -0.301 N 
HETATM   19  C   UNL     1     -43.723 -53.285  12.450  1.00  0.00     0.102 A 
HETATM   20  C   UNL     1     -44.853 -53.753  12.982  1.00  0.00     0.092 A 
HETATM   21  C   UNL     1     -44.769 -54.613  14.175  1.00  0.00     0.250 A 
HETATM   22  O   UNL     1     -45.780 -55.040  14.718  1.00  0.00    -0.268 OA
HETATM   23  N   UNL     1     -43.509 -54.885  14.626  1.00  0.00    -0.275 N 
HETATM   24  C   UNL     1     -42.348 -54.360  14.123  1.00  0.00     0.329 A 
HETATM   25  H   UNL     1     -43.435 -55.451  15.455  1.00  0.00     0.173 HD
HETATM   26  O   UNL     1     -41.266 -54.565  14.674  1.00  0.00    -0.246 OA
ENDBRANCH  17  18
ENDBRANCH   2  17
TORSDOF 5
ENDMDL
MODEL 4
REMARK VINA RESULT:      -5.6      2.473      6.906
REMARK  5 active torsions:
REMARK  status: ('A' for Active; 'I' for Inactive)
REMARK    1  A    between atoms: C_2  and  O_3 
REMARK    2  A    between atoms: O_3  and  C_4 
REMARK    3  A    between atoms: C_6  and  N_7 
REMARK       I    between atoms: N_7  and  C_8 
REMARK    4  A    between atoms: C_8  and  C_10 
REMARK    5  A    between atoms: C_10  and  N_11 
ROOT
HETATM    1  N   UNL     1     -43.711 -51.863  12.732  1.00  0.00    -0.354 N 
HETATM    2  C   UNL     1     -44.413 -53.037  12.528  1.00  0.00     0.236 C 
HETATM    3  O   UNL     1     -43.899 -54.083  12.137  1.00  0.00    -0.272 OA
HETATM    4  H   UNL     1     -44.262 -51.012  12.832  1.00  0.00     0.162 HD
ENDROOT
BRANCH   1   5
HETATM    5  C   UNL     1     -42.255 -51.789  12.545  1.00  0.00     0.098 C 
HETATM    6  C   UNL     1     -41.691 -50.361  12.382  1.00  0.00     0.059 C 
HETATM    7  C   UNL     1     -40.422 -50.864  13.123  1.00  0.00     0.133 C 
HETATM    8  C   UNL     1     -41.366 -51.920  13.837  1.00  0.00     0.006 C 
HETATM    9  C   UNL     1     -40.725 -53.303  14.029  1.00  0.00     0.014 C 
HETATM   10  C   UNL     1     -41.903 -51.374  15.179  1.00  0.00     0.014 C 
HETATM   11  C   UNL     1     -41.706 -54.269  14.687  1.00  0.00     0.001 C 
HETATM   12  C   UNL     1     -42.185 -53.737  16.032  1.00  0.00     0.000 C 
HETATM   13  C   UNL     1     -42.834 -52.366  15.875  1.00  0.00     0.001 C 
BRANCH   7  14
HETATM   14  O   UNL     1     -39.379 -51.413  12.278  1.00  0.00    -0.385 OA
BRANCH  14  15
HETATM   15  C   UNL     1     -38.049 -50.979  12.549  1.00  0.00     0.163 C 
HETATM   16  C   UNL     1     -37.586 -50.074  11.426  1.00  0.00     0.033 C 
ENDBRANCH  14  15
ENDBRANCH   7  14
ENDBRANCH   1   5
BRANCH   2  17
HETATM   17  C   UNL     1     -45.916 -52.923  12.757  1.00  0.00     0.235 C 
BRANCH  17  18
HETATM   18  N   UNL     1     -46.194 -52.716  14.175  1.00  0.00    -0.301 N 
HETATM   19  C   UNL     1     -46.473 -51.451  14.646  1.00  0.00     0.102 A 
HETATM   20  C   UNL     1     -46.703 -51.214  15.938  1.00  0.00     0.092 A 
HETATM   21  C   UNL     1     -46.657 -52.342  16.883  1.00  0.00     0.250 A 
HETATM   22  O   UNL     1     -46.829 -52.169  18.083  1.00  0.00    -0.268 OA
HETATM   23  N   UNL     1     -46.404 -53.567  16.336  1.00  0.00    -0.275 N 
HETATM   24  C   UNL     1     -46.106 -53.811  15.021  1.00  0.00     0.329 A 
HETATM   25  H   UNL     1     -46.344 -54.346  16.972  1.00  0.00     0.173 HD
HETATM   26  O   UNL     1     -45.769 -54.933  14.643  1.00  0.00    -0.246 OA
ENDBRANCH  17  18
ENDBRANCH   2  17
TORSDOF 5
ENDMDL
MODEL 5
REMARK VINA RESULT:      -5.6      3.469      7.076
REMARK  5 active torsions:
REMARK  status: ('A' for Active; 'I' for Inactive)
REMARK    1  A    between atoms: C_2  and  O_3 
REMARK    2  A    between atoms: O_3  and  C_4 
REMARK    3  A    between atoms: C_6  and  N_7 
REMARK       I    between atoms: N_7  and  C_8 
REMARK    4  A    between atoms: C_8  and  C_10 
REMARK    5  A    between atoms: C_10  and  N_11 
ROOT
HETATM    1  N   UNL     1     -39.584 -47.505  11.188  1.00  0.00    -0.354 N 
HETATM    2  C   UNL     1     -39.364 -48.443  12.180  1.00  0.00     0.236 C 
HETATM    3  O   UNL     1     -39.474 -48.207  13.381  1.00  0.00    -0.272 OA
HETATM    4  H   UNL     1     -39.245 -47.738  10.256  1.00  0.00     0.162 HD
ENDROOT
BRANCH   1   5
HETATM    5  C   UNL     1     -40.029 -46.139  11.499  1.00  0.00     0.098 C 
HETATM    6  C   UNL     1     -39.650 -45.075  10.447  1.00  0.00     0.059 C 
HETATM    7  C   UNL     1     -40.987 -44.367  10.797  1.00  0.00     0.133 C 
HETATM    8  C   UNL     1     -41.536 -45.799  11.200  1.00  0.00     0.006 C 
HETATM    9  C   UNL     1     -42.444 -45.795  12.439  1.00  0.00     0.014 C 
HETATM   10  C   UNL     1     -42.241 -46.485  10.007  1.00  0.00     0.014 C 
HETATM   11  C   UNL     1     -42.901 -47.211  12.782  1.00  0.00     0.001 C 
HETATM   12  C   UNL     1     -43.637 -47.851  11.611  1.00  0.00     0.000 C 
HETATM   13  C   UNL     1     -42.759 -47.877  10.365  1.00  0.00     0.001 C 
BRANCH   7  14
HETATM   14  O   UNL     1     -40.917 -43.389  11.866  1.00  0.00    -0.385 OA
BRANCH  14  15
HETATM   15  C   UNL     1     -41.556 -42.138  11.625  1.00  0.00     0.163 C 
HETATM   16  C   UNL     1     -42.922 -42.390  11.020  1.00  0.00     0.033 C 
ENDBRANCH  14  15
ENDBRANCH   7  14
ENDBRANCH   1   5
BRANCH   2  17
HETATM   17  C   UNL     1     -38.893 -49.802  11.673  1.00  0.00     0.235 C 
BRANCH  17  18
HETATM   18  N   UNL     1     -39.779 -50.854  12.158  1.00  0.00    -0.301 N 
HETATM   19  C   UNL     1     -41.118 -50.835  11.829  1.00  0.00     0.102 A 
HETATM   20  C   UNL     1     -41.968 -51.761  12.275  1.00  0.00     0.092 A 
HETATM   21  C   UNL     1     -41.453 -52.833  13.144  1.00  0.00     0.250 A 
HETATM   22  O   UNL     1     -42.201 -53.687  13.605  1.00  0.00    -0.268 OA
HETATM   23  N   UNL     1     -40.113 -52.800  13.400  1.00  0.00    -0.275 N 
HETATM   24  C   UNL     1     -39.244 -51.820  12.997  1.00  0.00     0.329 A 
HETATM   25  H   UNL     1     -39.749 -53.511  14.013  1.00  0.00     0.173 HD
HETATM   26  O   UNL     1     -38.074 -51.809  13.381  1.00  0.00    -0.246 OA
ENDBRANCH  17  18
ENDBRANCH   2  17
TORSDOF 5
ENDMDL
MODEL 6
REMARK VINA RESULT:      -5.5      2.653      3.651
REMARK  5 active torsions:
REMARK  status: ('A' for Active; 'I' for Inactive)
REMARK    1  A    between atoms: C_2  and  O_3 
REMARK    2  A    between atoms: O_3  and  C_4 
REMARK    3  A    between atoms: C_6  and  N_7 
REMARK       I    between atoms: N_7  and  C_8 
REMARK    4  A    between atoms: C_8  and  C_10 
REMARK    5  A    between atoms: C_10  and  N_11 
ROOT
HETATM    1  N   UNL     1     -42.770 -50.362  12.250  1.00  0.00    -0.354 N 
HETATM    2  C   UNL     1     -41.812 -49.370  12.356  1.00  0.00     0.236 C 
HETATM    3  O   UNL     1     -41.481 -48.849  13.419  1.00  0.00    -0.272 OA
HETATM    4  H   UNL     1     -43.126 -50.556  11.316  1.00  0.00     0.162 HD
ENDROOT
BRANCH   1   5
HETATM    5  C   UNL     1     -43.442 -50.918  13.433  1.00  0.00     0.098 C 
HETATM    6  C   UNL     1     -44.825 -51.547  13.161  1.00  0.00     0.059 C 
HETATM    7  C   UNL     1     -44.493 -52.570  14.282  1.00  0.00     0.133 C 
HETATM    8  C   UNL     1     -42.967 -52.339  13.916  1.00  0.00     0.006 C 
HETATM    9  C   UNL     1     -42.028 -52.315  15.132  1.00  0.00     0.014 C 
HETATM   10  C   UNL     1     -42.480 -53.367  12.869  1.00  0.00     0.014 C 
HETATM   11  C   UNL     1     -40.587 -52.054  14.701  1.00  0.00     0.001 C 
HETATM   12  C   UNL     1     -40.110 -53.106  13.707  1.00  0.00     0.000 C 
HETATM   13  C   UNL     1     -41.018 -53.150  12.483  1.00  0.00     0.001 C 
BRANCH   7  14
HETATM   14  O   UNL     1     -44.890 -52.182  15.622  1.00  0.00    -0.385 OA
BRANCH  14  15
HETATM   15  C   UNL     1     -46.139 -52.690  16.085  1.00  0.00     0.163 C 
HETATM   16  C   UNL     1     -47.161 -51.572  16.078  1.00  0.00     0.033 C 
ENDBRANCH  14  15
ENDBRANCH   7  14
ENDBRANCH   1   5
BRANCH   2  17
HETATM   17  C   UNL     1     -41.233 -48.906  11.024  1.00  0.00     0.235 C 
BRANCH  17  18
HETATM   18  N   UNL     1     -41.926 -47.706  10.566  1.00  0.00    -0.301 N 
HETATM   19  C   UNL     1     -43.152 -47.811   9.944  1.00  0.00     0.102 A 
HETATM   20  C   UNL     1     -43.805 -46.743   9.486  1.00  0.00     0.092 A 
HETATM   21  C   UNL     1     -43.192 -45.414   9.653  1.00  0.00     0.250 A 
HETATM   22  O   UNL     1     -43.738 -44.407   9.218  1.00  0.00    -0.268 OA
HETATM   23  N   UNL     1     -41.992 -45.389  10.304  1.00  0.00    -0.275 N 
HETATM   24  C   UNL     1     -41.286 -46.485  10.724  1.00  0.00     0.329 A 
HETATM   25  H   UNL     1     -41.548 -44.491  10.404  1.00  0.00     0.173 HD
HETATM   26  O   UNL     1     -40.153 -46.372  11.192  1.00  0.00    -0.246 OA
ENDBRANCH  17  18
ENDBRANCH   2  17
TORSDOF 5
ENDMDL
MODEL 7
REMARK VINA RESULT:      -5.4      2.724      6.974
REMARK  5 active torsions:
REMARK  status: ('A' for Active; 'I' for Inactive)
REMARK    1  A    between atoms: C_2  and  O_3 
REMARK    2  A    between atoms: O_3  and  C_4 
REMARK    3  A    between atoms: C_6  and  N_7 
REMARK       I    between atoms: N_7  and  C_8 
REMARK    4  A    between atoms: C_8  and  C_10 
REMARK    5  A    between atoms: C_10  and  N_11 
ROOT
HETATM    1  N   UNL     1     -39.253 -51.637  14.284  1.00  0.00    -0.354 N 
HETATM    2  C   UNL     1     -39.793 -52.789  14.827  1.00  0.00     0.236 C 
HETATM    3  O   UNL     1     -39.914 -52.985  16.034  1.00  0.00    -0.272 OA
HETATM    4  H   UNL     1     -38.991 -51.674  13.301  1.00  0.00     0.162 HD
ENDROOT
BRANCH   1   5
HETATM    5  C   UNL     1     -38.823 -50.512  15.128  1.00  0.00     0.098 C 
HETATM    6  C   UNL     1     -37.416 -50.661  15.744  1.00  0.00     0.059 C 
HETATM    7  C   UNL     1     -37.277 -49.120  15.601  1.00  0.00     0.133 C 
HETATM    8  C   UNL     1     -38.289 -49.232  14.385  1.00  0.00     0.006 C 
HETATM    9  C   UNL     1     -39.299 -48.077  14.303  1.00  0.00     0.014 C 
HETATM   10  C   UNL     1     -37.537 -49.397  13.045  1.00  0.00     0.014 C 
HETATM   11  C   UNL     1     -40.257 -48.276  13.131  1.00  0.00     0.001 C 
HETATM   12  C   UNL     1     -39.500 -48.387  11.813  1.00  0.00     0.000 C 
HETATM   13  C   UNL     1     -38.492 -49.530  11.859  1.00  0.00     0.001 C 
BRANCH   7  14
HETATM   14  O   UNL     1     -37.733 -48.343  16.738  1.00  0.00    -0.385 OA
BRANCH  14  15
HETATM   15  C   UNL     1     -36.736 -47.618  17.452  1.00  0.00     0.163 C 
HETATM   16  C   UNL     1     -35.400 -47.804  16.761  1.00  0.00     0.033 C 
ENDBRANCH  14  15
ENDBRANCH   7  14
ENDBRANCH   1   5
BRANCH   2  17
HETATM   17  C   UNL     1     -40.169 -53.854  13.803  1.00  0.00     0.235 C 
BRANCH  17  18
HETATM   18  N   UNL     1     -41.568 -53.708  13.417  1.00  0.00    -0.301 N 
HETATM   19  C   UNL     1     -42.545 -54.424  14.075  1.00  0.00     0.102 A 
HETATM   20  C   UNL     1     -43.831 -54.342  13.734  1.00  0.00     0.092 A 
HETATM   21  C   UNL     1     -44.213 -53.455  12.621  1.00  0.00     0.250 A 
HETATM   22  O   UNL     1     -45.377 -53.371  12.251  1.00  0.00    -0.268 OA
HETATM   23  N   UNL     1     -43.194 -52.758  12.040  1.00  0.00    -0.275 N 
HETATM   24  C   UNL     1     -41.863 -52.881  12.342  1.00  0.00     0.329 A 
HETATM   25  H   UNL     1     -43.434 -52.166  11.261  1.00  0.00     0.173 HD
HETATM   26  O   UNL     1     -41.003 -52.302  11.678  1.00  0.00    -0.246 OA
ENDBRANCH  17  18
ENDBRANCH   2  17
TORSDOF 5
ENDMDL
MODEL 8
REMARK VINA RESULT:      -5.4      2.008      2.570
REMARK  5 active torsions:
REMARK  status: ('A' for Active; 'I' for Inactive)
REMARK    1  A    between atoms: C_2  and  O_3 
REMARK    2  A    between atoms: O_3  and  C_4 
REMARK    3  A    between atoms: C_6  and  N_7 
REMARK       I    between atoms: N_7  and  C_8 
REMARK    4  A    between atoms: C_8  and  C_10 
REMARK    5  A    between atoms: C_10  and  N_11 
ROOT
HETATM    1  N   UNL     1     -41.227 -50.054  13.854  1.00  0.00    -0.354 N 
HETATM    2  C   UNL     1     -40.709 -48.930  14.471  1.00  0.00     0.236 C 
HETATM    3  O   UNL     1     -41.295 -48.300  15.349  1.00  0.00    -0.272 OA
HETATM    4  H   UNL     1     -40.769 -50.356  12.996  1.00  0.00     0.162 HD
ENDROOT
BRANCH   1   5
HETATM    5  C   UNL     1     -42.522 -50.626  14.249  1.00  0.00     0.098 C 
HETATM    6  C   UNL     1     -43.744 -50.049  13.502  1.00  0.00     0.059 C 
HETATM    7  C   UNL     1     -44.378 -51.463  13.608  1.00  0.00     0.133 C 
HETATM    8  C   UNL     1     -42.896 -52.027  13.636  1.00  0.00     0.006 C 
HETATM    9  C   UNL     1     -42.695 -53.212  14.592  1.00  0.00     0.014 C 
HETATM   10  C   UNL     1     -42.405 -52.382  12.214  1.00  0.00     0.014 C 
HETATM   11  C   UNL     1     -41.240 -53.673  14.588  1.00  0.00     0.001 C 
HETATM   12  C   UNL     1     -40.790 -54.066  13.186  1.00  0.00     0.000 C 
HETATM   13  C   UNL     1     -40.970 -52.907  12.213  1.00  0.00     0.001 C 
BRANCH   7  14
HETATM   14  O   UNL     1     -45.172 -51.705  14.797  1.00  0.00    -0.385 OA
BRANCH  14  15
HETATM   15  C   UNL     1     -46.584 -51.771  14.614  1.00  0.00     0.163 C 
HETATM   16  C   UNL     1     -47.268 -51.457  15.929  1.00  0.00     0.033 C 
ENDBRANCH  14  15
ENDBRANCH   7  14
ENDBRANCH   1   5
BRANCH   2  17
HETATM   17  C   UNL     1     -39.363 -48.471  13.923  1.00  0.00     0.235 C 
BRANCH  17  18
HETATM   18  N   UNL     1     -39.560 -47.476  12.874  1.00  0.00    -0.301 N 
HETATM   19  C   UNL     1     -39.560 -46.134  13.187  1.00  0.00     0.102 A 
HETATM   20  C   UNL     1     -39.766 -45.194  12.264  1.00  0.00     0.092 A 
HETATM   21  C   UNL     1     -39.998 -45.611  10.870  1.00  0.00     0.250 A 
HETATM   22  O   UNL     1     -40.225 -44.786   9.993  1.00  0.00    -0.268 OA
HETATM   23  N   UNL     1     -39.954 -46.954  10.635  1.00  0.00    -0.275 N 
HETATM   24  C   UNL     1     -39.804 -47.930  11.586  1.00  0.00     0.329 A 
HETATM   25  H   UNL     1     -40.136 -47.258   9.692  1.00  0.00     0.173 HD
HETATM   26  O   UNL     1     -39.901 -49.122  11.296  1.00  0.00    -0.246 OA
ENDBRANCH  17  18
ENDBRANCH   2  17
TORSDOF 5
ENDMDL
MODEL 9
REMARK VINA RESULT:      -5.3      2.302      6.878
REMARK  5 active torsions:
REMARK  status: ('A' for Active; 'I' for Inactive)
REMARK    1  A    between atoms: C_2  and  O_3 
REMARK    2  A    between atoms: O_3  and  C_4 
REMARK    3  A    between atoms: C_6  and  N_7 
REMARK       I    between atoms: N_7  and  C_8 
REMARK    4  A    between atoms: C_8  and  C_10 
REMARK    5  A    between atoms: C_10  and  N_11 
ROOT
HETATM    1  N   UNL     1     -41.384 -51.461  13.436  1.00  0.00    -0.354 N 
HETATM    2  C   UNL     1     -41.013 -52.728  13.022  1.00  0.00     0.236 C 
HETATM    3  O   UNL     1     -40.578 -52.982  11.901  1.00  0.00    -0.272 OA
HETATM    4  H   UNL     1     -41.938 -51.403  14.288  1.00  0.00     0.162 HD
ENDROOT
BRANCH   1   5
HETATM    5  C   UNL     1     -41.230 -50.287  12.565  1.00  0.00     0.098 C 
HETATM    6  C   UNL     1     -42.160 -49.101  12.901  1.00  0.00     0.059 C 
HETATM    7  C   UNL     1     -41.005 -48.169  12.442  1.00  0.00     0.133 C 
HETATM    8  C   UNL     1     -40.016 -49.333  12.869  1.00  0.00     0.006 C 
HETATM    9  C   UNL     1     -38.817 -49.512  11.925  1.00  0.00     0.014 C 
HETATM   10  C   UNL     1     -39.542 -49.158  14.329  1.00  0.00     0.014 C 
HETATM   11  C   UNL     1     -37.934 -50.671  12.383  1.00  0.00     0.001 C 
HETATM   12  C   UNL     1     -37.437 -50.456  13.807  1.00  0.00     0.000 C 
HETATM   13  C   UNL     1     -38.605 -50.281  14.771  1.00  0.00     0.001 C 
BRANCH   7  14
HETATM   14  O   UNL     1     -41.005 -47.819  11.035  1.00  0.00    -0.385 OA
BRANCH  14  15
HETATM   15  C   UNL     1     -40.856 -46.436  10.725  1.00  0.00     0.163 C 
HETATM   16  C   UNL     1     -39.951 -45.793  11.756  1.00  0.00     0.033 C 
ENDBRANCH  14  15
ENDBRANCH   7  14
ENDBRANCH   1   5
BRANCH   2  17
HETATM   17  C   UNL     1     -41.257 -53.826  14.051  1.00  0.00     0.235 C 
BRANCH  17  18
HETATM   18  N   UNL     1     -42.690 -54.023  14.246  1.00  0.00    -0.301 N 
HETATM   19  C   UNL     1     -43.511 -54.239  13.160  1.00  0.00     0.102 A 
HETATM   20  C   UNL     1     -44.829 -54.394  13.292  1.00  0.00     0.092 A 
HETATM   21  C   UNL     1     -45.417 -54.332  14.640  1.00  0.00     0.250 A 
HETATM   22  O   UNL     1     -46.626 -54.436  14.808  1.00  0.00    -0.268 OA
HETATM   23  N   UNL     1     -44.536 -54.144  15.666  1.00  0.00    -0.275 N 
HETATM   24  C   UNL     1     -43.190 -53.924  15.536  1.00  0.00     0.329 A 
HETATM   25  H   UNL     1     -44.924 -54.075  16.593  1.00  0.00     0.173 HD
HETATM   26  O   UNL     1     -42.494 -53.640  16.511  1.00  0.00    -0.246 OA
ENDBRANCH  17  18
ENDBRANCH   2  17
TORSDOF 5
ENDMDL
