MODEL 1
REMARK VINA RESULT:      -6.4      0.000      0.000
REMARK  4 active torsions:
REMARK  status: ('A' for Active; 'I' for Inactive)
REMARK    1  A    between atoms: N_5  and  C_6 
REMARK    2  A    between atoms: C_6  and  C_7 
REMARK    3  A    between atoms: C_7  and  O_8 
REMARK    4  A    between atoms: C_7  and  C_9 
ROOT
HETATM    1  C   UNL     1     -42.426 -55.673  16.059  1.00  0.00     0.161 C 
HETATM    2  N   UNL     1     -42.756 -54.828  14.950  1.00  0.00    -0.302 N 
HETATM    3  C   UNL     1     -44.039 -54.666  14.388  1.00  0.00     0.329 A 
HETATM    4  O   UNL     1     -45.073 -55.232  14.711  1.00  0.00    -0.246 OA
HETATM    5  N   UNL     1     -43.906 -53.708  13.364  1.00  0.00    -0.295 N 
HETATM    6  C   UNL     1     -42.559 -53.323  13.272  1.00  0.00     0.066 A 
HETATM    7  C   UNL     1     -41.940 -52.438  12.414  1.00  0.00     0.032 A 
HETATM    8  C   UNL     1     -40.563 -52.254  12.572  1.00  0.00     0.002 A 
HETATM    9  C   UNL     1     -39.847 -52.944  13.572  1.00  0.00     0.002 A 
HETATM   10  C   UNL     1     -40.493 -53.836  14.435  1.00  0.00     0.032 A 
HETATM   11  C   UNL     1     -41.851 -54.011  14.258  1.00  0.00     0.065 A 
ENDROOT
BRANCH   5  12
HETATM   12  C   UNL     1     -44.989 -53.200  12.553  1.00  0.00     0.170 C 
BRANCH  12  13
HETATM   13  C   UNL     1     -45.350 -51.732  12.870  1.00  0.00     0.172 C 
BRANCH  13  14
HETATM   14  O   UNL     1     -46.466 -51.288  12.086  1.00  0.00    -0.389 OA
HETATM   15  H   UNL     1     -47.010 -52.066  11.866  1.00  0.00     0.210 HD
ENDBRANCH  13  14
BRANCH  13  16
HETATM   16  C   UNL     1     -45.662 -51.395  14.315  1.00  0.00     0.011 A 
HETATM   17  C   UNL     1     -46.950 -51.681  14.809  1.00  0.00     0.013 A 
HETATM   18  C   UNL     1     -47.300 -51.390  16.131  1.00  0.00     0.001 A 
HETATM   19  C   UNL     1     -46.372 -50.802  16.985  1.00  0.00     0.003 A 
HETATM   20  C   UNL     1     -45.095 -50.511  16.517  1.00  0.00     0.043 A 
HETATM   21  C   UNL     1     -44.751 -50.807  15.199  1.00  0.00     0.125 A 
HETATM   22  F   UNL     1     -43.505 -50.507  14.805  1.00  0.00    -0.205 F 
ENDBRANCH  13  16
ENDBRANCH  12  13
ENDBRANCH   5  12
TORSDOF 4
ENDMDL
MODEL 2
REMARK VINA RESULT:      -6.1      2.543      5.410
REMARK  4 active torsions:
REMARK  status: ('A' for Active; 'I' for Inactive)
REMARK    1  A    between atoms: N_5  and  C_6 
REMARK    2  A    between atoms: C_6  and  C_7 
REMARK    3  A    between atoms: C_7  and  O_8 
REMARK    4  A    between atoms: C_7  and  C_9 
ROOT
HETATM    1  C   UNL     1     -43.336 -50.358  17.266  1.00  0.00     0.161 C 
HETATM    2  N   UNL     1     -43.390 -50.718  15.880  1.00  0.00    -0.302 N 
HETATM    3  C   UNL     1     -42.284 -50.831  15.013  1.00  0.00     0.329 A 
HETATM    4  O   UNL     1     -41.109 -50.610  15.267  1.00  0.00    -0.246 OA
HETATM    5  N   UNL     1     -42.795 -51.257  13.771  1.00  0.00    -0.295 N 
HETATM    6  C   UNL     1     -44.191 -51.361  13.864  1.00  0.00     0.066 A 
HETATM    7  C   UNL     1     -45.126 -51.716  12.914  1.00  0.00     0.032 A 
HETATM    8  C   UNL     1     -46.466 -51.735  13.313  1.00  0.00     0.002 A 
HETATM    9  C   UNL     1     -46.836 -51.412  14.635  1.00  0.00     0.002 A 
HETATM   10  C   UNL     1     -45.873 -51.058  15.587  1.00  0.00     0.032 A 
HETATM   11  C   UNL     1     -44.557 -51.035  15.171  1.00  0.00     0.065 A 
ENDROOT
BRANCH   5  12
HETATM   12  C   UNL     1     -42.000 -51.549  12.600  1.00  0.00     0.170 C 
BRANCH  12  13
HETATM   13  C   UNL     1     -41.696 -53.054  12.431  1.00  0.00     0.172 C 
BRANCH  13  14
HETATM   14  O   UNL     1     -40.656 -53.272  11.467  1.00  0.00    -0.389 OA
HETATM   15  H   UNL     1     -39.927 -52.656  11.666  1.00  0.00     0.210 HD
ENDBRANCH  13  14
BRANCH  13  16
HETATM   16  C   UNL     1     -41.311 -53.824  13.679  1.00  0.00     0.011 A 
HETATM   17  C   UNL     1     -39.955 -53.855  14.058  1.00  0.00     0.013 A 
HETATM   18  C   UNL     1     -39.536 -54.552  15.195  1.00  0.00     0.001 A 
HETATM   19  C   UNL     1     -40.463 -55.235  15.975  1.00  0.00     0.003 A 
HETATM   20  C   UNL     1     -41.808 -55.218  15.618  1.00  0.00     0.043 A 
HETATM   21  C   UNL     1     -42.219 -54.518  14.485  1.00  0.00     0.125 A 
HETATM   22  F   UNL     1     -43.527 -54.535  14.192  1.00  0.00    -0.205 F 
ENDBRANCH  13  16
ENDBRANCH  12  13
ENDBRANCH   5  12
TORSDOF 4
ENDMDL
MODEL 3
REMARK VINA RESULT:      -5.8      2.761      5.788
REMARK  4 active torsions:
REMARK  status: ('A' for Active; 'I' for Inactive)
REMARK    1  A    between atoms: N_5  and  C_6 
REMARK    2  A    between atoms: C_6  and  C_7 
REMARK    3  A    between atoms: C_7  and  O_8 
REMARK    4  A    between atoms: C_7  and  C_9 
ROOT
HETATM    1  C   UNL     1     -44.738 -50.440  16.279  1.00  0.00     0.161 C 
HETATM    2  N   UNL     1     -44.322 -51.207  15.142  1.00  0.00    -0.302 N 
HETATM    3  C   UNL     1     -43.375 -50.806  14.178  1.00  0.00     0.329 A 
HETATM    4  O   UNL     1     -42.778 -49.741  14.113  1.00  0.00    -0.246 OA
HETATM    5  N   UNL     1     -43.239 -51.886  13.282  1.00  0.00    -0.295 N 
HETATM    6  C   UNL     1     -44.117 -52.910  13.667  1.00  0.00     0.066 A 
HETATM    7  C   UNL     1     -44.358 -54.142  13.094  1.00  0.00     0.032 A 
HETATM    8  C   UNL     1     -45.302 -54.963  13.720  1.00  0.00     0.002 A 
HETATM    9  C   UNL     1     -45.968 -54.543  14.890  1.00  0.00     0.002 A 
HETATM   10  C   UNL     1     -45.708 -53.292  15.459  1.00  0.00     0.032 A 
HETATM   11  C   UNL     1     -44.780 -52.492  14.822  1.00  0.00     0.065 A 
ENDROOT
BRANCH   5  12
HETATM   12  C   UNL     1     -42.330 -51.926  12.160  1.00  0.00     0.170 C 
BRANCH  12  13
HETATM   13  C   UNL     1     -40.947 -52.514  12.518  1.00  0.00     0.172 C 
BRANCH  13  14
HETATM   14  O   UNL     1     -40.487 -53.421  11.506  1.00  0.00    -0.389 OA
HETATM   15  H   UNL     1     -41.145 -54.134  11.417  1.00  0.00     0.210 HD
ENDBRANCH  13  14
BRANCH  13  16
HETATM   16  C   UNL     1     -39.824 -51.528  12.772  1.00  0.00     0.011 A 
HETATM   17  C   UNL     1     -39.785 -50.343  12.012  1.00  0.00     0.013 A 
HETATM   18  C   UNL     1     -38.772 -49.396  12.195  1.00  0.00     0.001 A 
HETATM   19  C   UNL     1     -37.775 -49.617  13.139  1.00  0.00     0.003 A 
HETATM   20  C   UNL     1     -37.794 -50.782  13.901  1.00  0.00     0.043 A 
HETATM   21  C   UNL     1     -38.808 -51.720  13.715  1.00  0.00     0.125 A 
HETATM   22  F   UNL     1     -38.776 -52.820  14.479  1.00  0.00    -0.205 F 
ENDBRANCH  13  16
ENDBRANCH  12  13
ENDBRANCH   5  12
TORSDOF 4
ENDMDL
MODEL 4
REMARK VINA RESULT:      -5.8      2.220      3.226
REMARK  4 active torsions:
REMARK  status: ('A' for Active; 'I' for Inactive)
REMARK    1  A    between atoms: N_5  and  C_6 
REMARK    2  A    between atoms: C_6  and  C_7 
REMARK    3  A    between atoms: C_7  and  O_8 
REMARK    4  A    between atoms: C_7  and  C_9 
ROOT
HETATM    1  C   UNL     1     -38.828 -53.317  16.031  1.00  0.00     0.161 C 
HETATM    2  N   UNL     1     -40.007 -53.164  15.233  1.00  0.00    -0.302 N 
HETATM    3  C   UNL     1     -40.239 -52.142  14.290  1.00  0.00     0.329 A 
HETATM    4  O   UNL     1     -39.510 -51.200  14.013  1.00  0.00    -0.246 OA
HETATM    5  N   UNL     1     -41.494 -52.415  13.708  1.00  0.00    -0.295 N 
HETATM    6  C   UNL     1     -42.038 -53.557  14.315  1.00  0.00     0.066 A 
HETATM    7  C   UNL     1     -43.244 -54.193  14.102  1.00  0.00     0.032 A 
HETATM    8  C   UNL     1     -43.508 -55.332  14.869  1.00  0.00     0.002 A 
HETATM    9  C   UNL     1     -42.573 -55.808  15.811  1.00  0.00     0.002 A 
HETATM   10  C   UNL     1     -41.353 -55.152  16.011  1.00  0.00     0.032 A 
HETATM   11  C   UNL     1     -41.114 -54.024  15.252  1.00  0.00     0.065 A 
ENDROOT
BRANCH   5  12
HETATM   12  C   UNL     1     -42.106 -51.645  12.650  1.00  0.00     0.170 C 
BRANCH  12  13
HETATM   13  C   UNL     1     -42.950 -50.460  13.170  1.00  0.00     0.172 C 
BRANCH  13  14
HETATM   14  O   UNL     1     -43.257 -49.536  12.117  1.00  0.00    -0.389 OA
HETATM   15  H   UNL     1     -44.168 -49.217  12.251  1.00  0.00     0.210 HD
ENDBRANCH  13  14
BRANCH  13  16
HETATM   16  C   UNL     1     -44.258 -50.796  13.859  1.00  0.00     0.011 A 
HETATM   17  C   UNL     1     -45.343 -51.227  13.070  1.00  0.00     0.013 A 
HETATM   18  C   UNL     1     -46.576 -51.547  13.644  1.00  0.00     0.001 A 
HETATM   19  C   UNL     1     -46.753 -51.439  15.020  1.00  0.00     0.003 A 
HETATM   20  C   UNL     1     -45.695 -51.015  15.818  1.00  0.00     0.043 A 
HETATM   21  C   UNL     1     -44.466 -50.700  15.239  1.00  0.00     0.125 A 
HETATM   22  F   UNL     1     -43.484 -50.301  16.058  1.00  0.00    -0.205 F 
ENDBRANCH  13  16
ENDBRANCH  12  13
ENDBRANCH   5  12
TORSDOF 4
ENDMDL
MODEL 5
REMARK VINA RESULT:      -5.8      3.668      5.344
REMARK  4 active torsions:
REMARK  status: ('A' for Active; 'I' for Inactive)
REMARK    1  A    between atoms: N_5  and  C_6 
REMARK    2  A    between atoms: C_6  and  C_7 
REMARK    3  A    between atoms: C_7  and  O_8 
REMARK    4  A    between atoms: C_7  and  C_9 
ROOT
HETATM    1  C   UNL     1     -43.091 -48.190  15.553  1.00  0.00     0.161 C 
HETATM    2  N   UNL     1     -42.415 -48.813  14.454  1.00  0.00    -0.302 N 
HETATM    3  C   UNL     1     -41.709 -50.032  14.504  1.00  0.00     0.329 A 
HETATM    4  O   UNL     1     -41.515 -50.745  15.478  1.00  0.00    -0.246 OA
HETATM    5  N   UNL     1     -41.259 -50.284  13.192  1.00  0.00    -0.295 N 
HETATM    6  C   UNL     1     -41.646 -49.219  12.365  1.00  0.00     0.066 A 
HETATM    7  C   UNL     1     -41.418 -49.003  11.022  1.00  0.00     0.032 A 
HETATM    8  C   UNL     1     -41.943 -47.832  10.466  1.00  0.00     0.002 A 
HETATM    9  C   UNL     1     -42.677 -46.920  11.252  1.00  0.00     0.002 A 
HETATM   10  C   UNL     1     -42.901 -47.157  12.613  1.00  0.00     0.032 A 
HETATM   11  C   UNL     1     -42.367 -48.314  13.146  1.00  0.00     0.065 A 
ENDROOT
BRANCH   5  12
HETATM   12  C   UNL     1     -40.529 -51.459  12.774  1.00  0.00     0.170 C 
BRANCH  12  13
HETATM   13  C   UNL     1     -41.402 -52.478  12.008  1.00  0.00     0.172 C 
BRANCH  13  14
HETATM   14  O   UNL     1     -40.596 -53.406  11.269  1.00  0.00    -0.389 OA
HETATM   15  H   UNL     1     -41.123 -54.212  11.120  1.00  0.00     0.210 HD
ENDBRANCH  13  14
BRANCH  13  16
HETATM   16  C   UNL     1     -42.383 -53.296  12.825  1.00  0.00     0.011 A 
HETATM   17  C   UNL     1     -43.749 -53.245  12.485  1.00  0.00     0.013 A 
HETATM   18  C   UNL     1     -44.703 -53.973  13.201  1.00  0.00     0.001 A 
HETATM   19  C   UNL     1     -44.312 -54.764  14.277  1.00  0.00     0.003 A 
HETATM   20  C   UNL     1     -42.968 -54.828  14.631  1.00  0.00     0.043 A 
HETATM   21  C   UNL     1     -42.022 -54.102  13.910  1.00  0.00     0.125 A 
HETATM   22  F   UNL     1     -40.742 -54.206  14.295  1.00  0.00    -0.205 F 
ENDBRANCH  13  16
ENDBRANCH  12  13
ENDBRANCH   5  12
TORSDOF 4
ENDMDL
MODEL 6
REMARK VINA RESULT:      -5.6      2.424      5.324
REMARK  4 active torsions:
REMARK  status: ('A' for Active; 'I' for Inactive)
REMARK    1  A    between atoms: N_5  and  C_6 
REMARK    2  A    between atoms: C_6  and  C_7 
REMARK    3  A    between atoms: C_7  and  O_8 
REMARK    4  A    between atoms: C_7  and  C_9 
ROOT
HETATM    1  C   UNL     1     -46.146 -54.060  15.049  1.00  0.00     0.161 C 
HETATM    2  N   UNL     1     -45.095 -53.223  14.551  1.00  0.00    -0.302 N 
HETATM    3  C   UNL     1     -44.321 -53.467  13.399  1.00  0.00     0.329 A 
HETATM    4  O   UNL     1     -44.375 -54.433  12.652  1.00  0.00    -0.246 OA
HETATM    5  N   UNL     1     -43.453 -52.364  13.263  1.00  0.00    -0.295 N 
HETATM    6  C   UNL     1     -43.663 -51.484  14.336  1.00  0.00     0.066 A 
HETATM    7  C   UNL     1     -43.043 -50.292  14.647  1.00  0.00     0.032 A 
HETATM    8  C   UNL     1     -43.480 -49.627  15.797  1.00  0.00     0.002 A 
HETATM    9  C   UNL     1     -44.515 -50.157  16.594  1.00  0.00     0.002 A 
HETATM   10  C   UNL     1     -45.135 -51.366  16.260  1.00  0.00     0.032 A 
HETATM   11  C   UNL     1     -44.684 -52.013  15.127  1.00  0.00     0.065 A 
ENDROOT
BRANCH   5  12
HETATM   12  C   UNL     1     -42.512 -52.175  12.183  1.00  0.00     0.170 C 
BRANCH  12  13
HETATM   13  C   UNL     1     -41.108 -52.738  12.493  1.00  0.00     0.172 C 
BRANCH  13  14
HETATM   14  O   UNL     1     -40.574 -53.458  11.373  1.00  0.00    -0.389 OA
HETATM   15  H   UNL     1     -39.605 -53.493  11.470  1.00  0.00     0.210 HD
ENDBRANCH  13  14
BRANCH  13  16
HETATM   16  C   UNL     1     -40.047 -51.745  12.926  1.00  0.00     0.011 A 
HETATM   17  C   UNL     1     -39.369 -51.972  14.141  1.00  0.00     0.013 A 
HETATM   18  C   UNL     1     -38.385 -51.091  14.597  1.00  0.00     0.001 A 
HETATM   19  C   UNL     1     -38.059 -49.962  13.852  1.00  0.00     0.003 A 
HETATM   20  C   UNL     1     -38.717 -49.719  12.650  1.00  0.00     0.043 A 
HETATM   21  C   UNL     1     -39.696 -50.603  12.199  1.00  0.00     0.125 A 
HETATM   22  F   UNL     1     -40.293 -50.318  11.034  1.00  0.00    -0.205 F 
ENDBRANCH  13  16
ENDBRANCH  12  13
ENDBRANCH   5  12
TORSDOF 4
ENDMDL
MODEL 7
REMARK VINA RESULT:      -5.6     15.224     16.260
REMARK  4 active torsions:
REMARK  status: ('A' for Active; 'I' for Inactive)
REMARK    1  A    between atoms: N_5  and  C_6 
REMARK    2  A    between atoms: C_6  and  C_7 
REMARK    3  A    between atoms: C_7  and  O_8 
REMARK    4  A    between atoms: C_7  and  C_9 
ROOT
HETATM    1  C   UNL     1     -48.343 -53.753  -1.261  1.00  0.00     0.161 C 
HETATM    2  N   UNL     1     -49.280 -52.706  -0.981  1.00  0.00    -0.302 N 
HETATM    3  C   UNL     1     -48.956 -51.371  -0.665  1.00  0.00     0.329 A 
HETATM    4  O   UNL     1     -47.843 -50.881  -0.538  1.00  0.00    -0.246 OA
HETATM    5  N   UNL     1     -50.181 -50.688  -0.522  1.00  0.00    -0.295 N 
HETATM    6  C   UNL     1     -51.233 -51.598  -0.704  1.00  0.00     0.066 A 
HETATM    7  C   UNL     1     -52.598 -51.409  -0.638  1.00  0.00     0.032 A 
HETATM    8  C   UNL     1     -53.408 -52.524  -0.876  1.00  0.00     0.002 A 
HETATM    9  C   UNL     1     -52.845 -53.781  -1.176  1.00  0.00     0.002 A 
HETATM   10  C   UNL     1     -51.458 -53.953  -1.242  1.00  0.00     0.032 A 
HETATM   11  C   UNL     1     -50.674 -52.844  -0.995  1.00  0.00     0.065 A 
ENDROOT
BRANCH   5  12
HETATM   12  C   UNL     1     -50.319 -49.277  -0.246  1.00  0.00     0.170 C 
BRANCH  12  13
HETATM   13  C   UNL     1     -50.248 -48.941   1.260  1.00  0.00     0.172 C 
BRANCH  13  14
HETATM   14  O   UNL     1     -48.958 -49.253   1.805  1.00  0.00    -0.389 OA
HETATM   15  H   UNL     1     -48.899 -48.852   2.691  1.00  0.00     0.210 HD
ENDBRANCH  13  14
BRANCH  13  16
HETATM   16  C   UNL     1     -50.565 -47.515   1.664  1.00  0.00     0.011 A 
HETATM   17  C   UNL     1     -49.496 -46.621   1.871  1.00  0.00     0.013 A 
HETATM   18  C   UNL     1     -49.723 -45.294   2.249  1.00  0.00     0.001 A 
HETATM   19  C   UNL     1     -51.023 -44.834   2.433  1.00  0.00     0.003 A 
HETATM   20  C   UNL     1     -52.094 -45.701   2.234  1.00  0.00     0.043 A 
HETATM   21  C   UNL     1     -51.860 -47.022   1.854  1.00  0.00     0.125 A 
HETATM   22  F   UNL     1     -52.930 -47.809   1.675  1.00  0.00    -0.205 F 
ENDBRANCH  13  16
ENDBRANCH  12  13
ENDBRANCH   5  12
TORSDOF 4
ENDMDL
MODEL 8
REMARK VINA RESULT:      -5.5      2.402      4.541
REMARK  4 active torsions:
REMARK  status: ('A' for Active; 'I' for Inactive)
REMARK    1  A    between atoms: N_5  and  C_6 
REMARK    2  A    between atoms: C_6  and  C_7 
REMARK    3  A    between atoms: C_7  and  O_8 
REMARK    4  A    between atoms: C_7  and  C_9 
ROOT
HETATM    1  C   UNL     1     -44.411 -54.166  17.494  1.00  0.00     0.161 C 
HETATM    2  N   UNL     1     -44.233 -53.805  16.119  1.00  0.00    -0.302 N 
HETATM    3  C   UNL     1     -43.200 -54.259  15.274  1.00  0.00     0.329 A 
HETATM    4  O   UNL     1     -42.268 -54.996  15.561  1.00  0.00    -0.246 OA
HETATM    5  N   UNL     1     -43.448 -53.695  14.006  1.00  0.00    -0.295 N 
HETATM    6  C   UNL     1     -44.586 -52.878  14.086  1.00  0.00     0.066 A 
HETATM    7  C   UNL     1     -45.200 -52.106  13.121  1.00  0.00     0.032 A 
HETATM    8  C   UNL     1     -46.342 -51.394  13.505  1.00  0.00     0.002 A 
HETATM    9  C   UNL     1     -46.839 -51.475  14.822  1.00  0.00     0.002 A 
HETATM   10  C   UNL     1     -46.205 -52.266  15.786  1.00  0.00     0.032 A 
HETATM   11  C   UNL     1     -45.075 -52.953  15.391  1.00  0.00     0.065 A 
ENDROOT
BRANCH   5  12
HETATM   12  C   UNL     1     -42.660 -53.937  12.819  1.00  0.00     0.170 C 
BRANCH  12  13
HETATM   13  C   UNL     1     -41.293 -53.219  12.840  1.00  0.00     0.172 C 
BRANCH  13  14
HETATM   14  O   UNL     1     -40.609 -53.360  11.587  1.00  0.00    -0.389 OA
HETATM   15  H   UNL     1     -40.528 -52.476  11.186  1.00  0.00     0.210 HD
ENDBRANCH  13  14
BRANCH  13  16
HETATM   16  C   UNL     1     -41.296 -51.740  13.177  1.00  0.00     0.011 A 
HETATM   17  C   UNL     1     -41.794 -50.833  12.221  1.00  0.00     0.013 A 
HETATM   18  C   UNL     1     -41.819 -49.458  12.469  1.00  0.00     0.001 A 
HETATM   19  C   UNL     1     -41.343 -48.959  13.678  1.00  0.00     0.003 A 
HETATM   20  C   UNL     1     -40.847 -49.838  14.637  1.00  0.00     0.043 A 
HETATM   21  C   UNL     1     -40.828 -51.208  14.383  1.00  0.00     0.125 A 
HETATM   22  F   UNL     1     -40.341 -52.005  15.345  1.00  0.00    -0.205 F 
ENDBRANCH  13  16
ENDBRANCH  12  13
ENDBRANCH   5  12
TORSDOF 4
ENDMDL
MODEL 9
REMARK VINA RESULT:      -5.5      3.424      5.283
REMARK  4 active torsions:
REMARK  status: ('A' for Active; 'I' for Inactive)
REMARK    1  A    between atoms: N_5  and  C_6 
REMARK    2  A    between atoms: C_6  and  C_7 
REMARK    3  A    between atoms: C_7  and  O_8 
REMARK    4  A    between atoms: C_7  and  C_9 
ROOT
HETATM    1  C   UNL     1     -38.326 -49.555  14.880  1.00  0.00     0.161 C 
HETATM    2  N   UNL     1     -39.397 -50.210  14.191  1.00  0.00    -0.302 N 
HETATM    3  C   UNL     1     -39.266 -51.302  13.309  1.00  0.00     0.329 A 
HETATM    4  O   UNL     1     -38.236 -51.853  12.949  1.00  0.00    -0.246 OA
HETATM    5  N   UNL     1     -40.573 -51.651  12.912  1.00  0.00    -0.295 N 
HETATM    6  C   UNL     1     -41.482 -50.762  13.506  1.00  0.00     0.066 A 
HETATM    7  C   UNL     1     -42.855 -50.687  13.401  1.00  0.00     0.032 A 
HETATM    8  C   UNL     1     -43.497 -49.680  14.129  1.00  0.00     0.002 A 
HETATM    9  C   UNL     1     -42.763 -48.789  14.939  1.00  0.00     0.002 A 
HETATM   10  C   UNL     1     -41.370 -48.883  15.036  1.00  0.00     0.032 A 
HETATM   11  C   UNL     1     -40.754 -49.877  14.303  1.00  0.00     0.065 A 
ENDROOT
BRANCH   5  12
HETATM   12  C   UNL     1     -40.912 -52.755  12.044  1.00  0.00     0.170 C 
BRANCH  12  13
HETATM   13  C   UNL     1     -40.888 -54.123  12.761  1.00  0.00     0.172 C 
BRANCH  13  14
HETATM   14  O   UNL     1     -39.557 -54.483  13.156  1.00  0.00    -0.389 OA
HETATM   15  H   UNL     1     -38.932 -53.929  12.653  1.00  0.00     0.210 HD
ENDBRANCH  13  14
BRANCH  13  16
HETATM   16  C   UNL     1     -41.769 -54.275  13.986  1.00  0.00     0.011 A 
HETATM   17  C   UNL     1     -41.154 -54.367  15.250  1.00  0.00     0.013 A 
HETATM   18  C   UNL     1     -41.910 -54.513  16.416  1.00  0.00     0.001 A 
HETATM   19  C   UNL     1     -43.298 -54.575  16.343  1.00  0.00     0.003 A 
HETATM   20  C   UNL     1     -43.926 -54.486  15.105  1.00  0.00     0.043 A 
HETATM   21  C   UNL     1     -43.166 -54.337  13.946  1.00  0.00     0.125 A 
HETATM   22  F   UNL     1     -43.826 -54.255  12.783  1.00  0.00    -0.205 F 
ENDBRANCH  13  16
ENDBRANCH  12  13
ENDBRANCH   5  12
TORSDOF 4
ENDMDL
