MODEL 1
REMARK VINA RESULT:      -6.3      0.000      0.000
REMARK  3 active torsions:
REMARK  status: ('A' for Active; 'I' for Inactive)
REMARK       I    between atoms: N_1  and  C_2 
REMARK    1  A    between atoms: C_2  and  C_4 
REMARK    2  A    between atoms: C_10  and  N_11 
REMARK       I    between atoms: N_11  and  C_12 
REMARK       I    between atoms: C_12  and  N_14 
REMARK    3  A    between atoms: N_14  and  C_15 
ROOT
HETATM    1  C   UNL     1     -42.475 -53.085  13.167  1.00  0.00     0.100 C 
HETATM    2  C   UNL     1     -43.521 -53.705  12.225  1.00  0.00     0.016 C 
HETATM    3  C   UNL     1     -44.828 -54.012  12.953  1.00  0.00     0.001 C 
HETATM    4  C   UNL     1     -45.809 -52.855  13.115  1.00  0.00     0.000 C 
HETATM    5  C   UNL     1     -45.267 -51.451  13.360  1.00  0.00     0.002 C 
HETATM    6  C   UNL     1     -44.003 -51.345  14.208  1.00  0.00     0.026 C 
HETATM    7  C   UNL     1     -42.686 -51.586  13.439  1.00  0.00     0.099 C 
ENDROOT
BRANCH   7   8
HETATM    8  N   UNL     1     -42.578 -50.763  12.229  1.00  0.00    -0.337 N 
HETATM    9  C   UNL     1     -41.922 -49.545  12.248  1.00  0.00     0.322 C 
HETATM   10  O   UNL     1     -41.358 -49.129  13.252  1.00  0.00    -0.247 OA
HETATM   11  N   UNL     1     -41.967 -48.938  11.018  1.00  0.00    -0.289 N 
HETATM   12  H   UNL     1     -42.057 -49.519  10.201  1.00  0.00     0.172 HD
HETATM   13  H   UNL     1     -43.308 -50.844  11.535  1.00  0.00     0.164 HD
BRANCH  11  14
HETATM   14  C   UNL     1     -41.439 -47.689  10.834  1.00  0.00     0.152 A 
HETATM   15  N   UNL     1     -40.196 -47.294  10.936  1.00  0.00    -0.346 N 
HETATM   16  C   UNL     1     -40.108 -45.964  10.582  1.00  0.00     0.097 A 
ATOM     17  HN  UNL     1     -39.413 -47.878  11.231  1.00  0.00     0.167 HD
HETATM   18  C   UNL     1     -41.300 -45.363  10.237  1.00  0.00     0.070 A 
HETATM   19  S   UNL     1     -42.584 -46.491  10.419  1.00  0.00    -0.064 SA
ENDBRANCH  11  14
ENDBRANCH   7   8
BRANCH   1  20
HETATM   20  C   UNL     1     -41.057 -53.362  12.690  1.00  0.00     0.221 C 
HETATM   21  N   UNL     1     -40.869 -54.586  12.114  1.00  0.00    -0.370 N 
HETATM   22  H   UNL     1     -39.941 -54.814  11.780  1.00  0.00     0.159 HD
HETATM   23  H   UNL     1     -41.559 -55.324  12.139  1.00  0.00     0.159 HD
HETATM   24  O   UNL     1     -40.134 -52.560  12.790  1.00  0.00    -0.273 OA
ENDBRANCH   1  20
TORSDOF 3
ENDMDL
MODEL 2
REMARK VINA RESULT:      -5.7      5.350      6.799
REMARK  3 active torsions:
REMARK  status: ('A' for Active; 'I' for Inactive)
REMARK       I    between atoms: N_1  and  C_2 
REMARK    1  A    between atoms: C_2  and  C_4 
REMARK    2  A    between atoms: C_10  and  N_11 
REMARK       I    between atoms: N_11  and  C_12 
REMARK       I    between atoms: C_12  and  N_14 
REMARK    3  A    between atoms: N_14  and  C_15 
ROOT
HETATM    1  C   UNL     1     -46.376 -52.743  14.087  1.00  0.00     0.100 C 
HETATM    2  C   UNL     1     -46.471 -51.345  14.720  1.00  0.00     0.016 C 
HETATM    3  C   UNL     1     -47.505 -51.301  15.843  1.00  0.00     0.001 C 
HETATM    4  C   UNL     1     -47.044 -51.779  17.217  1.00  0.00     0.000 C 
HETATM    5  C   UNL     1     -46.066 -52.947  17.306  1.00  0.00     0.002 C 
HETATM    6  C   UNL     1     -46.218 -54.047  16.260  1.00  0.00     0.026 C 
HETATM    7  C   UNL     1     -45.544 -53.747  14.904  1.00  0.00     0.099 C 
ENDROOT
BRANCH   7   8
HETATM    8  N   UNL     1     -44.140 -53.346  15.045  1.00  0.00    -0.337 N 
HETATM    9  C   UNL     1     -43.145 -54.283  15.260  1.00  0.00     0.322 C 
HETATM   10  O   UNL     1     -43.383 -55.485  15.285  1.00  0.00    -0.247 OA
HETATM   11  N   UNL     1     -41.918 -53.684  15.389  1.00  0.00    -0.289 N 
HETATM   12  H   UNL     1     -41.770 -52.796  14.939  1.00  0.00     0.172 HD
HETATM   13  H   UNL     1     -43.946 -52.425  15.415  1.00  0.00     0.164 HD
BRANCH  11  14
HETATM   14  C   UNL     1     -40.804 -54.425  15.679  1.00  0.00     0.152 A 
HETATM   15  N   UNL     1     -40.631 -55.329  16.609  1.00  0.00    -0.346 N 
HETATM   16  C   UNL     1     -39.374 -55.881  16.482  1.00  0.00     0.097 A 
ATOM     17  HN  UNL     1     -41.319 -55.585  17.318  1.00  0.00     0.167 HD
HETATM   18  C   UNL     1     -38.601 -55.366  15.463  1.00  0.00     0.070 A 
HETATM   19  S   UNL     1     -39.460 -54.104  14.674  1.00  0.00    -0.064 SA
ENDBRANCH  11  14
ENDBRANCH   7   8
BRANCH   1  20
HETATM   20  C   UNL     1     -45.892 -52.675  12.646  1.00  0.00     0.221 C 
HETATM   21  N   UNL     1     -46.461 -51.689  11.891  1.00  0.00    -0.370 N 
HETATM   22  H   UNL     1     -46.168 -51.605  10.925  1.00  0.00     0.159 HD
HETATM   23  H   UNL     1     -47.256 -51.144  12.195  1.00  0.00     0.159 HD
HETATM   24  O   UNL     1     -45.046 -53.427  12.172  1.00  0.00    -0.273 OA
ENDBRANCH   1  20
TORSDOF 3
ENDMDL
MODEL 3
REMARK VINA RESULT:      -5.6      2.630      3.660
REMARK  3 active torsions:
REMARK  status: ('A' for Active; 'I' for Inactive)
REMARK       I    between atoms: N_1  and  C_2 
REMARK    1  A    between atoms: C_2  and  C_4 
REMARK    2  A    between atoms: C_10  and  N_11 
REMARK       I    between atoms: N_11  and  C_12 
REMARK       I    between atoms: C_12  and  N_14 
REMARK    3  A    between atoms: N_14  and  C_15 
ROOT
HETATM    1  C   UNL     1     -43.580 -54.708  14.049  1.00  0.00     0.100 C 
HETATM    2  C   UNL     1     -43.687 -54.504  15.570  1.00  0.00     0.016 C 
HETATM    3  C   UNL     1     -42.640 -55.319  16.326  1.00  0.00     0.001 C 
HETATM    4  C   UNL     1     -41.250 -54.702  16.446  1.00  0.00     0.000 C 
HETATM    5  C   UNL     1     -40.695 -53.892  15.279  1.00  0.00     0.002 C 
HETATM    6  C   UNL     1     -41.070 -54.365  13.878  1.00  0.00     0.026 C 
HETATM    7  C   UNL     1     -42.455 -53.894  13.385  1.00  0.00     0.099 C 
ENDROOT
BRANCH   7   8
HETATM    8  N   UNL     1     -42.641 -52.445  13.519  1.00  0.00    -0.337 N 
HETATM    9  C   UNL     1     -42.138 -51.569  12.574  1.00  0.00     0.322 C 
HETATM   10  O   UNL     1     -41.568 -51.963  11.564  1.00  0.00    -0.247 OA
HETATM   11  N   UNL     1     -42.404 -50.266  12.913  1.00  0.00    -0.289 N 
HETATM   12  H   UNL     1     -43.209 -50.077  13.487  1.00  0.00     0.172 HD
HETATM   13  H   UNL     1     -42.731 -52.063  14.450  1.00  0.00     0.164 HD
BRANCH  11  14
HETATM   14  C   UNL     1     -41.931 -49.233  12.149  1.00  0.00     0.152 A 
HETATM   15  N   UNL     1     -42.157 -48.967  10.888  1.00  0.00    -0.346 N 
HETATM   16  C   UNL     1     -41.542 -47.778  10.555  1.00  0.00     0.097 A 
ATOM     17  HN  UNL     1     -42.702 -49.547  10.251  1.00  0.00     0.167 HD
HETATM   18  C   UNL     1     -40.837 -47.171  11.573  1.00  0.00     0.070 A 
HETATM   19  S   UNL     1     -40.898 -48.155  12.980  1.00  0.00    -0.064 SA
ENDBRANCH  11  14
ENDBRANCH   7   8
BRANCH   1  20
HETATM   20  C   UNL     1     -44.912 -54.468  13.355  1.00  0.00     0.221 C 
HETATM   21  N   UNL     1     -45.985 -55.083  13.935  1.00  0.00    -0.370 N 
HETATM   22  H   UNL     1     -46.894 -54.951  13.508  1.00  0.00     0.159 HD
HETATM   23  H   UNL     1     -45.901 -55.775  14.668  1.00  0.00     0.159 HD
HETATM   24  O   UNL     1     -45.047 -53.770  12.355  1.00  0.00    -0.273 OA
ENDBRANCH   1  20
TORSDOF 3
ENDMDL
MODEL 4
REMARK VINA RESULT:      -5.6      2.932      4.007
REMARK  3 active torsions:
REMARK  status: ('A' for Active; 'I' for Inactive)
REMARK       I    between atoms: N_1  and  C_2 
REMARK    1  A    between atoms: C_2  and  C_4 
REMARK    2  A    between atoms: C_10  and  N_11 
REMARK       I    between atoms: N_11  and  C_12 
REMARK       I    between atoms: C_12  and  N_14 
REMARK    3  A    between atoms: N_14  and  C_15 
ROOT
HETATM    1  C   UNL     1     -45.629 -52.558  14.078  1.00  0.00     0.100 C 
HETATM    2  C   UNL     1     -46.568 -51.362  14.307  1.00  0.00     0.016 C 
HETATM    3  C   UNL     1     -47.204 -51.397  15.695  1.00  0.00     0.001 C 
HETATM    4  C   UNL     1     -46.372 -50.833  16.843  1.00  0.00     0.000 C 
HETATM    5  C   UNL     1     -44.861 -51.041  16.837  1.00  0.00     0.002 C 
HETATM    6  C   UNL     1     -44.356 -52.362  16.266  1.00  0.00     0.026 C 
HETATM    7  C   UNL     1     -44.243 -52.400  14.727  1.00  0.00     0.099 C 
ENDROOT
BRANCH   7   8
HETATM    8  N   UNL     1     -43.483 -51.268  14.186  1.00  0.00    -0.337 N 
HETATM    9  C   UNL     1     -42.192 -51.431  13.717  1.00  0.00     0.322 C 
HETATM   10  O   UNL     1     -41.650 -52.530  13.681  1.00  0.00    -0.247 OA
HETATM   11  N   UNL     1     -41.666 -50.240  13.285  1.00  0.00    -0.289 N 
HETATM   12  H   UNL     1     -42.299 -49.528  12.961  1.00  0.00     0.172 HD
HETATM   13  H   UNL     1     -43.696 -50.344  14.535  1.00  0.00     0.164 HD
BRANCH  11  14
HETATM   14  C   UNL     1     -40.371 -50.163  12.848  1.00  0.00     0.152 A 
HETATM   15  N   UNL     1     -39.760 -50.885  11.943  1.00  0.00    -0.346 N 
HETATM   16  C   UNL     1     -38.480 -50.405  11.763  1.00  0.00     0.097 A 
ATOM     17  HN  UNL     1     -40.167 -51.679  11.449  1.00  0.00     0.167 HD
HETATM   18  C   UNL     1     -38.133 -49.333  12.558  1.00  0.00     0.070 A 
HETATM   19  S   UNL     1     -39.438 -48.951  13.608  1.00  0.00    -0.064 SA
ENDBRANCH  11  14
ENDBRANCH   7   8
BRANCH   1  20
HETATM   20  C   UNL     1     -45.508 -52.901  12.601  1.00  0.00     0.221 C 
HETATM   21  N   UNL     1     -46.453 -52.332  11.795  1.00  0.00    -0.370 N 
HETATM   22  H   UNL     1     -46.411 -52.532  10.804  1.00  0.00     0.159 HD
HETATM   23  H   UNL     1     -47.269 -51.852  12.148  1.00  0.00     0.159 HD
HETATM   24  O   UNL     1     -44.630 -53.622  12.136  1.00  0.00    -0.273 OA
ENDBRANCH   1  20
TORSDOF 3
ENDMDL
MODEL 5
REMARK VINA RESULT:      -5.5      3.692      6.489
REMARK  3 active torsions:
REMARK  status: ('A' for Active; 'I' for Inactive)
REMARK       I    between atoms: N_1  and  C_2 
REMARK    1  A    between atoms: C_2  and  C_4 
REMARK    2  A    between atoms: C_10  and  N_11 
REMARK       I    between atoms: N_11  and  C_12 
REMARK       I    between atoms: C_12  and  N_14 
REMARK    3  A    between atoms: N_14  and  C_15 
ROOT
HETATM    1  C   UNL     1     -37.940 -49.207  12.513  1.00  0.00     0.100 C 
HETATM    2  C   UNL     1     -37.275 -49.208  13.900  1.00  0.00     0.016 C 
HETATM    3  C   UNL     1     -37.281 -47.818  14.533  1.00  0.00     0.001 C 
HETATM    4  C   UNL     1     -38.557 -47.403  15.259  1.00  0.00     0.000 C 
HETATM    5  C   UNL     1     -39.906 -47.848  14.701  1.00  0.00     0.002 C 
HETATM    6  C   UNL     1     -40.026 -47.924  13.182  1.00  0.00     0.026 C 
HETATM    7  C   UNL     1     -39.477 -49.224  12.555  1.00  0.00     0.099 C 
ENDROOT
BRANCH   7   8
HETATM    8  N   UNL     1     -40.020 -50.431  13.187  1.00  0.00    -0.337 N 
HETATM    9  C   UNL     1     -41.222 -50.977  12.773  1.00  0.00     0.322 C 
HETATM   10  O   UNL     1     -41.854 -50.514  11.832  1.00  0.00    -0.247 OA
HETATM   11  N   UNL     1     -41.548 -52.082  13.519  1.00  0.00    -0.289 N 
HETATM   12  H   UNL     1     -40.803 -52.611  13.941  1.00  0.00     0.172 HD
HETATM   13  H   UNL     1     -39.781 -50.608  14.153  1.00  0.00     0.164 HD
BRANCH  11  14
HETATM   14  C   UNL     1     -42.736 -52.734  13.322  1.00  0.00     0.152 A 
HETATM   15  N   UNL     1     -43.356 -53.002  12.201  1.00  0.00    -0.346 N 
HETATM   16  C   UNL     1     -44.482 -53.751  12.470  1.00  0.00     0.097 A 
ATOM     17  HN  UNL     1     -43.054 -52.704  11.274  1.00  0.00     0.167 HD
HETATM   18  C   UNL     1     -44.710 -54.020  13.803  1.00  0.00     0.070 A 
HETATM   19  S   UNL     1     -43.501 -53.258  14.756  1.00  0.00    -0.064 SA
ENDBRANCH  11  14
ENDBRANCH   7   8
BRANCH   1  20
HETATM   20  C   UNL     1     -37.403 -50.326  11.633  1.00  0.00     0.221 C 
HETATM   21  N   UNL     1     -37.244 -50.000  10.316  1.00  0.00    -0.370 N 
HETATM   22  H   UNL     1     -36.887 -50.713   9.692  1.00  0.00     0.159 HD
HETATM   23  H   UNL     1     -37.599 -49.147   9.907  1.00  0.00     0.159 HD
HETATM   24  O   UNL     1     -37.113 -51.444  12.048  1.00  0.00    -0.273 OA
ENDBRANCH   1  20
TORSDOF 3
ENDMDL
MODEL 6
REMARK VINA RESULT:      -5.3      1.824      2.036
REMARK  3 active torsions:
REMARK  status: ('A' for Active; 'I' for Inactive)
REMARK       I    between atoms: N_1  and  C_2 
REMARK    1  A    between atoms: C_2  and  C_4 
REMARK    2  A    between atoms: C_10  and  N_11 
REMARK       I    between atoms: N_11  and  C_12 
REMARK       I    between atoms: C_12  and  N_14 
REMARK    3  A    between atoms: N_14  and  C_15 
ROOT
HETATM    1  C   UNL     1     -43.710 -52.934  14.775  1.00  0.00     0.100 C 
HETATM    2  C   UNL     1     -44.652 -53.808  13.931  1.00  0.00     0.016 C 
HETATM    3  C   UNL     1     -45.961 -54.102  14.662  1.00  0.00     0.001 C 
HETATM    4  C   UNL     1     -47.046 -53.033  14.578  1.00  0.00     0.000 C 
HETATM    5  C   UNL     1     -46.640 -51.563  14.580  1.00  0.00     0.002 C 
HETATM    6  C   UNL     1     -45.431 -51.188  15.433  1.00  0.00     0.026 C 
HETATM    7  C   UNL     1     -44.064 -51.437  14.762  1.00  0.00     0.099 C 
ENDROOT
BRANCH   7   8
HETATM    8  N   UNL     1     -43.970 -50.838  13.426  1.00  0.00    -0.337 N 
HETATM    9  C   UNL     1     -43.368 -49.607  13.234  1.00  0.00     0.322 C 
HETATM   10  O   UNL     1     -42.841 -48.994  14.154  1.00  0.00    -0.247 OA
HETATM   11  N   UNL     1     -43.418 -49.231  11.916  1.00  0.00    -0.289 N 
HETATM   12  H   UNL     1     -43.468 -49.951  11.214  1.00  0.00     0.172 HD
HETATM   13  H   UNL     1     -44.684 -51.074  12.751  1.00  0.00     0.164 HD
BRANCH  11  14
HETATM   14  C   UNL     1     -42.942 -48.011  11.517  1.00  0.00     0.152 A 
HETATM   15  N   UNL     1     -43.413 -46.817  11.771  1.00  0.00    -0.346 N 
HETATM   16  C   UNL     1     -42.566 -45.869  11.238  1.00  0.00     0.097 A 
ATOM     17  HN  UNL     1     -44.272 -46.618  12.284  1.00  0.00     0.167 HD
HETATM   18  C   UNL     1     -41.471 -46.365  10.562  1.00  0.00     0.070 A 
HETATM   19  S   UNL     1     -41.537 -48.082  10.547  1.00  0.00    -0.064 SA
ENDBRANCH  11  14
ENDBRANCH   7   8
BRANCH   1  20
HETATM   20  C   UNL     1     -42.252 -53.157  14.402  1.00  0.00     0.221 C 
HETATM   21  N   UNL     1     -41.872 -54.465  14.310  1.00  0.00    -0.370 N 
HETATM   22  H   UNL     1     -40.910 -54.662  14.062  1.00  0.00     0.159 HD
HETATM   23  H   UNL     1     -42.449 -55.235  14.619  1.00  0.00     0.159 HD
HETATM   24  O   UNL     1     -41.457 -52.249  14.181  1.00  0.00    -0.273 OA
ENDBRANCH   1  20
TORSDOF 3
ENDMDL
MODEL 7
REMARK VINA RESULT:      -5.2      4.904      6.737
REMARK  3 active torsions:
REMARK  status: ('A' for Active; 'I' for Inactive)
REMARK       I    between atoms: N_1  and  C_2 
REMARK    1  A    between atoms: C_2  and  C_4 
REMARK    2  A    between atoms: C_10  and  N_11 
REMARK       I    between atoms: N_11  and  C_12 
REMARK       I    between atoms: C_12  and  N_14 
REMARK    3  A    between atoms: N_14  and  C_15 
ROOT
HETATM    1  C   UNL     1     -42.586 -47.133  10.167  1.00  0.00     0.100 C 
HETATM    2  C   UNL     1     -43.669 -47.815  11.020  1.00  0.00     0.016 C 
HETATM    3  C   UNL     1     -43.062 -48.726  12.085  1.00  0.00     0.001 C 
HETATM    4  C   UNL     1     -42.608 -48.057  13.379  1.00  0.00     0.000 C 
HETATM    5  C   UNL     1     -41.993 -46.663  13.318  1.00  0.00     0.002 C 
HETATM    6  C   UNL     1     -41.135 -46.347  12.096  1.00  0.00     0.026 C 
HETATM    7  C   UNL     1     -41.927 -45.918  10.842  1.00  0.00     0.099 C 
ENDROOT
BRANCH   7   8
HETATM    8  N   UNL     1     -42.874 -44.831  11.115  1.00  0.00    -0.337 N 
HETATM    9  C   UNL     1     -42.492 -43.506  11.009  1.00  0.00     0.322 C 
HETATM   10  O   UNL     1     -41.372 -43.183  10.632  1.00  0.00    -0.247 OA
HETATM   11  N   UNL     1     -43.526 -42.664  11.335  1.00  0.00    -0.289 N 
HETATM   12  H   UNL     1     -44.468 -42.992  11.207  1.00  0.00     0.172 HD
HETATM   13  H   UNL     1     -43.622 -45.009  11.771  1.00  0.00     0.164 HD
BRANCH  11  14
HETATM   14  C   UNL     1     -43.341 -41.308  11.366  1.00  0.00     0.152 A 
HETATM   15  N   UNL     1     -42.267 -40.614  11.090  1.00  0.00    -0.346 N 
HETATM   16  C   UNL     1     -42.558 -39.269  11.172  1.00  0.00     0.097 A 
ATOM     17  HN  UNL     1     -41.356 -41.006  10.851  1.00  0.00     0.167 HD
HETATM   18  C   UNL     1     -43.853 -38.964  11.535  1.00  0.00     0.070 A 
HETATM   19  S   UNL     1     -44.719 -40.417  11.840  1.00  0.00    -0.064 SA
ENDBRANCH  11  14
ENDBRANCH   7   8
BRANCH   1  20
HETATM   20  C   UNL     1     -43.105 -46.776   8.782  1.00  0.00     0.221 C 
HETATM   21  N   UNL     1     -43.127 -47.808   7.888  1.00  0.00    -0.370 N 
HETATM   22  H   UNL     1     -43.467 -47.617   6.953  1.00  0.00     0.159 HD
HETATM   23  H   UNL     1     -42.689 -48.702   8.060  1.00  0.00     0.159 HD
HETATM   24  O   UNL     1     -43.494 -45.656   8.466  1.00  0.00    -0.273 OA
ENDBRANCH   1  20
TORSDOF 3
ENDMDL
MODEL 8
REMARK VINA RESULT:      -5.0      3.943      6.604
REMARK  3 active torsions:
REMARK  status: ('A' for Active; 'I' for Inactive)
REMARK       I    between atoms: N_1  and  C_2 
REMARK    1  A    between atoms: C_2  and  C_4 
REMARK    2  A    between atoms: C_10  and  N_11 
REMARK       I    between atoms: N_11  and  C_12 
REMARK       I    between atoms: C_12  and  N_14 
REMARK    3  A    between atoms: N_14  and  C_15 
ROOT
HETATM    1  C   UNL     1     -43.771 -51.724  12.949  1.00  0.00     0.100 C 
HETATM    2  C   UNL     1     -44.721 -51.095  13.982  1.00  0.00     0.016 C 
HETATM    3  C   UNL     1     -46.182 -51.425  13.683  1.00  0.00     0.001 C 
HETATM    4  C   UNL     1     -46.695 -52.773  14.183  1.00  0.00     0.000 C 
HETATM    5  C   UNL     1     -45.760 -53.977  14.161  1.00  0.00     0.002 C 
HETATM    6  C   UNL     1     -44.774 -54.055  12.999  1.00  0.00     0.026 C 
HETATM    7  C   UNL     1     -43.490 -53.218  13.183  1.00  0.00     0.099 C 
ENDROOT
BRANCH   7   8
HETATM    8  N   UNL     1     -42.819 -53.482  14.461  1.00  0.00    -0.337 N 
HETATM    9  C   UNL     1     -41.608 -54.148  14.509  1.00  0.00     0.322 C 
HETATM   10  O   UNL     1     -41.019 -54.495  13.493  1.00  0.00    -0.247 OA
HETATM   11  N   UNL     1     -41.180 -54.307  15.803  1.00  0.00    -0.289 N 
HETATM   12  H   UNL     1     -41.487 -53.643  16.493  1.00  0.00     0.172 HD
HETATM   13  H   UNL     1     -43.394 -53.582  15.285  1.00  0.00     0.164 HD
BRANCH  11  14
HETATM   14  C   UNL     1     -40.036 -55.005  16.082  1.00  0.00     0.152 A 
HETATM   15  N   UNL     1     -38.842 -54.876  15.563  1.00  0.00    -0.346 N 
HETATM   16  C   UNL     1     -37.971 -55.732  16.202  1.00  0.00     0.097 A 
ATOM     17  HN  UNL     1     -38.594 -54.241  14.804  1.00  0.00     0.167 HD
HETATM   18  C   UNL     1     -38.529 -56.519  17.187  1.00  0.00     0.070 A 
HETATM   19  S   UNL     1     -40.218 -56.215  17.274  1.00  0.00    -0.064 SA
ENDBRANCH  11  14
ENDBRANCH   7   8
BRANCH   1  20
HETATM   20  C   UNL     1     -42.476 -50.935  12.825  1.00  0.00     0.221 C 
HETATM   21  N   UNL     1     -42.524 -49.662  13.317  1.00  0.00    -0.370 N 
HETATM   22  H   UNL     1     -41.684 -49.099  13.257  1.00  0.00     0.159 HD
HETATM   23  H   UNL     1     -43.382 -49.206  13.596  1.00  0.00     0.159 HD
HETATM   24  O   UNL     1     -41.445 -51.386  12.336  1.00  0.00    -0.273 OA
ENDBRANCH   1  20
TORSDOF 3
ENDMDL
MODEL 9
REMARK VINA RESULT:      -5.0      2.695      6.335
REMARK  3 active torsions:
REMARK  status: ('A' for Active; 'I' for Inactive)
REMARK       I    between atoms: N_1  and  C_2 
REMARK    1  A    between atoms: C_2  and  C_4 
REMARK    2  A    between atoms: C_10  and  N_11 
REMARK       I    between atoms: N_11  and  C_12 
REMARK       I    between atoms: C_12  and  N_14 
REMARK    3  A    between atoms: N_14  and  C_15 
ROOT
HETATM    1  C   UNL     1     -40.047 -48.097  11.424  1.00  0.00     0.100 C 
HETATM    2  C   UNL     1     -40.249 -46.913  12.385  1.00  0.00     0.016 C 
HETATM    3  C   UNL     1     -40.825 -45.694  11.668  1.00  0.00     0.001 C 
HETATM    4  C   UNL     1     -42.339 -45.664  11.477  1.00  0.00     0.000 C 
HETATM    5  C   UNL     1     -43.076 -46.969  11.192  1.00  0.00     0.002 C 
HETATM    6  C   UNL     1     -42.339 -47.998  10.339  1.00  0.00     0.026 C 
HETATM    7  C   UNL     1     -41.334 -48.878  11.112  1.00  0.00     0.099 C 
ENDROOT
BRANCH   7   8
HETATM    8  N   UNL     1     -41.926 -49.506  12.299  1.00  0.00    -0.337 N 
HETATM    9  C   UNL     1     -41.875 -50.876  12.484  1.00  0.00     0.322 C 
HETATM   10  O   UNL     1     -41.290 -51.614  11.701  1.00  0.00    -0.247 OA
HETATM   11  N   UNL     1     -42.512 -51.243  13.643  1.00  0.00    -0.289 N 
HETATM   12  H   UNL     1     -42.567 -50.573  14.392  1.00  0.00     0.172 HD
HETATM   13  H   UNL     1     -42.711 -49.045  12.736  1.00  0.00     0.164 HD
BRANCH  11  14
HETATM   14  C   UNL     1     -42.641 -52.563  13.983  1.00  0.00     0.152 A 
HETATM   15  N   UNL     1     -41.709 -53.447  14.235  1.00  0.00    -0.346 N 
HETATM   16  C   UNL     1     -42.296 -54.634  14.617  1.00  0.00     0.097 A 
ATOM     17  HN  UNL     1     -40.705 -53.283  14.161  1.00  0.00     0.167 HD
HETATM   18  C   UNL     1     -43.675 -54.637  14.625  1.00  0.00     0.070 A 
HETATM   19  S   UNL     1     -44.254 -53.114  14.079  1.00  0.00    -0.064 SA
ENDBRANCH  11  14
ENDBRANCH   7   8
BRANCH   1  20
HETATM   20  C   UNL     1     -38.943 -49.028  11.905  1.00  0.00     0.221 C 
HETATM   21  N   UNL     1     -38.634 -50.048  11.052  1.00  0.00    -0.370 N 
HETATM   22  H   UNL     1     -37.904 -50.692  11.330  1.00  0.00     0.159 HD
HETATM   23  H   UNL     1     -39.188 -50.281  10.239  1.00  0.00     0.159 HD
HETATM   24  O   UNL     1     -38.349 -48.890  12.970  1.00  0.00    -0.273 OA
ENDBRANCH   1  20
TORSDOF 3
ENDMDL
