MODEL 1
REMARK VINA RESULT:      -7.0      0.000      0.000
REMARK  4 active torsions:
REMARK  status: ('A' for Active; 'I' for Inactive)
REMARK    1  A    between atoms: C_6  and  N_7 
REMARK       I    between atoms: N_7  and  C_8 
REMARK       I    between atoms: C_8  and  N_10 
REMARK    2  A    between atoms: N_10  and  C_11 
REMARK    3  A    between atoms: C_11  and  C_12 
REMARK    4  A    between atoms: C_12  and  C_13 
REMARK       I    between atoms: C_13  and  N_15 
ROOT
HETATM    1  N   UNL     1     -40.267 -48.817  11.076  1.00  0.00    -0.295 N 
HETATM    2  C   UNL     1     -40.038 -50.105  11.466  1.00  0.00     0.321 C 
HETATM    3  O   UNL     1     -38.903 -50.459  11.775  1.00  0.00    -0.247 OA
HETATM    4  N   UNL     1     -41.113 -50.934  11.482  1.00  0.00    -0.342 N 
HETATM    5  H   UNL     1     -39.431 -48.253  11.051  1.00  0.00     0.172 HD
HETATM    6  H   UNL     1     -41.998 -50.505  11.218  1.00  0.00     0.164 HD
ENDROOT
BRANCH   1   7
HETATM    7  C   UNL     1     -41.488 -48.225  10.730  1.00  0.00     0.109 A 
HETATM    8  C   UNL     1     -42.236 -47.605  11.721  1.00  0.00     0.049 A 
HETATM    9  C   UNL     1     -43.449 -47.024  11.370  1.00  0.00     0.006 A 
HETATM   10  C   UNL     1     -43.885 -47.075  10.049  1.00  0.00     0.025 A 
HETATM   11  C   UNL     1     -43.081 -47.710   9.112  1.00  0.00     0.007 A 
HETATM   12  C   UNL     1     -43.486 -47.850   7.678  1.00  0.00     0.068 C 
HETATM   13  N   UNL     1     -41.904 -48.280   9.446  1.00  0.00    -0.346 N 
ATOM     14  HN  UNL     1     -41.337 -48.746   8.738  1.00  0.00     0.167 HD
ENDBRANCH   1   7
BRANCH   4  15
HETATM   15  C   UNL     1     -41.088 -52.329  11.847  1.00  0.00     0.133 C 
BRANCH  15  16
HETATM   16  C   UNL     1     -42.458 -52.826  12.291  1.00  0.00     0.122 C 
BRANCH  16  17
HETATM   17  C   UNL     1     -42.785 -52.293  13.673  1.00  0.00     0.221 C 
HETATM   18  O   UNL     1     -41.889 -51.992  14.463  1.00  0.00    -0.273 OA
HETATM   19  N   UNL     1     -44.129 -52.185  14.016  1.00  0.00    -0.352 N 
HETATM   20  C   UNL     1     -45.244 -52.613  13.172  1.00  0.00     0.125 C 
HETATM   21  C   UNL     1     -44.454 -51.925  15.418  1.00  0.00     0.125 C 
HETATM   22  C   UNL     1     -46.431 -51.659  13.291  1.00  0.00     0.020 C 
HETATM   23  C   UNL     1     -46.832 -51.447  14.749  1.00  0.00     0.003 C 
HETATM   24  C   UNL     1     -45.634 -50.972  15.565  1.00  0.00     0.020 C 
ENDBRANCH  16  17
ENDBRANCH  15  16
ENDBRANCH   4  15
TORSDOF 4
ENDMDL
MODEL 2
REMARK VINA RESULT:      -6.5      1.696      5.844
REMARK  4 active torsions:
REMARK  status: ('A' for Active; 'I' for Inactive)
REMARK    1  A    between atoms: C_6  and  N_7 
REMARK       I    between atoms: N_7  and  C_8 
REMARK       I    between atoms: C_8  and  N_10 
REMARK    2  A    between atoms: N_10  and  C_11 
REMARK    3  A    between atoms: C_11  and  C_12 
REMARK    4  A    between atoms: C_12  and  C_13 
REMARK       I    between atoms: C_13  and  N_15 
ROOT
HETATM    1  N   UNL     1     -42.827 -52.807  12.816  1.00  0.00    -0.295 N 
HETATM    2  C   UNL     1     -41.807 -52.094  12.253  1.00  0.00     0.321 C 
HETATM    3  O   UNL     1     -40.747 -52.653  11.980  1.00  0.00    -0.247 OA
HETATM    4  N   UNL     1     -42.039 -50.776  12.031  1.00  0.00    -0.342 N 
HETATM    5  H   UNL     1     -42.592 -53.772  12.989  1.00  0.00     0.172 HD
HETATM    6  H   UNL     1     -42.967 -50.447  12.289  1.00  0.00     0.164 HD
ENDROOT
BRANCH   1   7
HETATM    7  C   UNL     1     -44.109 -52.357  13.154  1.00  0.00     0.109 A 
HETATM    8  C   UNL     1     -44.374 -52.019  14.473  1.00  0.00     0.049 A 
HETATM    9  C   UNL     1     -45.652 -51.578  14.800  1.00  0.00     0.006 A 
HETATM   10  C   UNL     1     -46.626 -51.485  13.811  1.00  0.00     0.025 A 
HETATM   11  C   UNL     1     -46.286 -51.837  12.513  1.00  0.00     0.007 A 
HETATM   12  C   UNL     1     -47.279 -51.809  11.393  1.00  0.00     0.068 C 
HETATM   13  N   UNL     1     -45.050 -52.270  12.188  1.00  0.00    -0.346 N 
ATOM     14  HN  UNL     1     -44.830 -52.530  11.227  1.00  0.00     0.167 HD
ENDBRANCH   1   7
BRANCH   4  15
HETATM   15  C   UNL     1     -41.096 -49.845  11.462  1.00  0.00     0.133 C 
BRANCH  15  16
HETATM   16  C   UNL     1     -41.150 -48.486  12.149  1.00  0.00     0.122 C 
BRANCH  16  17
HETATM   17  C   UNL     1     -41.191 -47.378  11.114  1.00  0.00     0.221 C 
HETATM   18  O   UNL     1     -40.161 -46.798  10.768  1.00  0.00    -0.273 OA
HETATM   19  N   UNL     1     -42.435 -47.031  10.596  1.00  0.00    -0.352 N 
HETATM   20  C   UNL     1     -43.710 -47.605  11.028  1.00  0.00     0.125 C 
HETATM   21  C   UNL     1     -42.524 -45.805   9.803  1.00  0.00     0.125 C 
HETATM   22  C   UNL     1     -44.668 -47.782   9.851  1.00  0.00     0.020 C 
HETATM   23  C   UNL     1     -44.832 -46.483   9.066  1.00  0.00     0.003 C 
HETATM   24  C   UNL     1     -43.472 -45.956   8.621  1.00  0.00     0.020 C 
ENDBRANCH  16  17
ENDBRANCH  15  16
ENDBRANCH   4  15
TORSDOF 4
ENDMDL
MODEL 3
REMARK VINA RESULT:      -6.2      2.533      6.603
REMARK  4 active torsions:
REMARK  status: ('A' for Active; 'I' for Inactive)
REMARK    1  A    between atoms: C_6  and  N_7 
REMARK       I    between atoms: N_7  and  C_8 
REMARK       I    between atoms: C_8  and  N_10 
REMARK    2  A    between atoms: N_10  and  C_11 
REMARK    3  A    between atoms: C_11  and  C_12 
REMARK    4  A    between atoms: C_12  and  C_13 
REMARK       I    between atoms: C_13  and  N_15 
ROOT
HETATM    1  N   UNL     1     -43.082 -53.064  12.687  1.00  0.00    -0.295 N 
HETATM    2  C   UNL     1     -41.987 -52.388  12.229  1.00  0.00     0.321 C 
HETATM    3  O   UNL     1     -40.965 -53.004  11.939  1.00  0.00    -0.247 OA
HETATM    4  N   UNL     1     -42.106 -51.040  12.127  1.00  0.00    -0.342 N 
HETATM    5  H   UNL     1     -42.931 -54.057  12.774  1.00  0.00     0.172 HD
HETATM    6  H   UNL     1     -43.016 -50.662  12.385  1.00  0.00     0.164 HD
ENDROOT
BRANCH   1   7
HETATM    7  C   UNL     1     -44.337 -52.544  13.024  1.00  0.00     0.109 A 
HETATM    8  C   UNL     1     -44.593 -52.216  14.348  1.00  0.00     0.049 A 
HETATM    9  C   UNL     1     -45.845 -51.705  14.674  1.00  0.00     0.006 A 
HETATM   10  C   UNL     1     -46.804 -51.533  13.680  1.00  0.00     0.025 A 
HETATM   11  C   UNL     1     -46.474 -51.880  12.377  1.00  0.00     0.007 A 
HETATM   12  C   UNL     1     -47.453 -51.770  11.251  1.00  0.00     0.068 C 
HETATM   13  N   UNL     1     -45.264 -52.382  12.053  1.00  0.00    -0.346 N 
ATOM     14  HN  UNL     1     -45.051 -52.635  11.089  1.00  0.00     0.167 HD
ENDBRANCH   1   7
BRANCH   4  15
HETATM   15  C   UNL     1     -41.071 -50.141  11.681  1.00  0.00     0.133 C 
BRANCH  15  16
HETATM   16  C   UNL     1     -41.113 -48.810  12.422  1.00  0.00     0.122 C 
BRANCH  16  17
HETATM   17  C   UNL     1     -41.003 -47.660  11.439  1.00  0.00     0.221 C 
HETATM   18  O   UNL     1     -41.555 -47.714  10.339  1.00  0.00    -0.273 OA
HETATM   19  N   UNL     1     -40.236 -46.564  11.820  1.00  0.00    -0.352 N 
HETATM   20  C   UNL     1     -39.472 -46.469  13.064  1.00  0.00     0.125 C 
HETATM   21  C   UNL     1     -39.908 -45.574  10.794  1.00  0.00     0.125 C 
HETATM   22  C   UNL     1     -39.513 -45.054  13.636  1.00  0.00     0.020 C 
HETATM   23  C   UNL     1     -39.091 -44.020  12.595  1.00  0.00     0.003 C 
HETATM   24  C   UNL     1     -39.945 -44.152  11.339  1.00  0.00     0.020 C 
ENDBRANCH  16  17
ENDBRANCH  15  16
ENDBRANCH   4  15
TORSDOF 4
ENDMDL
MODEL 4
REMARK VINA RESULT:      -6.1      2.883      3.742
REMARK  4 active torsions:
REMARK  status: ('A' for Active; 'I' for Inactive)
REMARK    1  A    between atoms: C_6  and  N_7 
REMARK       I    between atoms: N_7  and  C_8 
REMARK       I    between atoms: C_8  and  N_10 
REMARK    2  A    between atoms: N_10  and  C_11 
REMARK    3  A    between atoms: C_11  and  C_12 
REMARK    4  A    between atoms: C_12  and  C_13 
REMARK       I    between atoms: C_13  and  N_15 
ROOT
HETATM    1  N   UNL     1     -41.820 -51.243  11.765  1.00  0.00    -0.295 N 
HETATM    2  C   UNL     1     -42.143 -52.455  12.305  1.00  0.00     0.321 C 
HETATM    3  O   UNL     1     -43.109 -53.080  11.872  1.00  0.00    -0.247 OA
HETATM    4  N   UNL     1     -41.354 -52.899  13.315  1.00  0.00    -0.342 N 
HETATM    5  H   UNL     1     -42.456 -50.946  11.041  1.00  0.00     0.172 HD
HETATM    6  H   UNL     1     -40.577 -52.289  13.562  1.00  0.00     0.164 HD
ENDROOT
BRANCH   1   7
HETATM    7  C   UNL     1     -40.742 -50.413  12.095  1.00  0.00     0.109 A 
HETATM    8  C   UNL     1     -40.922 -49.433  13.060  1.00  0.00     0.049 A 
HETATM    9  C   UNL     1     -39.846 -48.610  13.376  1.00  0.00     0.006 A 
HETATM   10  C   UNL     1     -38.627 -48.783  12.728  1.00  0.00     0.025 A 
HETATM   11  C   UNL     1     -38.521 -49.787  11.776  1.00  0.00     0.007 A 
HETATM   12  C   UNL     1     -37.264 -50.020  10.999  1.00  0.00     0.068 C 
HETATM   13  N   UNL     1     -39.562 -50.587  11.460  1.00  0.00    -0.346 N 
ATOM     14  HN  UNL     1     -39.459 -51.312  10.750  1.00  0.00     0.167 HD
ENDBRANCH   1   7
BRANCH   4  15
HETATM   15  C   UNL     1     -41.527 -54.140  14.029  1.00  0.00     0.133 C 
BRANCH  15  16
HETATM   16  C   UNL     1     -42.390 -53.968  15.273  1.00  0.00     0.122 C 
BRANCH  16  17
HETATM   17  C   UNL     1     -43.828 -54.340  14.968  1.00  0.00     0.221 C 
HETATM   18  O   UNL     1     -44.153 -55.515  14.791  1.00  0.00    -0.273 OA
HETATM   19  N   UNL     1     -44.751 -53.303  14.872  1.00  0.00    -0.352 N 
HETATM   20  C   UNL     1     -44.424 -51.881  14.972  1.00  0.00     0.125 C 
HETATM   21  C   UNL     1     -46.072 -53.617  14.327  1.00  0.00     0.125 C 
HETATM   22  C   UNL     1     -45.517 -51.108  15.707  1.00  0.00     0.020 C 
HETATM   23  C   UNL     1     -46.890 -51.364  15.092  1.00  0.00     0.003 C 
HETATM   24  C   UNL     1     -47.181 -52.861  15.047  1.00  0.00     0.020 C 
ENDBRANCH  16  17
ENDBRANCH  15  16
ENDBRANCH   4  15
TORSDOF 4
ENDMDL
MODEL 5
REMARK VINA RESULT:      -6.0      2.828      6.339
REMARK  4 active torsions:
REMARK  status: ('A' for Active; 'I' for Inactive)
REMARK    1  A    between atoms: C_6  and  N_7 
REMARK       I    between atoms: N_7  and  C_8 
REMARK       I    between atoms: C_8  and  N_10 
REMARK    2  A    between atoms: N_10  and  C_11 
REMARK    3  A    between atoms: C_11  and  C_12 
REMARK    4  A    between atoms: C_12  and  C_13 
REMARK       I    between atoms: C_13  and  N_15 
ROOT
HETATM    1  N   UNL     1     -44.838 -54.683  14.941  1.00  0.00    -0.295 N 
HETATM    2  C   UNL     1     -43.485 -54.861  15.009  1.00  0.00     0.321 C 
HETATM    3  O   UNL     1     -43.027 -55.968  15.283  1.00  0.00    -0.247 OA
HETATM    4  N   UNL     1     -42.717 -53.770  14.766  1.00  0.00    -0.342 N 
HETATM    5  H   UNL     1     -45.362 -55.516  15.162  1.00  0.00     0.172 HD
HETATM    6  H   UNL     1     -43.227 -52.920  14.533  1.00  0.00     0.164 HD
ENDROOT
BRANCH   1   7
HETATM    7  C   UNL     1     -45.537 -53.518  14.605  1.00  0.00     0.109 A 
HETATM    8  C   UNL     1     -45.886 -52.631  15.614  1.00  0.00     0.049 A 
HETATM    9  C   UNL     1     -46.585 -51.479  15.271  1.00  0.00     0.006 A 
HETATM   10  C   UNL     1     -46.917 -51.241  13.941  1.00  0.00     0.025 A 
HETATM   11  C   UNL     1     -46.532 -52.171  12.986  1.00  0.00     0.007 A 
HETATM   12  C   UNL     1     -46.880 -52.020  11.539  1.00  0.00     0.068 C 
HETATM   13  N   UNL     1     -45.857 -53.294  13.312  1.00  0.00    -0.346 N 
ATOM     14  HN  UNL     1     -45.592 -53.965  12.590  1.00  0.00     0.167 HD
ENDBRANCH   1   7
BRANCH   4  15
HETATM   15  C   UNL     1     -41.275 -53.738  14.799  1.00  0.00     0.133 C 
BRANCH  15  16
HETATM   16  C   UNL     1     -40.672 -53.738  13.400  1.00  0.00     0.122 C 
BRANCH  16  17
HETATM   17  C   UNL     1     -41.141 -52.519  12.628  1.00  0.00     0.221 C 
HETATM   18  O   UNL     1     -42.236 -52.510  12.065  1.00  0.00    -0.273 OA
HETATM   19  N   UNL     1     -40.276 -51.430  12.564  1.00  0.00    -0.352 N 
HETATM   20  C   UNL     1     -38.924 -51.403  13.122  1.00  0.00     0.125 C 
HETATM   21  C   UNL     1     -40.597 -50.362  11.617  1.00  0.00     0.125 C 
HETATM   22  C   UNL     1     -38.593 -50.033  13.710  1.00  0.00     0.020 C 
HETATM   23  C   UNL     1     -38.846 -48.917  12.700  1.00  0.00     0.003 C 
HETATM   24  C   UNL     1     -40.278 -48.984  12.182  1.00  0.00     0.020 C 
ENDBRANCH  16  17
ENDBRANCH  15  16
ENDBRANCH   4  15
TORSDOF 4
ENDMDL
MODEL 6
REMARK VINA RESULT:      -5.8      3.006      4.090
REMARK  4 active torsions:
REMARK  status: ('A' for Active; 'I' for Inactive)
REMARK    1  A    between atoms: C_6  and  N_7 
REMARK       I    between atoms: N_7  and  C_8 
REMARK       I    between atoms: C_8  and  N_10 
REMARK    2  A    between atoms: N_10  and  C_11 
REMARK    3  A    between atoms: C_11  and  C_12 
REMARK    4  A    between atoms: C_12  and  C_13 
REMARK       I    between atoms: C_13  and  N_15 
ROOT
HETATM    1  N   UNL     1     -38.524 -51.933  14.536  1.00  0.00    -0.295 N 
HETATM    2  C   UNL     1     -39.293 -53.062  14.546  1.00  0.00     0.321 C 
HETATM    3  O   UNL     1     -39.248 -53.827  15.506  1.00  0.00    -0.247 OA
HETATM    4  N   UNL     1     -40.078 -53.270  13.458  1.00  0.00    -0.342 N 
HETATM    5  H   UNL     1     -37.938 -51.843  15.352  1.00  0.00     0.172 HD
HETATM    6  H   UNL     1     -40.031 -52.547  12.742  1.00  0.00     0.164 HD
ENDROOT
BRANCH   1   7
HETATM    7  C   UNL     1     -38.475 -50.932  13.559  1.00  0.00     0.109 A 
HETATM    8  C   UNL     1     -37.499 -51.003  12.576  1.00  0.00     0.049 A 
HETATM    9  C   UNL     1     -37.454 -50.001  11.613  1.00  0.00     0.006 A 
HETATM   10  C   UNL     1     -38.377 -48.960  11.653  1.00  0.00     0.025 A 
HETATM   11  C   UNL     1     -39.327 -48.958  12.665  1.00  0.00     0.007 A 
HETATM   12  C   UNL     1     -40.332 -47.859  12.813  1.00  0.00     0.068 C 
HETATM   13  N   UNL     1     -39.374 -49.924  13.606  1.00  0.00    -0.346 N 
ATOM     14  HN  UNL     1     -40.078 -49.893  14.343  1.00  0.00     0.167 HD
ENDBRANCH   1   7
BRANCH   4  15
HETATM   15  C   UNL     1     -40.952 -54.400  13.260  1.00  0.00     0.133 C 
BRANCH  15  16
HETATM   16  C   UNL     1     -42.297 -54.208  13.950  1.00  0.00     0.122 C 
BRANCH  16  17
HETATM   17  C   UNL     1     -43.103 -53.140  13.235  1.00  0.00     0.221 C 
HETATM   18  O   UNL     1     -42.747 -52.708  12.138  1.00  0.00    -0.273 OA
HETATM   19  N   UNL     1     -44.238 -52.657  13.878  1.00  0.00    -0.352 N 
HETATM   20  C   UNL     1     -44.669 -53.049  15.221  1.00  0.00     0.125 C 
HETATM   21  C   UNL     1     -44.871 -51.458  13.331  1.00  0.00     0.125 C 
HETATM   22  C   UNL     1     -46.190 -53.144  15.311  1.00  0.00     0.020 C 
HETATM   23  C   UNL     1     -46.859 -51.863  14.819  1.00  0.00     0.003 C 
HETATM   24  C   UNL     1     -46.391 -51.529  13.407  1.00  0.00     0.020 C 
ENDBRANCH  16  17
ENDBRANCH  15  16
ENDBRANCH   4  15
TORSDOF 4
ENDMDL
MODEL 7
REMARK VINA RESULT:      -5.8      3.892      6.485
REMARK  4 active torsions:
REMARK  status: ('A' for Active; 'I' for Inactive)
REMARK    1  A    between atoms: C_6  and  N_7 
REMARK       I    between atoms: N_7  and  C_8 
REMARK       I    between atoms: C_8  and  N_10 
REMARK    2  A    between atoms: N_10  and  C_11 
REMARK    3  A    between atoms: C_11  and  C_12 
REMARK    4  A    between atoms: C_12  and  C_13 
REMARK       I    between atoms: C_13  and  N_15 
ROOT
HETATM    1  N   UNL     1     -41.680 -49.182  10.670  1.00  0.00    -0.295 N 
HETATM    2  C   UNL     1     -41.916 -47.918  10.208  1.00  0.00     0.321 C 
HETATM    3  O   UNL     1     -42.900 -47.697   9.506  1.00  0.00    -0.247 OA
HETATM    4  N   UNL     1     -41.018 -46.965  10.563  1.00  0.00    -0.342 N 
HETATM    5  H   UNL     1     -42.358 -49.857  10.351  1.00  0.00     0.172 HD
HETATM    6  H   UNL     1     -40.259 -47.283  11.162  1.00  0.00     0.164 HD
ENDROOT
BRANCH   1   7
HETATM    7  C   UNL     1     -40.645 -49.613  11.507  1.00  0.00     0.109 A 
HETATM    8  C   UNL     1     -40.909 -49.801  12.856  1.00  0.00     0.049 A 
HETATM    9  C   UNL     1     -39.873 -50.225  13.682  1.00  0.00     0.006 A 
HETATM   10  C   UNL     1     -38.609 -50.450  13.146  1.00  0.00     0.025 A 
HETATM   11  C   UNL     1     -38.420 -50.243  11.787  1.00  0.00     0.007 A 
HETATM   12  C   UNL     1     -37.087 -50.419  11.131  1.00  0.00     0.068 C 
HETATM   13  N   UNL     1     -39.419 -49.828  10.980  1.00  0.00    -0.346 N 
ATOM     14  HN  UNL     1     -39.251 -49.677   9.986  1.00  0.00     0.167 HD
ENDBRANCH   1   7
BRANCH   4  15
HETATM   15  C   UNL     1     -41.072 -45.578  10.173  1.00  0.00     0.133 C 
BRANCH  15  16
HETATM   16  C   UNL     1     -40.735 -44.647  11.330  1.00  0.00     0.122 C 
BRANCH  16  17
HETATM   17  C   UNL     1     -41.365 -45.156  12.612  1.00  0.00     0.221 C 
HETATM   18  O   UNL     1     -42.589 -45.156  12.759  1.00  0.00    -0.273 OA
HETATM   19  N   UNL     1     -40.509 -45.595  13.617  1.00  0.00    -0.352 N 
HETATM   20  C   UNL     1     -39.048 -45.534  13.555  1.00  0.00     0.125 C 
HETATM   21  C   UNL     1     -41.081 -45.840  14.940  1.00  0.00     0.125 C 
HETATM   22  C   UNL     1     -38.412 -46.759  14.209  1.00  0.00     0.020 C 
HETATM   23  C   UNL     1     -38.942 -46.975  15.623  1.00  0.00     0.003 C 
HETATM   24  C   UNL     1     -40.465 -47.060  15.613  1.00  0.00     0.020 C 
ENDBRANCH  16  17
ENDBRANCH  15  16
ENDBRANCH   4  15
TORSDOF 4
ENDMDL
MODEL 8
REMARK VINA RESULT:      -5.6      3.931      7.012
REMARK  4 active torsions:
REMARK  status: ('A' for Active; 'I' for Inactive)
REMARK    1  A    between atoms: C_6  and  N_7 
REMARK       I    between atoms: N_7  and  C_8 
REMARK       I    between atoms: C_8  and  N_10 
REMARK    2  A    between atoms: N_10  and  C_11 
REMARK    3  A    between atoms: C_11  and  C_12 
REMARK    4  A    between atoms: C_12  and  C_13 
REMARK       I    between atoms: C_13  and  N_15 
ROOT
HETATM    1  N   UNL     1     -41.043 -51.580  11.252  1.00  0.00    -0.295 N 
HETATM    2  C   UNL     1     -40.497 -50.372  11.582  1.00  0.00     0.321 C 
HETATM    3  O   UNL     1     -40.046 -49.643  10.701  1.00  0.00    -0.247 OA
HETATM    4  N   UNL     1     -40.486 -50.051  12.900  1.00  0.00    -0.342 N 
HETATM    5  H   UNL     1     -40.997 -51.783  10.265  1.00  0.00     0.172 HD
HETATM    6  H   UNL     1     -40.909 -50.740  13.520  1.00  0.00     0.164 HD
ENDROOT
BRANCH   1   7
HETATM    7  C   UNL     1     -41.639 -52.517  12.104  1.00  0.00     0.109 A 
HETATM    8  C   UNL     1     -40.825 -53.325  12.885  1.00  0.00     0.049 A 
HETATM    9  C   UNL     1     -41.426 -54.257  13.725  1.00  0.00     0.006 A 
HETATM   10  C   UNL     1     -42.813 -54.360  13.764  1.00  0.00     0.025 A 
HETATM   11  C   UNL     1     -43.562 -53.517  12.956  1.00  0.00     0.007 A 
HETATM   12  C   UNL     1     -45.056 -53.584  12.900  1.00  0.00     0.068 C 
HETATM   13  N   UNL     1     -42.986 -52.613  12.135  1.00  0.00    -0.346 N 
ATOM     14  HN  UNL     1     -43.561 -52.010  11.546  1.00  0.00     0.167 HD
ENDBRANCH   1   7
BRANCH   4  15
HETATM   15  C   UNL     1     -39.948 -48.837  13.461  1.00  0.00     0.133 C 
BRANCH  15  16
HETATM   16  C   UNL     1     -38.424 -48.842  13.476  1.00  0.00     0.122 C 
BRANCH  16  17
HETATM   17  C   UNL     1     -37.914 -49.925  14.407  1.00  0.00     0.221 C 
HETATM   18  O   UNL     1     -38.099 -51.116  14.152  1.00  0.00    -0.273 OA
HETATM   19  N   UNL     1     -37.256 -49.518  15.563  1.00  0.00    -0.352 N 
HETATM   20  C   UNL     1     -37.085 -48.126  15.982  1.00  0.00     0.125 C 
HETATM   21  C   UNL     1     -36.993 -50.528  16.587  1.00  0.00     0.125 C 
HETATM   22  C   UNL     1     -35.721 -47.903  16.632  1.00  0.00     0.020 C 
HETATM   23  C   UNL     1     -35.472 -48.902  17.759  1.00  0.00     0.003 C 
HETATM   24  C   UNL     1     -35.635 -50.330  17.250  1.00  0.00     0.020 C 
ENDBRANCH  16  17
ENDBRANCH  15  16
ENDBRANCH   4  15
TORSDOF 4
ENDMDL
MODEL 9
REMARK VINA RESULT:      -5.4      2.871      4.279
REMARK  4 active torsions:
REMARK  status: ('A' for Active; 'I' for Inactive)
REMARK    1  A    between atoms: C_6  and  N_7 
REMARK       I    between atoms: N_7  and  C_8 
REMARK       I    between atoms: C_8  and  N_10 
REMARK    2  A    between atoms: N_10  and  C_11 
REMARK    3  A    between atoms: C_11  and  C_12 
REMARK    4  A    between atoms: C_12  and  C_13 
REMARK       I    between atoms: C_13  and  N_15 
ROOT
HETATM    1  N   UNL     1     -39.905 -46.851  14.242  1.00  0.00    -0.295 N 
HETATM    2  C   UNL     1     -39.131 -47.914  14.609  1.00  0.00     0.321 C 
HETATM    3  O   UNL     1     -39.015 -48.206  15.797  1.00  0.00    -0.247 OA
HETATM    4  N   UNL     1     -38.519 -48.595  13.607  1.00  0.00    -0.342 N 
HETATM    5  H   UNL     1     -40.310 -46.362  15.025  1.00  0.00     0.172 HD
HETATM    6  H   UNL     1     -38.716 -48.256  12.667  1.00  0.00     0.164 HD
ENDROOT
BRANCH   1   7
HETATM    7  C   UNL     1     -40.187 -46.398  12.948  1.00  0.00     0.109 A 
HETATM    8  C   UNL     1     -39.623 -45.206  12.518  1.00  0.00     0.049 A 
HETATM    9  C   UNL     1     -39.913 -44.760  11.232  1.00  0.00     0.006 A 
HETATM   10  C   UNL     1     -40.753 -45.509  10.413  1.00  0.00     0.025 A 
HETATM   11  C   UNL     1     -41.278 -46.693  10.911  1.00  0.00     0.007 A 
HETATM   12  C   UNL     1     -42.222 -47.542  10.119  1.00  0.00     0.068 C 
HETATM   13  N   UNL     1     -41.005 -47.130  12.159  1.00  0.00    -0.346 N 
ATOM     14  HN  UNL     1     -41.410 -48.000  12.502  1.00  0.00     0.167 HD
ENDBRANCH   1   7
BRANCH   4  15
HETATM   15  C   UNL     1     -37.652 -49.734  13.777  1.00  0.00     0.133 C 
BRANCH  15  16
HETATM   16  C   UNL     1     -37.884 -50.793  12.707  1.00  0.00     0.122 C 
BRANCH  16  17
HETATM   17  C   UNL     1     -39.310 -50.716  12.195  1.00  0.00     0.221 C 
HETATM   18  O   UNL     1     -39.641 -49.860  11.374  1.00  0.00    -0.273 OA
HETATM   19  N   UNL     1     -40.225 -51.630  12.709  1.00  0.00    -0.352 N 
HETATM   20  C   UNL     1     -39.930 -52.608  13.756  1.00  0.00     0.125 C 
HETATM   21  C   UNL     1     -41.642 -51.404  12.428  1.00  0.00     0.125 C 
HETATM   22  C   UNL     1     -40.655 -53.929  13.504  1.00  0.00     0.020 C 
HETATM   23  C   UNL     1     -42.151 -53.712  13.291  1.00  0.00     0.003 C 
HETATM   24  C   UNL     1     -42.388 -52.707  12.169  1.00  0.00     0.020 C 
ENDBRANCH  16  17
ENDBRANCH  15  16
ENDBRANCH   4  15
TORSDOF 4
ENDMDL
