MODEL 1
REMARK VINA RESULT:      -5.5      0.000      0.000
REMARK  2 active torsions:
REMARK  status: ('A' for Active; 'I' for Inactive)
REMARK    1  A    between atoms: C_6  and  C_8 
REMARK       I    between atoms: C_8  and  N_10 
REMARK    2  A    between atoms: N_10  and  C_11 
ROOT
HETATM    1  C   UNL     1     -43.480 -49.967  13.626  1.00  0.00     0.253 C 
HETATM    2  O   UNL     1     -43.208 -50.106  14.817  1.00  0.00    -0.270 OA
HETATM    3  N   UNL     1     -44.422 -50.704  12.930  1.00  0.00    -0.323 N 
HETATM    4  H   UNL     1     -44.782 -50.238  12.096  1.00  0.00     0.169 HD
ENDROOT
BRANCH   3   5
HETATM    5  C   UNL     1     -45.218 -51.701  13.529  1.00  0.00     0.059 A 
HETATM    6  C   UNL     1     -46.381 -51.358  14.216  1.00  0.00     0.048 A 
HETATM    7  C   UNL     1     -47.154 -52.377  14.747  1.00  0.00     0.090 A 
HETATM    8  N   UNL     1     -46.854 -53.682  14.622  1.00  0.00    -0.368 N 
HETATM    9  C   UNL     1     -45.714 -54.007  13.951  1.00  0.00     0.029 A 
ATOM     10  HN  UNL     1     -47.458 -54.404  15.017  1.00  0.00     0.165 HD
HETATM   11  C   UNL     1     -45.480 -55.476  13.742  1.00  0.00     0.070 C 
HETATM   12  C   UNL     1     -44.849 -53.047  13.427  1.00  0.00     0.083 A 
HETATM   13 CL   UNL     1     -43.405 -53.489  12.579  1.00  0.00    -0.080 Cl
ENDBRANCH   3   5
BRANCH   1  14
HETATM   14  C   UNL     1     -42.766 -48.929  12.758  1.00  0.00     0.241 C 
HETATM   15  O   UNL     1     -43.684 -48.273  11.865  1.00  0.00    -0.373 OA
HETATM   16  C   UNL     1     -42.981 -47.387  10.982  1.00  0.00     0.199 C 
HETATM   17  C   UNL     1     -41.901 -48.131  10.177  1.00  0.00     0.298 C 
HETATM   18  N   UNL     1     -40.929 -48.865  11.011  1.00  0.00     0.089 N 
HETATM   19  C   UNL     1     -39.988 -47.970  11.681  1.00  0.00     0.310 C 
HETATM   20  C   UNL     1     -41.672 -49.691  11.987  1.00  0.00     0.313 C 
ENDBRANCH   1  14
TORSDOF 2
ENDMDL
MODEL 2
REMARK VINA RESULT:      -5.4      3.041      4.011
REMARK  2 active torsions:
REMARK  status: ('A' for Active; 'I' for Inactive)
REMARK    1  A    between atoms: C_6  and  C_8 
REMARK       I    between atoms: C_8  and  N_10 
REMARK    2  A    between atoms: N_10  and  C_11 
ROOT
HETATM    1  C   UNL     1     -42.017 -49.422  12.044  1.00  0.00     0.253 C 
HETATM    2  O   UNL     1     -42.350 -49.219  13.210  1.00  0.00    -0.270 OA
HETATM    3  N   UNL     1     -41.631 -50.645  11.524  1.00  0.00    -0.323 N 
HETATM    4  H   UNL     1     -41.749 -50.723  10.514  1.00  0.00     0.169 HD
ENDROOT
BRANCH   3   5
HETATM    5  C   UNL     1     -41.605 -51.833  12.283  1.00  0.00     0.059 A 
HETATM    6  C   UNL     1     -42.746 -52.627  12.391  1.00  0.00     0.048 A 
HETATM    7  C   UNL     1     -42.657 -53.808  13.110  1.00  0.00     0.090 A 
HETATM    8  N   UNL     1     -41.526 -54.240  13.696  1.00  0.00    -0.368 N 
HETATM    9  C   UNL     1     -40.418 -53.455  13.587  1.00  0.00     0.029 A 
ATOM     10  HN  UNL     1     -41.499 -55.124  14.205  1.00  0.00     0.165 HD
HETATM   11  C   UNL     1     -39.155 -54.032  14.162  1.00  0.00     0.070 C 
HETATM   12  C   UNL     1     -40.427 -52.227  12.927  1.00  0.00     0.083 A 
HETATM   13 CL   UNL     1     -39.003 -51.248  12.805  1.00  0.00    -0.080 Cl
ENDBRANCH   3   5
BRANCH   1  14
HETATM   14  C   UNL     1     -41.984 -48.293  11.012  1.00  0.00     0.241 C 
HETATM   15  O   UNL     1     -41.095 -47.238  11.420  1.00  0.00    -0.373 OA
HETATM   16  C   UNL     1     -41.161 -46.139  10.500  1.00  0.00     0.199 C 
HETATM   17  C   UNL     1     -42.597 -45.599  10.367  1.00  0.00     0.298 C 
HETATM   18  N   UNL     1     -43.590 -46.622   9.982  1.00  0.00     0.089 N 
HETATM   19  C   UNL     1     -43.473 -47.007   8.578  1.00  0.00     0.310 C 
HETATM   20  C   UNL     1     -43.433 -47.791  10.874  1.00  0.00     0.313 C 
ENDBRANCH   1  14
TORSDOF 2
ENDMDL
MODEL 3
REMARK VINA RESULT:      -5.3      2.359      2.883
REMARK  2 active torsions:
REMARK  status: ('A' for Active; 'I' for Inactive)
REMARK    1  A    between atoms: C_6  and  C_8 
REMARK       I    between atoms: C_8  and  N_10 
REMARK    2  A    between atoms: N_10  and  C_11 
ROOT
HETATM    1  C   UNL     1     -41.574 -51.690  12.599  1.00  0.00     0.253 C 
HETATM    2  O   UNL     1     -41.776 -52.325  11.567  1.00  0.00    -0.270 OA
HETATM    3  N   UNL     1     -42.503 -51.478  13.603  1.00  0.00    -0.323 N 
HETATM    4  H   UNL     1     -42.091 -51.270  14.514  1.00  0.00     0.169 HD
ENDROOT
BRANCH   3   5
HETATM    5  C   UNL     1     -43.809 -52.007  13.570  1.00  0.00     0.059 A 
HETATM    6  C   UNL     1     -44.893 -51.192  13.248  1.00  0.00     0.048 A 
HETATM    7  C   UNL     1     -46.151 -51.769  13.183  1.00  0.00     0.090 A 
HETATM    8  N   UNL     1     -46.383 -53.076  13.397  1.00  0.00    -0.368 N 
HETATM    9  C   UNL     1     -45.317 -53.864  13.713  1.00  0.00     0.029 A 
ATOM     10  HN  UNL     1     -47.323 -53.465  13.325  1.00  0.00     0.165 HD
HETATM   11  C   UNL     1     -45.608 -55.333  13.832  1.00  0.00     0.070 C 
HETATM   12  C   UNL     1     -44.024 -53.361  13.850  1.00  0.00     0.083 A 
HETATM   13 CL   UNL     1     -42.687 -54.385  14.256  1.00  0.00    -0.080 Cl
ENDBRANCH   3   5
BRANCH   1  14
HETATM   14  C   UNL     1     -40.222 -51.031  12.882  1.00  0.00     0.241 C 
HETATM   15  O   UNL     1     -40.236 -50.325  14.136  1.00  0.00    -0.373 OA
HETATM   16  C   UNL     1     -39.001 -49.622  14.332  1.00  0.00     0.199 C 
HETATM   17  C   UNL     1     -38.718 -48.644  13.178  1.00  0.00     0.298 C 
HETATM   18  N   UNL     1     -38.717 -49.275  11.843  1.00  0.00     0.089 N 
HETATM   19  C   UNL     1     -37.522 -50.084  11.614  1.00  0.00     0.310 C 
HETATM   20  C   UNL     1     -39.947 -50.083  11.701  1.00  0.00     0.313 C 
ENDBRANCH   1  14
TORSDOF 2
ENDMDL
MODEL 4
REMARK VINA RESULT:      -5.3      2.561      3.499
REMARK  2 active torsions:
REMARK  status: ('A' for Active; 'I' for Inactive)
REMARK    1  A    between atoms: C_6  and  C_8 
REMARK       I    between atoms: C_8  and  N_10 
REMARK    2  A    between atoms: N_10  and  C_11 
ROOT
HETATM    1  C   UNL     1     -41.451 -49.689  12.173  1.00  0.00     0.253 C 
HETATM    2  O   UNL     1     -40.931 -49.560  13.279  1.00  0.00    -0.270 OA
HETATM    3  N   UNL     1     -41.977 -50.866  11.669  1.00  0.00    -0.323 N 
HETATM    4  H   UNL     1     -42.674 -50.730  10.937  1.00  0.00     0.169 HD
ENDROOT
BRANCH   3   5
HETATM    5  C   UNL     1     -42.006 -52.073  12.398  1.00  0.00     0.059 A 
HETATM    6  C   UNL     1     -40.932 -52.959  12.338  1.00  0.00     0.048 A 
HETATM    7  C   UNL     1     -40.988 -54.109  13.109  1.00  0.00     0.090 A 
HETATM    8  N   UNL     1     -42.014 -54.410  13.925  1.00  0.00    -0.368 N 
HETATM    9  C   UNL     1     -43.060 -53.538  13.973  1.00  0.00     0.029 A 
ATOM     10  HN  UNL     1     -42.010 -55.261  14.487  1.00  0.00     0.165 HD
HETATM   11  C   UNL     1     -44.128 -53.861  14.980  1.00  0.00     0.070 C 
HETATM   12  C   UNL     1     -43.113 -52.382  13.196  1.00  0.00     0.083 A 
HETATM   13 CL   UNL     1     -44.456 -51.292  13.276  1.00  0.00    -0.080 Cl
ENDBRANCH   3   5
BRANCH   1  14
HETATM   14  C   UNL     1     -41.560 -48.516  11.197  1.00  0.00     0.241 C 
HETATM   15  O   UNL     1     -40.657 -47.453  11.553  1.00  0.00    -0.373 OA
HETATM   16  C   UNL     1     -40.853 -46.318  10.698  1.00  0.00     0.199 C 
HETATM   17  C   UNL     1     -42.307 -45.816  10.748  1.00  0.00     0.298 C 
HETATM   18  N   UNL     1     -43.311 -46.850  10.427  1.00  0.00     0.089 N 
HETATM   19  C   UNL     1     -43.340 -47.170   9.003  1.00  0.00     0.310 C 
HETATM   20  C   UNL     1     -43.027 -48.052  11.242  1.00  0.00     0.313 C 
ENDBRANCH   1  14
TORSDOF 2
ENDMDL
MODEL 5
REMARK VINA RESULT:      -5.2      2.377      6.684
REMARK  2 active torsions:
REMARK  status: ('A' for Active; 'I' for Inactive)
REMARK    1  A    between atoms: C_6  and  C_8 
REMARK       I    between atoms: C_8  and  N_10 
REMARK    2  A    between atoms: N_10  and  C_11 
ROOT
HETATM    1  C   UNL     1     -42.958 -49.653  12.889  1.00  0.00     0.253 C 
HETATM    2  O   UNL     1     -43.222 -48.723  13.647  1.00  0.00    -0.270 OA
HETATM    3  N   UNL     1     -42.520 -49.521  11.583  1.00  0.00    -0.323 N 
HETATM    4  H   UNL     1     -42.007 -50.330  11.232  1.00  0.00     0.169 HD
ENDROOT
BRANCH   3   5
HETATM    5  C   UNL     1     -42.292 -48.273  10.968  1.00  0.00     0.059 A 
HETATM    6  C   UNL     1     -43.304 -47.649  10.241  1.00  0.00     0.048 A 
HETATM    7  C   UNL     1     -43.046 -46.402   9.695  1.00  0.00     0.090 A 
HETATM    8  N   UNL     1     -41.878 -45.752   9.841  1.00  0.00    -0.368 N 
HETATM    9  C   UNL     1     -40.894 -46.372  10.553  1.00  0.00     0.029 A 
ATOM     10  HN  UNL     1     -41.733 -44.828   9.435  1.00  0.00     0.165 HD
HETATM   11  C   UNL     1     -39.651 -45.560  10.783  1.00  0.00     0.070 C 
HETATM   12  C   UNL     1     -41.047 -47.647  11.095  1.00  0.00     0.083 A 
HETATM   13 CL   UNL     1     -39.778 -48.412  11.993  1.00  0.00    -0.080 Cl
ENDBRANCH   3   5
BRANCH   1  14
HETATM   14  C   UNL     1     -43.104 -51.111  13.329  1.00  0.00     0.241 C 
HETATM   15  O   UNL     1     -42.378 -51.997  12.458  1.00  0.00    -0.373 OA
HETATM   16  C   UNL     1     -42.617 -53.365  12.817  1.00  0.00     0.199 C 
HETATM   17  C   UNL     1     -44.118 -53.704  12.784  1.00  0.00     0.298 C 
HETATM   18  N   UNL     1     -44.951 -52.823  13.627  1.00  0.00     0.089 N 
HETATM   19  C   UNL     1     -44.793 -53.107  15.050  1.00  0.00     0.310 C 
HETATM   20  C   UNL     1     -44.613 -51.417  13.318  1.00  0.00     0.313 C 
ENDBRANCH   1  14
TORSDOF 2
ENDMDL
MODEL 6
REMARK VINA RESULT:      -5.2      2.000      6.657
REMARK  2 active torsions:
REMARK  status: ('A' for Active; 'I' for Inactive)
REMARK    1  A    between atoms: C_6  and  C_8 
REMARK       I    between atoms: C_8  and  N_10 
REMARK    2  A    between atoms: N_10  and  C_11 
ROOT
HETATM    1  C   UNL     1     -43.111 -51.071  13.402  1.00  0.00     0.253 C 
HETATM    2  O   UNL     1     -42.654 -50.636  14.456  1.00  0.00    -0.270 OA
HETATM    3  N   UNL     1     -42.618 -50.788  12.140  1.00  0.00    -0.323 N 
HETATM    4  H   UNL     1     -42.853 -51.488  11.435  1.00  0.00     0.169 HD
ENDROOT
BRANCH   3   5
HETATM    5  C   UNL     1     -41.489 -49.974  11.917  1.00  0.00     0.059 A 
HETATM    6  C   UNL     1     -40.207 -50.520  11.956  1.00  0.00     0.048 A 
HETATM    7  C   UNL     1     -39.132 -49.689  11.684  1.00  0.00     0.090 A 
HETATM    8  N   UNL     1     -39.258 -48.387  11.369  1.00  0.00    -0.368 N 
HETATM    9  C   UNL     1     -40.516 -47.863  11.335  1.00  0.00     0.029 A 
ATOM     10  HN  UNL     1     -38.441 -47.812  11.161  1.00  0.00     0.165 HD
HETATM   11  C   UNL     1     -40.613 -46.438  10.870  1.00  0.00     0.070 C 
HETATM   12  C   UNL     1     -41.651 -48.612  11.644  1.00  0.00     0.083 A 
HETATM   13 CL   UNL     1     -43.238 -47.919  11.596  1.00  0.00    -0.080 Cl
ENDBRANCH   3   5
BRANCH   1  14
HETATM   14  C   UNL     1     -44.328 -51.998  13.378  1.00  0.00     0.241 C 
HETATM   15  O   UNL     1     -45.555 -51.252  13.475  1.00  0.00    -0.373 OA
HETATM   16  C   UNL     1     -46.679 -52.140  13.565  1.00  0.00     0.199 C 
HETATM   17  C   UNL     1     -46.546 -53.099  14.762  1.00  0.00     0.298 C 
HETATM   18  N   UNL     1     -45.297 -53.886  14.765  1.00  0.00     0.089 N 
HETATM   19  C   UNL     1     -45.308 -54.945  13.760  1.00  0.00     0.310 C 
HETATM   20  C   UNL     1     -44.158 -52.965  14.563  1.00  0.00     0.313 C 
ENDBRANCH   1  14
TORSDOF 2
ENDMDL
MODEL 7
REMARK VINA RESULT:      -5.2      3.015      4.041
REMARK  2 active torsions:
REMARK  status: ('A' for Active; 'I' for Inactive)
REMARK    1  A    between atoms: C_6  and  C_8 
REMARK       I    between atoms: C_8  and  N_10 
REMARK    2  A    between atoms: N_10  and  C_11 
ROOT
HETATM    1  C   UNL     1     -41.354 -52.407  13.051  1.00  0.00     0.253 C 
HETATM    2  O   UNL     1     -41.699 -52.368  11.872  1.00  0.00    -0.270 OA
HETATM    3  N   UNL     1     -42.183 -52.710  14.117  1.00  0.00    -0.323 N 
HETATM    4  H   UNL     1     -41.691 -53.056  14.941  1.00  0.00     0.169 HD
ENDROOT
BRANCH   3   5
HETATM    5  C   UNL     1     -43.543 -53.048  13.965  1.00  0.00     0.059 A 
HETATM    6  C   UNL     1     -43.924 -54.376  13.776  1.00  0.00     0.048 A 
HETATM    7  C   UNL     1     -45.275 -54.663  13.678  1.00  0.00     0.090 A 
HETATM    8  N   UNL     1     -46.243 -53.733  13.772  1.00  0.00    -0.368 N 
HETATM    9  C   UNL     1     -45.860 -52.438  13.954  1.00  0.00     0.029 A 
ATOM     10  HN  UNL     1     -47.229 -53.988  13.709  1.00  0.00     0.165 HD
HETATM   11  C   UNL     1     -46.977 -51.455  14.164  1.00  0.00     0.070 C 
HETATM   12  C   UNL     1     -44.522 -52.050  14.013  1.00  0.00     0.083 A 
HETATM   13 CL   UNL     1     -44.064 -50.395  14.243  1.00  0.00    -0.080 Cl
ENDBRANCH   3   5
BRANCH   1  14
HETATM   14  C   UNL     1     -39.917 -52.099  13.476  1.00  0.00     0.241 C 
HETATM   15  O   UNL     1     -39.811 -51.962  14.904  1.00  0.00    -0.373 OA
HETATM   16  C   UNL     1     -38.483 -51.563  15.275  1.00  0.00     0.199 C 
HETATM   17  C   UNL     1     -38.075 -50.249  14.586  1.00  0.00     0.298 C 
HETATM   18  N   UNL     1     -38.183 -50.284  13.114  1.00  0.00     0.089 N 
HETATM   19  C   UNL     1     -37.123 -51.079  12.500  1.00  0.00     0.310 C 
HETATM   20  C   UNL     1     -39.521 -50.800  12.751  1.00  0.00     0.313 C 
ENDBRANCH   1  14
TORSDOF 2
ENDMDL
MODEL 8
REMARK VINA RESULT:      -5.1      1.696      6.386
REMARK  2 active torsions:
REMARK  status: ('A' for Active; 'I' for Inactive)
REMARK    1  A    between atoms: C_6  and  C_8 
REMARK       I    between atoms: C_8  and  N_10 
REMARK    2  A    between atoms: N_10  and  C_11 
ROOT
HETATM    1  C   UNL     1     -43.284 -50.785  13.478  1.00  0.00     0.253 C 
HETATM    2  O   UNL     1     -42.884 -50.160  14.458  1.00  0.00    -0.270 OA
HETATM    3  N   UNL     1     -42.783 -50.665  12.194  1.00  0.00    -0.323 N 
HETATM    4  H   UNL     1     -42.951 -51.480  11.604  1.00  0.00     0.169 HD
ENDROOT
BRANCH   3   5
HETATM    5  C   UNL     1     -41.709 -49.814  11.861  1.00  0.00     0.059 A 
HETATM    6  C   UNL     1     -41.949 -48.510  11.431  1.00  0.00     0.048 A 
HETATM    7  C   UNL     1     -40.860 -47.699  11.160  1.00  0.00     0.090 A 
HETATM    8  N   UNL     1     -39.582 -48.093  11.305  1.00  0.00    -0.368 N 
HETATM    9  C   UNL     1     -39.359 -49.371  11.724  1.00  0.00     0.029 A 
ATOM     10  HN  UNL     1     -38.807 -47.459  11.109  1.00  0.00     0.165 HD
HETATM   11  C   UNL     1     -37.922 -49.728  11.978  1.00  0.00     0.070 C 
HETATM   12  C   UNL     1     -40.392 -50.273  11.971  1.00  0.00     0.083 A 
HETATM   13 CL   UNL     1     -40.079 -51.892  12.501  1.00  0.00    -0.080 Cl
ENDBRANCH   3   5
BRANCH   1  14
HETATM   14  C   UNL     1     -44.432 -51.791  13.584  1.00  0.00     0.241 C 
HETATM   15  O   UNL     1     -45.628 -51.169  14.088  1.00  0.00    -0.373 OA
HETATM   16  C   UNL     1     -46.659 -52.147  14.287  1.00  0.00     0.199 C 
HETATM   17  C   UNL     1     -46.201 -53.264  15.242  1.00  0.00     0.298 C 
HETATM   18  N   UNL     1     -44.958 -53.941  14.822  1.00  0.00     0.089 N 
HETATM   19  C   UNL     1     -45.170 -54.831  13.684  1.00  0.00     0.310 C 
HETATM   20  C   UNL     1     -43.940 -52.912  14.518  1.00  0.00     0.313 C 
ENDBRANCH   1  14
TORSDOF 2
ENDMDL
MODEL 9
REMARK VINA RESULT:      -5.1      2.285      6.681
REMARK  2 active torsions:
REMARK  status: ('A' for Active; 'I' for Inactive)
REMARK    1  A    between atoms: C_6  and  C_8 
REMARK       I    between atoms: C_8  and  N_10 
REMARK    2  A    between atoms: N_10  and  C_11 
ROOT
HETATM    1  C   UNL     1     -43.040 -49.623  13.034  1.00  0.00     0.253 C 
HETATM    2  O   UNL     1     -43.129 -48.720  13.863  1.00  0.00    -0.270 OA
HETATM    3  N   UNL     1     -42.657 -49.462  11.715  1.00  0.00    -0.323 N 
HETATM    4  H   UNL     1     -42.285 -50.309  11.283  1.00  0.00     0.169 HD
ENDROOT
BRANCH   3   5
HETATM    5  C   UNL     1     -42.284 -48.218  11.165  1.00  0.00     0.059 A 
HETATM    6  C   UNL     1     -40.977 -47.751  11.299  1.00  0.00     0.048 A 
HETATM    7  C   UNL     1     -40.648 -46.545  10.702  1.00  0.00     0.090 A 
HETATM    8  N   UNL     1     -41.515 -45.807   9.987  1.00  0.00    -0.368 N 
HETATM    9  C   UNL     1     -42.791 -46.271   9.865  1.00  0.00     0.029 A 
ATOM     10  HN  UNL     1     -41.229 -44.930   9.551  1.00  0.00     0.165 HD
HETATM   11  C   UNL     1     -43.690 -45.470   8.966  1.00  0.00     0.070 C 
HETATM   12  C   UNL     1     -43.224 -47.448  10.473  1.00  0.00     0.083 A 
HETATM   13 CL   UNL     1     -44.853 -48.014  10.303  1.00  0.00    -0.080 Cl
ENDBRANCH   3   5
BRANCH   1  14
HETATM   14  C   UNL     1     -43.372 -51.073  13.392  1.00  0.00     0.241 C 
HETATM   15  O   UNL     1     -42.749 -51.993  12.477  1.00  0.00    -0.373 OA
HETATM   16  C   UNL     1     -43.160 -53.339  12.758  1.00  0.00     0.199 C 
HETATM   17  C   UNL     1     -44.691 -53.486  12.696  1.00  0.00     0.298 C 
HETATM   18  N   UNL     1     -45.420 -52.556  13.581  1.00  0.00     0.089 N 
HETATM   19  C   UNL     1     -45.317 -52.935  14.987  1.00  0.00     0.310 C 
HETATM   20  C   UNL     1     -44.906 -51.188  13.353  1.00  0.00     0.313 C 
ENDBRANCH   1  14
TORSDOF 2
ENDMDL
