MODEL 1
REMARK VINA RESULT:      -5.4      0.000      0.000
REMARK  5 active torsions:
REMARK  status: ('A' for Active; 'I' for Inactive)
REMARK    1  A    between atoms: N_2  and  C_4 
REMARK    2  A    between atoms: C_4  and  C_5 
REMARK    3  A    between atoms: C_5  and  N_6 
REMARK       I    between atoms: N_6  and  C_7 
REMARK       I    between atoms: C_7  and  N_9 
REMARK    4  A    between atoms: N_9  and  C_10 
REMARK    5  A    between atoms: C_14  and  C_18 
ROOT
HETATM    1  C   UNL     1     -40.394 -51.460  11.979  1.00  0.00     0.067 A 
HETATM    2  C   UNL     1     -39.403 -51.379  12.933  1.00  0.00     0.120 A 
HETATM    3  N   UNL     1     -39.141 -52.353  13.832  1.00  0.00    -0.353 N 
ATOM      4  HN  UNL     1     -38.384 -52.261  14.509  1.00  0.00     0.166 HD
HETATM    5  C   UNL     1     -39.925 -53.454  13.797  1.00  0.00     0.085 A 
HETATM    6  N   UNL     1     -40.959 -53.593  12.943  1.00  0.00    -0.353 N 
ATOM      7  HN  UNL     1     -41.563 -54.414  12.972  1.00  0.00     0.166 HD
HETATM    8  C   UNL     1     -41.163 -52.602  12.048  1.00  0.00     0.120 A 
ENDROOT
BRANCH   1   9
HETATM    9  N   UNL     1     -40.559 -50.455  11.003  1.00  0.00    -0.306 N 
HETATM   10  C   UNL     1     -41.181 -49.260  11.310  1.00  0.00     0.320 C 
HETATM   11  N   UNL     1     -41.352 -48.487  10.188  1.00  0.00    -0.341 N 
HETATM   12  O   UNL     1     -41.627 -48.959  12.410  1.00  0.00    -0.247 OA
HETATM   13  H   UNL     1     -40.528 -48.396   9.605  1.00  0.00     0.164 HD
HETATM   14  H   UNL     1     -40.729 -50.754  10.052  1.00  0.00     0.171 HD
BRANCH  11  15
HETATM   15  C   UNL     1     -42.196 -47.307  10.256  1.00  0.00     0.154 C 
BRANCH  15  16
HETATM   16  C   UNL     1     -43.701 -47.609  10.149  1.00  0.00     0.291 C 
BRANCH  16  17
HETATM   17  N   UNL     1     -44.318 -47.245   8.852  1.00  0.00     0.081 N 
HETATM   18  C   UNL     1     -43.632 -47.871   7.720  1.00  0.00     0.309 C 
HETATM   19  C   UNL     1     -45.725 -47.676   8.855  1.00  0.00     0.309 C 
ENDBRANCH  16  17
ENDBRANCH  15  16
ENDBRANCH  11  15
ENDBRANCH   1   9
BRANCH   5  20
HETATM   20  C   UNL     1     -39.603 -54.611  14.710  1.00  0.00     0.053 A 
HETATM   21  C   UNL     1     -40.324 -54.755  16.029  1.00  0.00     0.013 A 
HETATM   22  C   UNL     1     -38.867 -54.399  16.010  1.00  0.00     0.013 A 
ENDBRANCH   5  20
TORSDOF 5
ENDMDL
MODEL 2
REMARK VINA RESULT:      -5.4      2.724      7.183
REMARK  5 active torsions:
REMARK  status: ('A' for Active; 'I' for Inactive)
REMARK    1  A    between atoms: N_2  and  C_4 
REMARK    2  A    between atoms: C_4  and  C_5 
REMARK    3  A    between atoms: C_5  and  N_6 
REMARK       I    between atoms: N_6  and  C_7 
REMARK       I    between atoms: C_7  and  N_9 
REMARK    4  A    between atoms: N_9  and  C_10 
REMARK    5  A    between atoms: C_14  and  C_18 
ROOT
HETATM    1  C   UNL     1     -40.628 -49.460  11.117  1.00  0.00     0.067 A 
HETATM    2  C   UNL     1     -41.470 -48.564  10.496  1.00  0.00     0.120 A 
HETATM    3  N   UNL     1     -41.224 -47.238  10.402  1.00  0.00    -0.353 N 
ATOM      4  HN  UNL     1     -41.865 -46.612   9.915  1.00  0.00     0.166 HD
HETATM    5  C   UNL     1     -40.092 -46.778  10.981  1.00  0.00     0.085 A 
HETATM    6  N   UNL     1     -39.242 -47.569  11.666  1.00  0.00    -0.353 N 
ATOM      7  HN  UNL     1     -38.420 -47.185  12.133  1.00  0.00     0.166 HD
HETATM    8  C   UNL     1     -39.521 -48.891  11.709  1.00  0.00     0.120 A 
ENDROOT
BRANCH   1   9
HETATM    9  N   UNL     1     -40.887 -50.846  11.099  1.00  0.00    -0.306 N 
HETATM   10  C   UNL     1     -41.652 -51.440  12.085  1.00  0.00     0.320 C 
HETATM   11  N   UNL     1     -41.666 -52.806  11.947  1.00  0.00    -0.341 N 
HETATM   12  O   UNL     1     -42.167 -50.852  13.028  1.00  0.00    -0.247 OA
HETATM   13  H   UNL     1     -41.858 -53.137  11.008  1.00  0.00     0.164 HD
HETATM   14  H   UNL     1     -40.156 -51.452  10.751  1.00  0.00     0.171 HD
BRANCH  11  15
HETATM   15  C   UNL     1     -42.212 -53.625  13.015  1.00  0.00     0.154 C 
BRANCH  15  16
HETATM   16  C   UNL     1     -43.714 -53.926  12.866  1.00  0.00     0.291 C 
BRANCH  16  17
HETATM   17  N   UNL     1     -44.396 -54.325  14.120  1.00  0.00     0.081 N 
HETATM   18  C   UNL     1     -45.558 -55.178  13.868  1.00  0.00     0.309 C 
HETATM   19  C   UNL     1     -43.442 -55.055  14.969  1.00  0.00     0.309 C 
ENDBRANCH  16  17
ENDBRANCH  15  16
ENDBRANCH  11  15
ENDBRANCH   1   9
BRANCH   5  20
HETATM   20  C   UNL     1     -39.722 -45.326  10.811  1.00  0.00     0.053 A 
HETATM   21  C   UNL     1     -39.659 -44.416  12.015  1.00  0.00     0.013 A 
HETATM   22  C   UNL     1     -40.744 -44.231  10.997  1.00  0.00     0.013 A 
ENDBRANCH   5  20
TORSDOF 5
ENDMDL
MODEL 3
REMARK VINA RESULT:      -5.3      1.807      7.547
REMARK  5 active torsions:
REMARK  status: ('A' for Active; 'I' for Inactive)
REMARK    1  A    between atoms: N_2  and  C_4 
REMARK    2  A    between atoms: C_4  and  C_5 
REMARK    3  A    between atoms: C_5  and  N_6 
REMARK       I    between atoms: N_6  and  C_7 
REMARK       I    between atoms: C_7  and  N_9 
REMARK    4  A    between atoms: N_9  and  C_10 
REMARK    5  A    between atoms: C_14  and  C_18 
ROOT
HETATM    1  C   UNL     1     -41.709 -47.682  11.349  1.00  0.00     0.067 A 
HETATM    2  C   UNL     1     -42.912 -48.298  11.614  1.00  0.00     0.120 A 
HETATM    3  N   UNL     1     -43.993 -48.223  10.806  1.00  0.00    -0.353 N 
ATOM      4  HN  UNL     1     -44.859 -48.712  11.031  1.00  0.00     0.166 HD
HETATM    5  C   UNL     1     -43.876 -47.472   9.687  1.00  0.00     0.085 A 
HETATM    6  N   UNL     1     -42.760 -46.781   9.378  1.00  0.00    -0.353 N 
ATOM      7  HN  UNL     1     -42.718 -46.185   8.552  1.00  0.00     0.166 HD
HETATM    8  C   UNL     1     -41.701 -46.910  10.207  1.00  0.00     0.120 A 
ENDROOT
BRANCH   1   9
HETATM    9  N   UNL     1     -40.585 -47.874  12.179  1.00  0.00    -0.306 N 
HETATM   10  C   UNL     1     -39.757 -48.968  12.012  1.00  0.00     0.320 C 
HETATM   11  N   UNL     1     -38.810 -49.029  13.004  1.00  0.00    -0.341 N 
HETATM   12  O   UNL     1     -39.901 -49.838  11.162  1.00  0.00    -0.247 OA
HETATM   13  H   UNL     1     -38.325 -48.157  13.183  1.00  0.00     0.164 HD
HETATM   14  H   UNL     1     -40.665 -47.586  13.145  1.00  0.00     0.171 HD
BRANCH  11  15
HETATM   15  C   UNL     1     -38.000 -50.227  13.145  1.00  0.00     0.154 C 
BRANCH  15  16
HETATM   16  C   UNL     1     -38.511 -51.203  14.219  1.00  0.00     0.291 C 
BRANCH  16  17
HETATM   17  N   UNL     1     -39.449 -52.238  13.724  1.00  0.00     0.081 N 
HETATM   18  C   UNL     1     -39.089 -53.578  14.188  1.00  0.00     0.309 C 
HETATM   19  C   UNL     1     -40.805 -51.917  14.195  1.00  0.00     0.309 C 
ENDBRANCH  16  17
ENDBRANCH  15  16
ENDBRANCH  11  15
ENDBRANCH   1   9
BRANCH   5  20
HETATM   20  C   UNL     1     -45.018 -47.446   8.702  1.00  0.00     0.053 A 
HETATM   21  C   UNL     1     -46.290 -46.705   9.040  1.00  0.00     0.013 A 
HETATM   22  C   UNL     1     -46.297 -48.202   8.968  1.00  0.00     0.013 A 
ENDBRANCH   5  20
TORSDOF 5
ENDMDL
MODEL 4
REMARK VINA RESULT:      -5.3      2.083      7.442
REMARK  5 active torsions:
REMARK  status: ('A' for Active; 'I' for Inactive)
REMARK    1  A    between atoms: N_2  and  C_4 
REMARK    2  A    between atoms: C_4  and  C_5 
REMARK    3  A    between atoms: C_5  and  N_6 
REMARK       I    between atoms: N_6  and  C_7 
REMARK       I    between atoms: C_7  and  N_9 
REMARK    4  A    between atoms: N_9  and  C_10 
REMARK    5  A    between atoms: C_14  and  C_18 
ROOT
HETATM    1  C   UNL     1     -40.670 -49.306  11.109  1.00  0.00     0.067 A 
HETATM    2  C   UNL     1     -41.587 -48.582  10.380  1.00  0.00     0.120 A 
HETATM    3  N   UNL     1     -41.630 -47.232  10.352  1.00  0.00    -0.353 N 
ATOM      4  HN  UNL     1     -42.314 -46.734   9.782  1.00  0.00     0.166 HD
HETATM    5  C   UNL     1     -40.729 -46.568  11.111  1.00  0.00     0.085 A 
HETATM    6  N   UNL     1     -39.836 -47.192  11.905  1.00  0.00    -0.353 N 
ATOM      7  HN  UNL     1     -39.200 -46.665  12.503  1.00  0.00     0.166 HD
HETATM    8  C   UNL     1     -39.818 -48.543  11.879  1.00  0.00     0.120 A 
ENDROOT
BRANCH   1   9
HETATM    9  N   UNL     1     -40.609 -50.713  11.024  1.00  0.00    -0.306 N 
HETATM   10  C   UNL     1     -41.205 -51.510  11.983  1.00  0.00     0.320 C 
HETATM   11  N   UNL     1     -40.912 -52.836  11.779  1.00  0.00    -0.341 N 
HETATM   12  O   UNL     1     -41.825 -51.099  12.956  1.00  0.00    -0.247 OA
HETATM   13  H   UNL     1     -41.038 -53.157  10.826  1.00  0.00     0.164 HD
HETATM   14  H   UNL     1     -39.765 -51.120  10.644  1.00  0.00     0.171 HD
BRANCH  11  15
HETATM   15  C   UNL     1     -41.242 -53.807  12.808  1.00  0.00     0.154 C 
BRANCH  15  16
HETATM   16  C   UNL     1     -40.033 -54.269  13.641  1.00  0.00     0.291 C 
BRANCH  16  17
HETATM   17  N   UNL     1     -39.976 -53.716  15.014  1.00  0.00     0.081 N 
HETATM   18  C   UNL     1     -39.249 -52.446  15.069  1.00  0.00     0.309 C 
HETATM   19  C   UNL     1     -41.348 -53.501  15.498  1.00  0.00     0.309 C 
ENDBRANCH  16  17
ENDBRANCH  15  16
ENDBRANCH  11  15
ENDBRANCH   1   9
BRANCH   5  20
HETATM   20  C   UNL     1     -40.669 -45.064  11.028  1.00  0.00     0.053 A 
HETATM   21  C   UNL     1     -39.594 -44.395  10.204  1.00  0.00     0.013 A 
HETATM   22  C   UNL     1     -39.562 -44.287  11.699  1.00  0.00     0.013 A 
ENDBRANCH   5  20
TORSDOF 5
ENDMDL
MODEL 5
REMARK VINA RESULT:      -5.1      3.846      6.056
REMARK  5 active torsions:
REMARK  status: ('A' for Active; 'I' for Inactive)
REMARK    1  A    between atoms: N_2  and  C_4 
REMARK    2  A    between atoms: C_4  and  C_5 
REMARK    3  A    between atoms: C_5  and  N_6 
REMARK       I    between atoms: N_6  and  C_7 
REMARK       I    between atoms: C_7  and  N_9 
REMARK    4  A    between atoms: N_9  and  C_10 
REMARK    5  A    between atoms: C_14  and  C_18 
ROOT
HETATM    1  C   UNL     1     -42.326 -50.347  12.471  1.00  0.00     0.067 A 
HETATM    2  C   UNL     1     -41.460 -51.358  12.116  1.00  0.00     0.120 A 
HETATM    3  N   UNL     1     -40.119 -51.211  12.040  1.00  0.00    -0.353 N 
ATOM      4  HN  UNL     1     -39.512 -51.992  11.791  1.00  0.00     0.166 HD
HETATM    5  C   UNL     1     -39.616 -49.984  12.306  1.00  0.00     0.085 A 
HETATM    6  N   UNL     1     -40.390 -48.920  12.599  1.00  0.00    -0.353 N 
ATOM      7  HN  UNL     1     -39.985 -47.996  12.748  1.00  0.00     0.166 HD
HETATM    8  C   UNL     1     -41.723 -49.126  12.687  1.00  0.00     0.120 A 
ENDROOT
BRANCH   1   9
HETATM    9  N   UNL     1     -43.707 -50.583  12.630  1.00  0.00    -0.306 N 
HETATM   10  C   UNL     1     -44.238 -50.897  13.867  1.00  0.00     0.320 C 
HETATM   11  N   UNL     1     -45.570 -51.215  13.769  1.00  0.00    -0.341 N 
HETATM   12  O   UNL     1     -43.596 -50.992  14.906  1.00  0.00    -0.247 OA
HETATM   13  H   UNL     1     -46.124 -50.563  13.226  1.00  0.00     0.164 HD
HETATM   14  H   UNL     1     -44.192 -51.037  11.868  1.00  0.00     0.171 HD
BRANCH  11  15
HETATM   15  C   UNL     1     -46.249 -51.803  14.911  1.00  0.00     0.154 C 
BRANCH  15  16
HETATM   16  C   UNL     1     -46.953 -53.136  14.600  1.00  0.00     0.291 C 
BRANCH  16  17
HETATM   17  N   UNL     1     -46.208 -54.346  15.021  1.00  0.00     0.081 N 
HETATM   18  C   UNL     1     -45.469 -54.953  13.912  1.00  0.00     0.309 C 
HETATM   19  C   UNL     1     -45.259 -53.976  16.081  1.00  0.00     0.309 C 
ENDBRANCH  16  17
ENDBRANCH  15  16
ENDBRANCH  11  15
ENDBRANCH   1   9
BRANCH   5  20
HETATM   20  C   UNL     1     -38.120 -49.799  12.338  1.00  0.00     0.053 A 
HETATM   21  C   UNL     1     -37.308 -49.989  11.078  1.00  0.00     0.013 A 
HETATM   22  C   UNL     1     -37.183 -50.975  12.201  1.00  0.00     0.013 A 
ENDBRANCH   5  20
TORSDOF 5
ENDMDL
MODEL 6
REMARK VINA RESULT:      -5.1      2.402      3.275
REMARK  5 active torsions:
REMARK  status: ('A' for Active; 'I' for Inactive)
REMARK    1  A    between atoms: N_2  and  C_4 
REMARK    2  A    between atoms: C_4  and  C_5 
REMARK    3  A    between atoms: C_5  and  N_6 
REMARK       I    between atoms: N_6  and  C_7 
REMARK       I    between atoms: C_7  and  N_9 
REMARK    4  A    between atoms: N_9  and  C_10 
REMARK    5  A    between atoms: C_14  and  C_18 
ROOT
HETATM    1  C   UNL     1     -41.534 -52.404  12.203  1.00  0.00     0.067 A 
HETATM    2  C   UNL     1     -42.874 -52.669  12.381  1.00  0.00     0.120 A 
HETATM    3  N   UNL     1     -43.353 -53.576  13.261  1.00  0.00    -0.353 N 
ATOM      4  HN  UNL     1     -44.355 -53.727  13.376  1.00  0.00     0.166 HD
HETATM    5  C   UNL     1     -42.447 -54.276  13.981  1.00  0.00     0.085 A 
HETATM    6  N   UNL     1     -41.115 -54.132  13.827  1.00  0.00    -0.353 N 
ATOM      7  HN  UNL     1     -40.456 -54.708  14.350  1.00  0.00     0.166 HD
HETATM    8  C   UNL     1     -40.689 -53.194  12.953  1.00  0.00     0.120 A 
ENDROOT
BRANCH   1   9
HETATM    9  N   UNL     1     -41.095 -51.377  11.342  1.00  0.00    -0.306 N 
HETATM   10  C   UNL     1     -41.336 -50.048  11.639  1.00  0.00     0.320 C 
HETATM   11  N   UNL     1     -40.944 -49.231  10.608  1.00  0.00    -0.341 N 
HETATM   12  O   UNL     1     -41.921 -49.644  12.636  1.00  0.00    -0.247 OA
HETATM   13  H   UNL     1     -40.017 -49.420  10.244  1.00  0.00     0.164 HD
HETATM   14  H   UNL     1     -41.106 -51.565  10.348  1.00  0.00     0.171 HD
BRANCH  11  15
HETATM   15  C   UNL     1     -41.329 -47.830  10.622  1.00  0.00     0.154 C 
BRANCH  15  16
HETATM   16  C   UNL     1     -40.222 -46.883  11.119  1.00  0.00     0.291 C 
BRANCH  16  17
HETATM   17  N   UNL     1     -40.443 -45.451  10.808  1.00  0.00     0.081 N 
HETATM   18  C   UNL     1     -41.857 -45.082  10.883  1.00  0.00     0.309 C 
HETATM   19  C   UNL     1     -39.684 -44.633  11.767  1.00  0.00     0.309 C 
ENDBRANCH  16  17
ENDBRANCH  15  16
ENDBRANCH  11  15
ENDBRANCH   1   9
BRANCH   5  20
HETATM   20  C   UNL     1     -42.936 -55.222  15.049  1.00  0.00     0.053 A 
HETATM   21  C   UNL     1     -43.288 -54.695  16.420  1.00  0.00     0.013 A 
HETATM   22  C   UNL     1     -42.078 -55.562  16.243  1.00  0.00     0.013 A 
ENDBRANCH   5  20
TORSDOF 5
ENDMDL
MODEL 7
REMARK VINA RESULT:      -5.0      3.156      7.952
REMARK  5 active torsions:
REMARK  status: ('A' for Active; 'I' for Inactive)
REMARK    1  A    between atoms: N_2  and  C_4 
REMARK    2  A    between atoms: C_4  and  C_5 
REMARK    3  A    between atoms: C_5  and  N_6 
REMARK       I    between atoms: N_6  and  C_7 
REMARK       I    between atoms: C_7  and  N_9 
REMARK    4  A    between atoms: N_9  and  C_10 
REMARK    5  A    between atoms: C_14  and  C_18 
ROOT
HETATM    1  C   UNL     1     -42.310 -46.764  11.540  1.00  0.00     0.067 A 
HETATM    2  C   UNL     1     -42.487 -45.974  10.426  1.00  0.00     0.120 A 
HETATM    3  N   UNL     1     -43.437 -46.193   9.489  1.00  0.00    -0.353 N 
ATOM      4  HN  UNL     1     -43.547 -45.571   8.689  1.00  0.00     0.166 HD
HETATM    5  C   UNL     1     -44.234 -47.272   9.658  1.00  0.00     0.085 A 
HETATM    6  N   UNL     1     -44.092 -48.138  10.682  1.00  0.00    -0.353 N 
ATOM      7  HN  UNL     1     -44.677 -48.970  10.758  1.00  0.00     0.166 HD
HETATM    8  C   UNL     1     -43.144 -47.860  11.605  1.00  0.00     0.120 A 
ENDROOT
BRANCH   1   9
HETATM    9  N   UNL     1     -41.367 -46.431  12.535  1.00  0.00    -0.306 N 
HETATM   10  C   UNL     1     -40.118 -47.023  12.558  1.00  0.00     0.320 C 
HETATM   11  N   UNL     1     -39.416 -46.656  13.679  1.00  0.00    -0.341 N 
HETATM   12  O   UNL     1     -39.716 -47.853  11.752  1.00  0.00    -0.247 OA
HETATM   13  H   UNL     1     -39.414 -45.661  13.873  1.00  0.00     0.164 HD
HETATM   14  H   UNL     1     -41.720 -46.222  13.459  1.00  0.00     0.171 HD
BRANCH  11  15
HETATM   15  C   UNL     1     -38.185 -47.352  14.010  1.00  0.00     0.154 C 
BRANCH  15  16
HETATM   16  C   UNL     1     -38.396 -48.631  14.841  1.00  0.00     0.291 C 
BRANCH  16  17
HETATM   17  N   UNL     1     -37.438 -49.725  14.552  1.00  0.00     0.081 N 
HETATM   18  C   UNL     1     -36.557 -50.001  15.688  1.00  0.00     0.309 C 
HETATM   19  C   UNL     1     -38.193 -50.945  14.225  1.00  0.00     0.309 C 
ENDBRANCH  16  17
ENDBRANCH  15  16
ENDBRANCH  11  15
ENDBRANCH   1   9
BRANCH   5  20
HETATM   20  C   UNL     1     -45.375 -47.497   8.698  1.00  0.00     0.053 A 
HETATM   21  C   UNL     1     -46.750 -46.962   9.021  1.00  0.00     0.013 A 
HETATM   22  C   UNL     1     -46.504 -48.441   9.032  1.00  0.00     0.013 A 
ENDBRANCH   5  20
TORSDOF 5
ENDMDL
MODEL 8
REMARK VINA RESULT:      -5.0      1.914      7.821
REMARK  5 active torsions:
REMARK  status: ('A' for Active; 'I' for Inactive)
REMARK    1  A    between atoms: N_2  and  C_4 
REMARK    2  A    between atoms: C_4  and  C_5 
REMARK    3  A    between atoms: C_5  and  N_6 
REMARK       I    between atoms: N_6  and  C_7 
REMARK       I    between atoms: C_7  and  N_9 
REMARK    4  A    between atoms: N_9  and  C_10 
REMARK    5  A    between atoms: C_14  and  C_18 
ROOT
HETATM    1  C   UNL     1     -41.673 -49.390  11.983  1.00  0.00     0.067 A 
HETATM    2  C   UNL     1     -42.976 -48.958  12.098  1.00  0.00     0.120 A 
HETATM    3  N   UNL     1     -43.618 -48.238  11.151  1.00  0.00    -0.353 N 
ATOM      4  HN  UNL     1     -44.591 -47.955  11.268  1.00  0.00     0.166 HD
HETATM    5  C   UNL     1     -42.916 -47.909  10.043  1.00  0.00     0.085 A 
HETATM    6  N   UNL     1     -41.619 -48.232   9.872  1.00  0.00    -0.353 N 
ATOM      7  HN  UNL     1     -41.102 -47.929   9.047  1.00  0.00     0.166 HD
HETATM    8  C   UNL     1     -41.030 -48.974  10.837  1.00  0.00     0.120 A 
ENDROOT
BRANCH   1   9
HETATM    9  N   UNL     1     -41.085 -50.222  12.958  1.00  0.00    -0.306 N 
HETATM   10  C   UNL     1     -41.091 -51.597  12.818  1.00  0.00     0.320 C 
HETATM   11  N   UNL     1     -40.588 -52.212  13.938  1.00  0.00    -0.341 N 
HETATM   12  O   UNL     1     -41.576 -52.208  11.874  1.00  0.00    -0.247 OA
HETATM   13  H   UNL     1     -39.715 -51.826  14.279  1.00  0.00     0.164 HD
HETATM   14  H   UNL     1     -41.150 -49.926  13.923  1.00  0.00     0.171 HD
BRANCH  11  15
HETATM   15  C   UNL     1     -40.729 -53.650  14.087  1.00  0.00     0.154 C 
BRANCH  15  16
HETATM   16  C   UNL     1     -40.925 -54.111  15.542  1.00  0.00     0.291 C 
BRANCH  16  17
HETATM   17  N   UNL     1     -42.273 -54.646  15.849  1.00  0.00     0.081 N 
HETATM   18  C   UNL     1     -43.100 -54.779  14.649  1.00  0.00     0.309 C 
HETATM   19  C   UNL     1     -42.128 -55.968  16.478  1.00  0.00     0.309 C 
ENDBRANCH  16  17
ENDBRANCH  15  16
ENDBRANCH  11  15
ENDBRANCH   1   9
BRANCH   5  20
HETATM   20  C   UNL     1     -43.622 -47.200   8.915  1.00  0.00     0.053 A 
HETATM   21  C   UNL     1     -43.939 -45.728   9.029  1.00  0.00     0.013 A 
HETATM   22  C   UNL     1     -45.050 -46.734   9.056  1.00  0.00     0.013 A 
ENDBRANCH   5  20
TORSDOF 5
ENDMDL
MODEL 9
REMARK VINA RESULT:      -5.0      5.661      8.062
REMARK  5 active torsions:
REMARK  status: ('A' for Active; 'I' for Inactive)
REMARK    1  A    between atoms: N_2  and  C_4 
REMARK    2  A    between atoms: C_4  and  C_5 
REMARK    3  A    between atoms: C_5  and  N_6 
REMARK       I    between atoms: N_6  and  C_7 
REMARK       I    between atoms: C_7  and  N_9 
REMARK    4  A    between atoms: N_9  and  C_10 
REMARK    5  A    between atoms: C_14  and  C_18 
ROOT
HETATM    1  C   UNL     1     -42.406 -46.206   9.896  1.00  0.00     0.067 A 
HETATM    2  C   UNL     1     -42.774 -47.495  10.213  1.00  0.00     0.120 A 
HETATM    3  N   UNL     1     -43.917 -48.078   9.791  1.00  0.00    -0.353 N 
ATOM      4  HN  UNL     1     -44.142 -49.043  10.033  1.00  0.00     0.166 HD
HETATM    5  C   UNL     1     -44.750 -47.329   9.034  1.00  0.00     0.085 A 
HETATM    6  N   UNL     1     -44.505 -46.039   8.728  1.00  0.00    -0.353 N 
ATOM      7  HN  UNL     1     -45.175 -45.484   8.195  1.00  0.00     0.166 HD
HETATM    8  C   UNL     1     -43.336 -45.511   9.154  1.00  0.00     0.120 A 
ENDROOT
BRANCH   1   9
HETATM    9  N   UNL     1     -41.155 -45.682  10.283  1.00  0.00    -0.306 N 
HETATM   10  C   UNL     1     -40.965 -45.156  11.547  1.00  0.00     0.320 C 
HETATM   11  N   UNL     1     -39.721 -44.585  11.665  1.00  0.00    -0.341 N 
HETATM   12  O   UNL     1     -41.818 -45.099  12.423  1.00  0.00    -0.247 OA
HETATM   13  H   UNL     1     -38.957 -45.159  11.327  1.00  0.00     0.164 HD
HETATM   14  H   UNL     1     -40.608 -45.210   9.575  1.00  0.00     0.171 HD
BRANCH  11  15
HETATM   15  C   UNL     1     -39.417 -43.771  12.829  1.00  0.00     0.154 C 
BRANCH  15  16
HETATM   16  C   UNL     1     -39.872 -42.306  12.701  1.00  0.00     0.291 C 
BRANCH  16  17
HETATM   17  N   UNL     1     -40.356 -41.693  13.960  1.00  0.00     0.081 N 
HETATM   18  C   UNL     1     -41.523 -40.836  13.744  1.00  0.00     0.309 C 
HETATM   19  C   UNL     1     -40.718 -42.763  14.903  1.00  0.00     0.309 C 
ENDBRANCH  16  17
ENDBRANCH  15  16
ENDBRANCH  11  15
ENDBRANCH   1   9
BRANCH   5  20
HETATM   20  C   UNL     1     -45.985 -47.970   8.451  1.00  0.00     0.053 A 
HETATM   21  C   UNL     1     -47.337 -47.704   9.070  1.00  0.00     0.013 A 
HETATM   22  C   UNL     1     -46.718 -49.065   9.187  1.00  0.00     0.013 A 
ENDBRANCH   5  20
TORSDOF 5
ENDMDL
