MODEL 1
REMARK VINA RESULT:      -6.5      0.000      0.000
REMARK  5 active torsions:
REMARK  status: ('A' for Active; 'I' for Inactive)
REMARK    1  A    between atoms: N_8  and  C_9 
REMARK    2  A    between atoms: C_9  and  C_10 
REMARK    3  A    between atoms: C_10  and  O_11 
REMARK    4  A    between atoms: C_10  and  C_12 
REMARK    5  A    between atoms: C_12  and  N_13 
ROOT
HETATM    1  C   UNL     1     -46.349 -54.406  14.635  1.00  0.00     0.049 C 
HETATM    2  C   UNL     1     -45.281 -53.533  14.027  1.00  0.00    -0.054 A 
HETATM    3  C   UNL     1     -44.117 -54.141  13.515  1.00  0.00     0.039 A 
HETATM    4  C   UNL     1     -43.100 -53.347  12.968  1.00  0.00     0.060 A 
HETATM    5  N   UNL     1     -41.890 -53.722  12.434  1.00  0.00    -0.350 N 
ATOM      6  HN  UNL     1     -41.519 -54.668  12.345  1.00  0.00     0.166 HD
HETATM    7  C   UNL     1     -41.314 -52.602  12.063  1.00  0.00     0.184 A 
HETATM    8  N   UNL     1     -42.079 -51.512  12.377  1.00  0.00    -0.339 N 
HETATM    9  C   UNL     1     -43.256 -51.967  12.927  1.00  0.00     0.062 A 
HETATM   10  C   UNL     1     -44.411 -51.330  13.403  1.00  0.00     0.039 A 
HETATM   11  C   UNL     1     -45.424 -52.131  13.972  1.00  0.00    -0.054 A 
HETATM   12  C   UNL     1     -46.652 -51.457  14.528  1.00  0.00     0.049 C 
ENDROOT
BRANCH   8  13
HETATM   13  C   UNL     1     -41.694 -50.129  12.156  1.00  0.00     0.163 C 
BRANCH  13  14
HETATM   14  C   UNL     1     -40.309 -49.947  11.507  1.00  0.00     0.156 C 
BRANCH  14  15
HETATM   15  O   UNL     1     -40.449 -49.860  10.082  1.00  0.00    -0.392 OA
HETATM   16  H   UNL     1     -41.348 -50.142   9.833  1.00  0.00     0.210 HD
ENDBRANCH  14  15
BRANCH  14  17
HETATM   17  C   UNL     1     -39.521 -48.758  12.073  1.00  0.00     0.181 C 
BRANCH  17  18
HETATM   18  N   UNL     1     -40.185 -47.491  11.808  1.00  0.00    -0.301 N 
HETATM   19  C   UNL     1     -40.632 -46.600  12.743  1.00  0.00     0.111 A 
HETATM   20  C   UNL     1     -41.193 -45.561  12.041  1.00  0.00     0.037 A 
HETATM   21  C   UNL     1     -41.014 -45.910  10.689  1.00  0.00     0.108 A 
HETATM   22  N   UNL     1     -40.388 -47.082  10.541  1.00  0.00    -0.310 N 
ATOM     23  HN  UNL     1     -40.127 -47.553   9.675  1.00  0.00     0.186 HD
ENDBRANCH  17  18
ENDBRANCH  14  17
ENDBRANCH  13  14
ENDBRANCH   8  13
TORSDOF 5
ENDMDL
MODEL 2
REMARK VINA RESULT:      -6.0      1.618      2.469
REMARK  5 active torsions:
REMARK  status: ('A' for Active; 'I' for Inactive)
REMARK    1  A    between atoms: N_8  and  C_9 
REMARK    2  A    between atoms: C_9  and  C_10 
REMARK    3  A    between atoms: C_10  and  O_11 
REMARK    4  A    between atoms: C_10  and  C_12 
REMARK    5  A    between atoms: C_12  and  N_13 
ROOT
HETATM    1  C   UNL     1     -46.353 -54.399  14.710  1.00  0.00     0.049 C 
HETATM    2  C   UNL     1     -45.297 -53.530  14.076  1.00  0.00    -0.054 A 
HETATM    3  C   UNL     1     -44.112 -54.134  13.609  1.00  0.00     0.039 A 
HETATM    4  C   UNL     1     -43.106 -53.342  13.038  1.00  0.00     0.060 A 
HETATM    5  N   UNL     1     -41.880 -53.713  12.539  1.00  0.00    -0.350 N 
ATOM      6  HN  UNL     1     -41.486 -54.654  12.500  1.00  0.00     0.166 HD
HETATM    7  C   UNL     1     -41.325 -52.599  12.123  1.00  0.00     0.184 A 
HETATM    8  N   UNL     1     -42.119 -51.514  12.374  1.00  0.00    -0.339 N 
HETATM    9  C   UNL     1     -43.294 -51.970  12.930  1.00  0.00     0.062 A 
HETATM   10  C   UNL     1     -44.470 -51.339  13.360  1.00  0.00     0.039 A 
HETATM   11  C   UNL     1     -45.472 -52.136  13.952  1.00  0.00    -0.054 A 
HETATM   12  C   UNL     1     -46.723 -51.466  14.460  1.00  0.00     0.049 C 
ENDROOT
BRANCH   8  13
HETATM   13  C   UNL     1     -41.763 -50.134  12.093  1.00  0.00     0.163 C 
BRANCH  13  14
HETATM   14  C   UNL     1     -40.321 -49.936  11.587  1.00  0.00     0.156 C 
BRANCH  14  15
HETATM   15  O   UNL     1     -40.309 -49.920  10.154  1.00  0.00    -0.392 OA
HETATM   16  H   UNL     1     -40.954 -49.260   9.837  1.00  0.00     0.210 HD
ENDBRANCH  14  15
BRANCH  14  17
HETATM   17  C   UNL     1     -39.633 -48.697  12.175  1.00  0.00     0.181 C 
BRANCH  17  18
HETATM   18  N   UNL     1     -38.708 -49.045  13.243  1.00  0.00    -0.301 N 
HETATM   19  C   UNL     1     -37.959 -48.173  13.981  1.00  0.00     0.111 A 
HETATM   20  C   UNL     1     -37.236 -48.943  14.861  1.00  0.00     0.037 A 
HETATM   21  C   UNL     1     -37.638 -50.264  14.588  1.00  0.00     0.108 A 
HETATM   22  N   UNL     1     -38.546 -50.331  13.609  1.00  0.00    -0.310 N 
ATOM     23  HN  UNL     1     -39.006 -51.159  13.230  1.00  0.00     0.186 HD
ENDBRANCH  17  18
ENDBRANCH  14  17
ENDBRANCH  13  14
ENDBRANCH   8  13
TORSDOF 5
ENDMDL
MODEL 3
REMARK VINA RESULT:      -5.9      2.750      3.678
REMARK  5 active torsions:
REMARK  status: ('A' for Active; 'I' for Inactive)
REMARK    1  A    between atoms: N_8  and  C_9 
REMARK    2  A    between atoms: C_9  and  C_10 
REMARK    3  A    between atoms: C_10  and  O_11 
REMARK    4  A    between atoms: C_10  and  C_12 
REMARK    5  A    between atoms: C_12  and  N_13 
ROOT
HETATM    1  C   UNL     1     -47.519 -51.222  16.369  1.00  0.00     0.049 C 
HETATM    2  C   UNL     1     -46.323 -51.814  15.669  1.00  0.00    -0.054 A 
HETATM    3  C   UNL     1     -46.323 -51.878  14.260  1.00  0.00     0.039 A 
HETATM    4  C   UNL     1     -45.232 -52.447  13.589  1.00  0.00     0.060 A 
HETATM    5  N   UNL     1     -45.032 -52.625  12.240  1.00  0.00    -0.350 N 
ATOM      6  HN  UNL     1     -45.663 -52.366  11.481  1.00  0.00     0.166 HD
HETATM    7  C   UNL     1     -43.857 -53.199  12.139  1.00  0.00     0.184 A 
HETATM    8  N   UNL     1     -43.305 -53.444  13.367  1.00  0.00    -0.339 N 
HETATM    9  C   UNL     1     -44.156 -52.933  14.321  1.00  0.00     0.062 A 
HETATM   10  C   UNL     1     -44.110 -52.862  15.721  1.00  0.00     0.039 A 
HETATM   11  C   UNL     1     -45.218 -52.308  16.394  1.00  0.00    -0.054 A 
HETATM   12  C   UNL     1     -45.203 -52.266  17.901  1.00  0.00     0.049 C 
ENDROOT
BRANCH   8  13
HETATM   13  C   UNL     1     -42.042 -54.125  13.596  1.00  0.00     0.163 C 
BRANCH  13  14
HETATM   14  C   UNL     1     -40.805 -53.367  13.079  1.00  0.00     0.156 C 
BRANCH  14  15
HETATM   15  O   UNL     1     -40.657 -53.584  11.669  1.00  0.00    -0.392 OA
HETATM   16  H   UNL     1     -40.913 -52.772  11.194  1.00  0.00     0.210 HD
ENDBRANCH  14  15
BRANCH  14  17
HETATM   17  C   UNL     1     -40.816 -51.872  13.425  1.00  0.00     0.181 C 
BRANCH  17  18
HETATM   18  N   UNL     1     -39.647 -51.184  12.899  1.00  0.00    -0.301 N 
HETATM   19  C   UNL     1     -38.438 -51.050  13.521  1.00  0.00     0.111 A 
HETATM   20  C   UNL     1     -37.646 -50.327  12.662  1.00  0.00     0.037 A 
HETATM   21  C   UNL     1     -38.463 -50.092  11.540  1.00  0.00     0.108 A 
HETATM   22  N   UNL     1     -39.683 -50.624  11.674  1.00  0.00    -0.310 N 
ATOM     23  HN  UNL     1     -40.455 -50.608  11.008  1.00  0.00     0.186 HD
ENDBRANCH  17  18
ENDBRANCH  14  17
ENDBRANCH  13  14
ENDBRANCH   8  13
TORSDOF 5
ENDMDL
MODEL 4
REMARK VINA RESULT:      -5.9      3.785      5.341
REMARK  5 active torsions:
REMARK  status: ('A' for Active; 'I' for Inactive)
REMARK    1  A    between atoms: N_8  and  C_9 
REMARK    2  A    between atoms: C_9  and  C_10 
REMARK    3  A    between atoms: C_10  and  O_11 
REMARK    4  A    between atoms: C_10  and  C_12 
REMARK    5  A    between atoms: C_12  and  N_13 
ROOT
HETATM    1  C   UNL     1     -47.744 -51.202  16.770  1.00  0.00     0.049 C 
HETATM    2  C   UNL     1     -46.607 -51.456  15.814  1.00  0.00    -0.054 A 
HETATM    3  C   UNL     1     -46.794 -52.379  14.766  1.00  0.00     0.039 A 
HETATM    4  C   UNL     1     -45.742 -52.651  13.880  1.00  0.00     0.060 A 
HETATM    5  N   UNL     1     -45.700 -53.515  12.812  1.00  0.00    -0.350 N 
ATOM      6  HN  UNL     1     -46.448 -54.122  12.476  1.00  0.00     0.166 HD
HETATM    7  C   UNL     1     -44.491 -53.393  12.317  1.00  0.00     0.184 A 
HETATM    8  N   UNL     1     -43.731 -52.521  13.047  1.00  0.00    -0.339 N 
HETATM    9  C   UNL     1     -44.527 -51.997  14.041  1.00  0.00     0.062 A 
HETATM   10  C   UNL     1     -44.313 -51.053  15.056  1.00  0.00     0.039 A 
HETATM   11  C   UNL     1     -45.368 -50.798  15.957  1.00  0.00    -0.054 A 
HETATM   12  C   UNL     1     -45.138 -49.819  17.081  1.00  0.00     0.049 C 
ENDROOT
BRANCH   8  13
HETATM   13  C   UNL     1     -42.332 -52.217  12.796  1.00  0.00     0.163 C 
BRANCH  13  14
HETATM   14  C   UNL     1     -41.416 -53.453  12.710  1.00  0.00     0.156 C 
BRANCH  14  15
HETATM   15  O   UNL     1     -40.544 -53.332  11.578  1.00  0.00    -0.392 OA
HETATM   16  H   UNL     1     -39.752 -52.828  11.839  1.00  0.00     0.210 HD
ENDBRANCH  14  15
BRANCH  14  17
HETATM   17  C   UNL     1     -40.633 -53.724  14.002  1.00  0.00     0.181 C 
BRANCH  17  18
HETATM   18  N   UNL     1     -41.518 -53.940  15.137  1.00  0.00    -0.301 N 
HETATM   19  C   UNL     1     -41.556 -53.202  16.285  1.00  0.00     0.111 A 
HETATM   20  C   UNL     1     -42.532 -53.769  17.070  1.00  0.00     0.037 A 
HETATM   21  C   UNL     1     -43.037 -54.829  16.295  1.00  0.00     0.108 A 
HETATM   22  N   UNL     1     -42.430 -54.931  15.108  1.00  0.00    -0.310 N 
ATOM     23  HN  UNL     1     -42.613 -55.600  14.360  1.00  0.00     0.186 HD
ENDBRANCH  17  18
ENDBRANCH  14  17
ENDBRANCH  13  14
ENDBRANCH   8  13
TORSDOF 5
ENDMDL
MODEL 5
REMARK VINA RESULT:      -5.5      3.231      7.347
REMARK  5 active torsions:
REMARK  status: ('A' for Active; 'I' for Inactive)
REMARK    1  A    between atoms: N_8  and  C_9 
REMARK    2  A    between atoms: C_9  and  C_10 
REMARK    3  A    between atoms: C_10  and  O_11 
REMARK    4  A    between atoms: C_10  and  C_12 
REMARK    5  A    between atoms: C_12  and  N_13 
ROOT
HETATM    1  C   UNL     1     -35.777 -47.827  16.896  1.00  0.00     0.049 C 
HETATM    2  C   UNL     1     -36.642 -48.584  15.920  1.00  0.00    -0.054 A 
HETATM    3  C   UNL     1     -37.169 -47.898  14.807  1.00  0.00     0.039 A 
HETATM    4  C   UNL     1     -37.996 -48.575  13.900  1.00  0.00     0.060 A 
HETATM    5  N   UNL     1     -38.623 -48.105  12.771  1.00  0.00    -0.350 N 
ATOM      6  HN  UNL     1     -38.591 -47.158  12.393  1.00  0.00     0.166 HD
HETATM    7  C   UNL     1     -39.272 -49.136  12.282  1.00  0.00     0.184 A 
HETATM    8  N   UNL     1     -39.132 -50.244  13.073  1.00  0.00    -0.339 N 
HETATM    9  C   UNL     1     -38.280 -49.919  14.105  1.00  0.00     0.062 A 
HETATM   10  C   UNL     1     -37.753 -50.639  15.187  1.00  0.00     0.039 A 
HETATM   11  C   UNL     1     -36.937 -49.950  16.108  1.00  0.00    -0.054 A 
HETATM   12  C   UNL     1     -36.400 -50.700  17.301  1.00  0.00     0.049 C 
ENDROOT
BRANCH   8  13
HETATM   13  C   UNL     1     -39.777 -51.524  12.841  1.00  0.00     0.163 C 
BRANCH  13  14
HETATM   14  C   UNL     1     -41.018 -51.459  11.929  1.00  0.00     0.156 C 
BRANCH  14  15
HETATM   15  O   UNL     1     -41.081 -52.636  11.112  1.00  0.00    -0.392 OA
HETATM   16  H   UNL     1     -41.691 -53.276  11.522  1.00  0.00     0.210 HD
ENDBRANCH  14  15
BRANCH  14  17
HETATM   17  C   UNL     1     -42.327 -51.230  12.696  1.00  0.00     0.181 C 
BRANCH  17  18
HETATM   18  N   UNL     1     -43.017 -52.479  12.978  1.00  0.00    -0.301 N 
HETATM   19  C   UNL     1     -42.987 -53.174  14.154  1.00  0.00     0.111 A 
HETATM   20  C   UNL     1     -43.772 -54.285  13.960  1.00  0.00     0.037 A 
HETATM   21  C   UNL     1     -44.248 -54.156  12.642  1.00  0.00     0.108 A 
HETATM   22  N   UNL     1     -43.800 -53.049  12.041  1.00  0.00    -0.310 N 
ATOM     23  HN  UNL     1     -44.003 -52.716  11.099  1.00  0.00     0.186 HD
ENDBRANCH  17  18
ENDBRANCH  14  17
ENDBRANCH  13  14
ENDBRANCH   8  13
TORSDOF 5
ENDMDL
MODEL 6
REMARK VINA RESULT:      -5.4      2.007      6.480
REMARK  5 active torsions:
REMARK  status: ('A' for Active; 'I' for Inactive)
REMARK    1  A    between atoms: N_8  and  C_9 
REMARK    2  A    between atoms: C_9  and  C_10 
REMARK    3  A    between atoms: C_10  and  O_11 
REMARK    4  A    between atoms: C_10  and  C_12 
REMARK    5  A    between atoms: C_12  and  N_13 
ROOT
HETATM    1  C   UNL     1     -42.140 -45.393  13.721  1.00  0.00     0.049 C 
HETATM    2  C   UNL     1     -41.546 -46.763  13.513  1.00  0.00    -0.054 A 
HETATM    3  C   UNL     1     -40.575 -46.937  12.506  1.00  0.00     0.039 A 
HETATM    4  C   UNL     1     -40.028 -48.208  12.279  1.00  0.00     0.060 A 
HETATM    5  N   UNL     1     -39.094 -48.603  11.351  1.00  0.00    -0.350 N 
ATOM      6  HN  UNL     1     -38.630 -48.022  10.652  1.00  0.00     0.166 HD
HETATM    7  C   UNL     1     -38.927 -49.889  11.556  1.00  0.00     0.184 A 
HETATM    8  N   UNL     1     -39.748 -50.354  12.547  1.00  0.00    -0.339 N 
HETATM    9  C   UNL     1     -40.443 -49.280  13.057  1.00  0.00     0.062 A 
HETATM   10  C   UNL     1     -41.386 -49.139  14.085  1.00  0.00     0.039 A 
HETATM   11  C   UNL     1     -41.950 -47.864  14.298  1.00  0.00    -0.054 A 
HETATM   12  C   UNL     1     -42.999 -47.706  15.369  1.00  0.00     0.049 C 
ENDROOT
BRANCH   8  13
HETATM   13  C   UNL     1     -39.849 -51.741  12.967  1.00  0.00     0.163 C 
BRANCH  13  14
HETATM   14  C   UNL     1     -41.118 -52.465  12.480  1.00  0.00     0.156 C 
BRANCH  14  15
HETATM   15  O   UNL     1     -41.139 -52.496  11.046  1.00  0.00    -0.392 OA
HETATM   16  H   UNL     1     -40.554 -51.794  10.705  1.00  0.00     0.210 HD
ENDBRANCH  14  15
BRANCH  14  17
HETATM   17  C   UNL     1     -41.289 -53.867  13.079  1.00  0.00     0.181 C 
BRANCH  17  18
HETATM   18  N   UNL     1     -42.683 -54.170  13.363  1.00  0.00    -0.301 N 
HETATM   19  C   UNL     1     -43.174 -54.724  14.511  1.00  0.00     0.111 A 
HETATM   20  C   UNL     1     -44.532 -54.832  14.332  1.00  0.00     0.037 A 
HETATM   21  C   UNL     1     -44.764 -54.295  13.052  1.00  0.00     0.108 A 
HETATM   22  N   UNL     1     -43.639 -53.878  12.460  1.00  0.00    -0.310 N 
ATOM     23  HN  UNL     1     -43.532 -53.443  11.544  1.00  0.00     0.186 HD
ENDBRANCH  17  18
ENDBRANCH  14  17
ENDBRANCH  13  14
ENDBRANCH   8  13
TORSDOF 5
ENDMDL
MODEL 7
REMARK VINA RESULT:      -5.4      2.816      3.541
REMARK  5 active torsions:
REMARK  status: ('A' for Active; 'I' for Inactive)
REMARK    1  A    between atoms: N_8  and  C_9 
REMARK    2  A    between atoms: C_9  and  C_10 
REMARK    3  A    between atoms: C_10  and  O_11 
REMARK    4  A    between atoms: C_10  and  C_12 
REMARK    5  A    between atoms: C_12  and  N_13 
ROOT
HETATM    1  C   UNL     1     -46.595 -52.723  18.140  1.00  0.00     0.049 C 
HETATM    2  C   UNL     1     -45.665 -52.939  16.973  1.00  0.00    -0.054 A 
HETATM    3  C   UNL     1     -44.567 -53.808  17.132  1.00  0.00     0.039 A 
HETATM    4  C   UNL     1     -43.675 -54.004  16.069  1.00  0.00     0.060 A 
HETATM    5  N   UNL     1     -42.543 -54.782  16.010  1.00  0.00    -0.350 N 
ATOM      6  HN  UNL     1     -42.152 -55.364  16.751  1.00  0.00     0.166 HD
HETATM    7  C   UNL     1     -42.074 -54.618  14.795  1.00  0.00     0.184 A 
HETATM    8  N   UNL     1     -42.827 -53.729  14.078  1.00  0.00    -0.339 N 
HETATM    9  C   UNL     1     -43.891 -53.346  14.865  1.00  0.00     0.062 A 
HETATM   10  C   UNL     1     -44.987 -52.495  14.662  1.00  0.00     0.039 A 
HETATM   11  C   UNL     1     -45.871 -52.284  15.741  1.00  0.00    -0.054 A 
HETATM   12  C   UNL     1     -47.029 -51.337  15.553  1.00  0.00     0.049 C 
ENDROOT
BRANCH   8  13
HETATM   13  C   UNL     1     -42.535 -53.285  12.726  1.00  0.00     0.163 C 
BRANCH  13  14
HETATM   14  C   UNL     1     -41.097 -52.770  12.519  1.00  0.00     0.156 C 
BRANCH  14  15
HETATM   15  O   UNL     1     -40.591 -53.240  11.262  1.00  0.00    -0.392 OA
HETATM   16  H   UNL     1     -40.030 -52.548  10.866  1.00  0.00     0.210 HD
ENDBRANCH  14  15
BRANCH  14  17
HETATM   17  C   UNL     1     -40.970 -51.247  12.648  1.00  0.00     0.181 C 
BRANCH  17  18
HETATM   18  N   UNL     1     -39.589 -50.805  12.520  1.00  0.00    -0.301 N 
HETATM   19  C   UNL     1     -38.685 -50.670  13.534  1.00  0.00     0.111 A 
HETATM   20  C   UNL     1     -37.522 -50.224  12.952  1.00  0.00     0.037 A 
HETATM   21  C   UNL     1     -37.823 -50.144  11.579  1.00  0.00     0.108 A 
HETATM   22  N   UNL     1     -39.081 -50.509  11.308  1.00  0.00    -0.310 N 
ATOM     23  HN  UNL     1     -39.544 -50.553  10.400  1.00  0.00     0.186 HD
ENDBRANCH  17  18
ENDBRANCH  14  17
ENDBRANCH  13  14
ENDBRANCH   8  13
TORSDOF 5
ENDMDL
MODEL 8
REMARK VINA RESULT:      -5.3      2.384      6.421
REMARK  5 active torsions:
REMARK  status: ('A' for Active; 'I' for Inactive)
REMARK    1  A    between atoms: N_8  and  C_9 
REMARK    2  A    between atoms: C_9  and  C_10 
REMARK    3  A    between atoms: C_10  and  O_11 
REMARK    4  A    between atoms: C_10  and  C_12 
REMARK    5  A    between atoms: C_12  and  N_13 
ROOT
HETATM    1  C   UNL     1     -41.374 -45.940  11.188  1.00  0.00     0.049 C 
HETATM    2  C   UNL     1     -41.562 -47.338  11.717  1.00  0.00    -0.054 A 
HETATM    3  C   UNL     1     -40.858 -48.396  11.107  1.00  0.00     0.039 A 
HETATM    4  C   UNL     1     -41.037 -49.708  11.566  1.00  0.00     0.060 A 
HETATM    5  N   UNL     1     -40.473 -50.877  11.113  1.00  0.00    -0.350 N 
ATOM      6  HN  UNL     1     -39.811 -50.988  10.344  1.00  0.00     0.166 HD
HETATM    7  C   UNL     1     -40.968 -51.819  11.880  1.00  0.00     0.184 A 
HETATM    8  N   UNL     1     -41.866 -51.318  12.782  1.00  0.00    -0.339 N 
HETATM    9  C   UNL     1     -41.901 -49.950  12.626  1.00  0.00     0.062 A 
HETATM   10  C   UNL     1     -42.597 -48.920  13.275  1.00  0.00     0.039 A 
HETATM   11  C   UNL     1     -42.430 -47.603  12.797  1.00  0.00    -0.054 A 
HETATM   12  C   UNL     1     -43.207 -46.491  13.455  1.00  0.00     0.049 C 
ENDROOT
BRANCH   8  13
HETATM   13  C   UNL     1     -42.634 -52.110  13.728  1.00  0.00     0.163 C 
BRANCH  13  14
HETATM   14  C   UNL     1     -43.159 -53.444  13.164  1.00  0.00     0.156 C 
BRANCH  14  15
HETATM   15  O   UNL     1     -43.130 -54.448  14.188  1.00  0.00    -0.392 OA
HETATM   16  H   UNL     1     -43.165 -54.014  15.060  1.00  0.00     0.210 HD
ENDBRANCH  14  15
BRANCH  14  17
HETATM   17  C   UNL     1     -44.548 -53.330  12.521  1.00  0.00     0.181 C 
BRANCH  17  18
HETATM   18  N   UNL     1     -45.523 -52.754  13.433  1.00  0.00    -0.301 N 
HETATM   19  C   UNL     1     -46.020 -51.482  13.390  1.00  0.00     0.111 A 
HETATM   20  C   UNL     1     -46.900 -51.381  14.441  1.00  0.00     0.037 A 
HETATM   21  C   UNL     1     -46.879 -52.653  15.043  1.00  0.00     0.108 A 
HETATM   22  N   UNL     1     -46.049 -53.499  14.425  1.00  0.00    -0.310 N 
ATOM     23  HN  UNL     1     -45.859 -54.475  14.651  1.00  0.00     0.186 HD
ENDBRANCH  17  18
ENDBRANCH  14  17
ENDBRANCH  13  14
ENDBRANCH   8  13
TORSDOF 5
ENDMDL
MODEL 9
REMARK VINA RESULT:      -5.3      3.410      6.666
REMARK  5 active torsions:
REMARK  status: ('A' for Active; 'I' for Inactive)
REMARK    1  A    between atoms: N_8  and  C_9 
REMARK    2  A    between atoms: C_9  and  C_10 
REMARK    3  A    between atoms: C_10  and  O_11 
REMARK    4  A    between atoms: C_10  and  C_12 
REMARK    5  A    between atoms: C_12  and  N_13 
ROOT
HETATM    1  C   UNL     1     -38.138 -50.807  13.448  1.00  0.00     0.049 C 
HETATM    2  C   UNL     1     -39.460 -51.523  13.337  1.00  0.00    -0.054 A 
HETATM    3  C   UNL     1     -39.745 -52.568  14.239  1.00  0.00     0.039 A 
HETATM    4  C   UNL     1     -40.957 -53.264  14.139  1.00  0.00     0.060 A 
HETATM    5  N   UNL     1     -41.427 -54.313  14.892  1.00  0.00    -0.350 N 
ATOM      6  HN  UNL     1     -40.959 -54.775  15.672  1.00  0.00     0.166 HD
HETATM    7  C   UNL     1     -42.609 -54.594  14.393  1.00  0.00     0.184 A 
HETATM    8  N   UNL     1     -42.905 -53.802  13.318  1.00  0.00    -0.339 N 
HETATM    9  C   UNL     1     -41.871 -52.907  13.155  1.00  0.00     0.062 A 
HETATM   10  C   UNL     1     -41.633 -51.856  12.258  1.00  0.00     0.039 A 
HETATM   11  C   UNL     1     -40.403 -51.172  12.349  1.00  0.00    -0.054 A 
HETATM   12  C   UNL     1     -40.115 -50.069  11.362  1.00  0.00     0.049 C 
ENDROOT
BRANCH   8  13
HETATM   13  C   UNL     1     -44.106 -53.907  12.507  1.00  0.00     0.163 C 
BRANCH  13  14
HETATM   14  C   UNL     1     -45.269 -53.009  12.969  1.00  0.00     0.156 C 
BRANCH  14  15
HETATM   15  O   UNL     1     -46.003 -52.541  11.829  1.00  0.00    -0.392 OA
HETATM   16  H   UNL     1     -46.453 -53.297  11.408  1.00  0.00     0.210 HD
ENDBRANCH  14  15
BRANCH  14  17
HETATM   17  C   UNL     1     -46.188 -53.681  13.998  1.00  0.00     0.181 C 
BRANCH  17  18
HETATM   18  N   UNL     1     -46.422 -52.829  15.154  1.00  0.00    -0.301 N 
HETATM   19  C   UNL     1     -46.987 -51.585  15.143  1.00  0.00     0.111 A 
HETATM   20  C   UNL     1     -47.002 -51.161  16.450  1.00  0.00     0.037 A 
HETATM   21  C   UNL     1     -46.444 -52.231  17.175  1.00  0.00     0.108 A 
HETATM   22  N   UNL     1     -46.099 -53.257  16.390  1.00  0.00    -0.310 N 
ATOM     23  HN  UNL     1     -45.690 -54.151  16.663  1.00  0.00     0.186 HD
ENDBRANCH  17  18
ENDBRANCH  14  17
ENDBRANCH  13  14
ENDBRANCH   8  13
TORSDOF 5
ENDMDL
