MODEL 1
REMARK VINA RESULT:      -7.1      0.000      0.000
REMARK  4 active torsions:
REMARK  status: ('A' for Active; 'I' for Inactive)
REMARK       I    between atoms: C_2  and  N_3 
REMARK       I    between atoms: C_2  and  N_12 
REMARK    1  A    between atoms: N_3  and  C_4 
REMARK    2  A    between atoms: C_4  and  C_5 
REMARK    3  A    between atoms: N_12  and  C_13 
REMARK    4  A    between atoms: C_19  and  N_20 
ROOT
HETATM    1  O   UNL     1     -43.049 -48.434  13.452  1.00  0.00    -0.247 OA
HETATM    2  C   UNL     1     -43.063 -49.281  12.564  1.00  0.00     0.320 C 
HETATM    3  N   UNL     1     -43.817 -50.432  12.657  1.00  0.00    -0.342 N 
HETATM    4  N   UNL     1     -42.366 -49.206  11.387  1.00  0.00    -0.306 N 
HETATM    5  H   UNL     1     -43.551 -51.193  12.048  1.00  0.00     0.164 HD
HETATM    6  H   UNL     1     -42.168 -50.053  10.870  1.00  0.00     0.171 HD
ENDROOT
BRANCH   4   7
HETATM    7  C   UNL     1     -41.674 -48.066  10.896  1.00  0.00     0.075 A 
HETATM    8  C   UNL     1     -40.443 -47.678  11.423  1.00  0.00     0.034 A 
HETATM    9  C   UNL     1     -39.955 -46.412  11.131  1.00  0.00     0.019 A 
HETATM   10  C   UNL     1     -40.708 -45.592  10.307  1.00  0.00     0.089 A 
HETATM   11  N   UNL     1     -41.859 -45.973   9.709  1.00  0.00    -0.355 N 
HETATM   12  C   UNL     1     -42.329 -47.215   9.973  1.00  0.00     0.109 A 
ATOM     13  HN  UNL     1     -42.357 -45.345   9.078  1.00  0.00     0.166 HD
BRANCH  12  14
HETATM   14  N   UNL     1     -43.514 -47.629   9.377  1.00  0.00    -0.267 NA
HETATM   15  C   UNL     1     -43.577 -47.810   7.924  1.00  0.00     0.097 C 
HETATM   16  C   UNL     1     -45.037 -48.247   7.724  1.00  0.00     0.016 C 
HETATM   17  C   UNL     1     -45.746 -47.880   9.036  1.00  0.00     0.016 C 
HETATM   18  C   UNL     1     -44.758 -46.955   9.741  1.00  0.00     0.097 C 
ENDBRANCH  12  14
ENDBRANCH   4   7
BRANCH   3  19
HETATM   19  C   UNL     1     -44.544 -50.778  13.869  1.00  0.00     0.130 C 
BRANCH  19  20
HETATM   20  C   UNL     1     -45.033 -52.233  13.975  1.00  0.00     0.018 C 
HETATM   21  C   UNL     1     -45.803 -52.528  15.273  1.00  0.00     0.022 C 
HETATM   22  C   UNL     1     -45.730 -54.018  15.610  1.00  0.00     0.141 C 
HETATM   23  S   UNL     1     -44.706 -54.799  14.397  1.00  0.00     0.144 S 
HETATM   24  O   UNL     1     -43.712 -55.615  15.063  1.00  0.00    -0.228 OA
HETATM   25  O   UNL     1     -45.561 -55.329  13.352  1.00  0.00    -0.228 OA
HETATM   26  C   UNL     1     -43.951 -53.301  13.805  1.00  0.00     0.146 C 
ENDBRANCH  19  20
ENDBRANCH   3  19
TORSDOF 4
ENDMDL
MODEL 2
REMARK VINA RESULT:      -6.9      2.571      4.482
REMARK  4 active torsions:
REMARK  status: ('A' for Active; 'I' for Inactive)
REMARK       I    between atoms: C_2  and  N_3 
REMARK       I    between atoms: C_2  and  N_12 
REMARK    1  A    between atoms: N_3  and  C_4 
REMARK    2  A    between atoms: C_4  and  C_5 
REMARK    3  A    between atoms: N_12  and  C_13 
REMARK    4  A    between atoms: C_19  and  N_20 
ROOT
HETATM    1  O   UNL     1     -41.802 -51.089  13.588  1.00  0.00    -0.247 OA
HETATM    2  C   UNL     1     -41.776 -51.464  12.420  1.00  0.00     0.320 C 
HETATM    3  N   UNL     1     -42.116 -52.748  12.052  1.00  0.00    -0.342 N 
HETATM    4  N   UNL     1     -41.428 -50.687  11.346  1.00  0.00    -0.306 N 
HETATM    5  H   UNL     1     -41.791 -53.057  11.147  1.00  0.00     0.164 HD
HETATM    6  H   UNL     1     -41.118 -51.129  10.491  1.00  0.00     0.171 HD
ENDROOT
BRANCH   4   7
HETATM    7  C   UNL     1     -41.235 -49.279  11.360  1.00  0.00     0.075 A 
HETATM    8  C   UNL     1     -42.227 -48.404  10.921  1.00  0.00     0.034 A 
HETATM    9  C   UNL     1     -41.893 -47.079  10.670  1.00  0.00     0.019 A 
HETATM   10  C   UNL     1     -40.585 -46.680  10.888  1.00  0.00     0.089 A 
HETATM   11  N   UNL     1     -39.624 -47.482  11.399  1.00  0.00    -0.355 N 
HETATM   12  C   UNL     1     -39.950 -48.770  11.665  1.00  0.00     0.109 A 
ATOM     13  HN  UNL     1     -38.684 -47.129  11.578  1.00  0.00     0.166 HD
BRANCH  12  14
HETATM   14  N   UNL     1     -38.979 -49.617  12.184  1.00  0.00    -0.267 NA
HETATM   15  C   UNL     1     -38.547 -49.469  13.577  1.00  0.00     0.097 C 
HETATM   16  C   UNL     1     -37.487 -50.575  13.697  1.00  0.00     0.016 C 
HETATM   17  C   UNL     1     -37.152 -50.966  12.250  1.00  0.00     0.016 C 
HETATM   18  C   UNL     1     -37.756 -49.838  11.417  1.00  0.00     0.097 C 
ENDBRANCH  12  14
ENDBRANCH   4   7
BRANCH   3  19
HETATM   19  C   UNL     1     -42.404 -53.778  13.039  1.00  0.00     0.130 C 
BRANCH  19  20
HETATM   20  C   UNL     1     -43.889 -53.992  13.382  1.00  0.00     0.018 C 
HETATM   21  C   UNL     1     -44.841 -53.100  12.566  1.00  0.00     0.022 C 
HETATM   22  C   UNL     1     -46.157 -52.895  13.318  1.00  0.00     0.141 C 
HETATM   23  S   UNL     1     -46.020 -53.712  14.882  1.00  0.00     0.144 S 
HETATM   24  O   UNL     1     -46.427 -52.803  15.934  1.00  0.00    -0.228 OA
HETATM   25  O   UNL     1     -46.586 -55.041  14.753  1.00  0.00    -0.228 OA
HETATM   26  C   UNL     1     -44.247 -53.847  14.862  1.00  0.00     0.146 C 
ENDBRANCH  19  20
ENDBRANCH   3  19
TORSDOF 4
ENDMDL
MODEL 3
REMARK VINA RESULT:      -6.6      3.760      7.862
REMARK  4 active torsions:
REMARK  status: ('A' for Active; 'I' for Inactive)
REMARK       I    between atoms: C_2  and  N_3 
REMARK       I    between atoms: C_2  and  N_12 
REMARK    1  A    between atoms: N_3  and  C_4 
REMARK    2  A    between atoms: C_4  and  C_5 
REMARK    3  A    between atoms: N_12  and  C_13 
REMARK    4  A    between atoms: C_19  and  N_20 
ROOT
HETATM    1  O   UNL     1     -42.456 -49.294  13.365  1.00  0.00    -0.247 OA
HETATM    2  C   UNL     1     -42.391 -49.753  12.229  1.00  0.00     0.320 C 
HETATM    3  N   UNL     1     -42.437 -48.951  11.108  1.00  0.00    -0.342 N 
HETATM    4  N   UNL     1     -42.257 -51.081  11.917  1.00  0.00    -0.306 N 
HETATM    5  H   UNL     1     -42.675 -49.408  10.239  1.00  0.00     0.164 HD
HETATM    6  H   UNL     1     -42.533 -51.408  11.001  1.00  0.00     0.171 HD
ENDROOT
BRANCH   4   7
HETATM    7  C   UNL     1     -41.968 -52.129  12.832  1.00  0.00     0.075 A 
HETATM    8  C   UNL     1     -40.675 -52.627  12.985  1.00  0.00     0.034 A 
HETATM    9  C   UNL     1     -40.492 -53.831  13.652  1.00  0.00     0.019 A 
HETATM   10  C   UNL     1     -41.607 -54.479  14.156  1.00  0.00     0.089 A 
HETATM   11  N   UNL     1     -42.861 -53.977  14.102  1.00  0.00    -0.355 N 
HETATM   12  C   UNL     1     -43.043 -52.792  13.472  1.00  0.00     0.109 A 
ATOM     13  HN  UNL     1     -43.645 -54.475  14.524  1.00  0.00     0.166 HD
BRANCH  12  14
HETATM   14  N   UNL     1     -44.323 -52.258  13.397  1.00  0.00    -0.267 NA
HETATM   15  C   UNL     1     -45.020 -51.852  14.621  1.00  0.00     0.097 C 
HETATM   16  C   UNL     1     -46.363 -51.349  14.068  1.00  0.00     0.016 C 
HETATM   17  C   UNL     1     -46.432 -51.894  12.633  1.00  0.00     0.016 C 
HETATM   18  C   UNL     1     -45.326 -52.945  12.586  1.00  0.00     0.097 C 
ENDBRANCH  12  14
ENDBRANCH   4   7
BRANCH   3  19
HETATM   19  C   UNL     1     -42.695 -47.522  11.197  1.00  0.00     0.130 C 
BRANCH  19  20
HETATM   20  C   UNL     1     -41.493 -46.599  10.934  1.00  0.00     0.018 C 
HETATM   21  C   UNL     1     -40.436 -46.635  12.051  1.00  0.00     0.022 C 
HETATM   22  C   UNL     1     -39.627 -45.338  12.063  1.00  0.00     0.141 C 
HETATM   23  S   UNL     1     -40.297 -44.270  10.822  1.00  0.00     0.144 S 
HETATM   24  O   UNL     1     -40.535 -42.960  11.395  1.00  0.00    -0.228 OA
HETATM   25  O   UNL     1     -39.529 -44.447   9.605  1.00  0.00    -0.228 OA
HETATM   26  C   UNL     1     -41.840 -45.136  10.650  1.00  0.00     0.146 C 
ENDBRANCH  19  20
ENDBRANCH   3  19
TORSDOF 4
ENDMDL
MODEL 4
REMARK VINA RESULT:      -6.6      3.707      7.998
REMARK  4 active torsions:
REMARK  status: ('A' for Active; 'I' for Inactive)
REMARK       I    between atoms: C_2  and  N_3 
REMARK       I    between atoms: C_2  and  N_12 
REMARK    1  A    between atoms: N_3  and  C_4 
REMARK    2  A    between atoms: C_4  and  C_5 
REMARK    3  A    between atoms: N_12  and  C_13 
REMARK    4  A    between atoms: C_19  and  N_20 
ROOT
HETATM    1  O   UNL     1     -43.587 -50.374  13.427  1.00  0.00    -0.247 OA
HETATM    2  C   UNL     1     -42.829 -50.746  12.536  1.00  0.00     0.320 C 
HETATM    3  N   UNL     1     -42.023 -49.868  11.843  1.00  0.00    -0.342 N 
HETATM    4  N   UNL     1     -42.672 -52.042  12.120  1.00  0.00    -0.306 N 
HETATM    5  H   UNL     1     -41.667 -50.193  10.954  1.00  0.00     0.164 HD
HETATM    6  H   UNL     1     -42.298 -52.227  11.199  1.00  0.00     0.171 HD
ENDROOT
BRANCH   4   7
HETATM    7  C   UNL     1     -43.190 -53.196  12.766  1.00  0.00     0.075 A 
HETATM    8  C   UNL     1     -44.481 -53.655  12.512  1.00  0.00     0.034 A 
HETATM    9  C   UNL     1     -45.046 -54.588  13.372  1.00  0.00     0.019 A 
HETATM   10  C   UNL     1     -44.289 -55.039  14.440  1.00  0.00     0.089 A 
HETATM   11  N   UNL     1     -43.004 -54.682  14.660  1.00  0.00    -0.355 N 
HETATM   12  C   UNL     1     -42.440 -53.788  13.812  1.00  0.00     0.109 A 
ATOM     13  HN  UNL     1     -42.475 -55.072  15.439  1.00  0.00     0.166 HD
BRANCH  12  14
HETATM   14  N   UNL     1     -41.124 -53.398  14.020  1.00  0.00    -0.267 NA
HETATM   15  C   UNL     1     -40.047 -54.392  13.955  1.00  0.00     0.097 C 
HETATM   16  C   UNL     1     -38.808 -53.534  14.252  1.00  0.00     0.016 C 
HETATM   17  C   UNL     1     -39.359 -52.227  14.843  1.00  0.00     0.016 C 
HETATM   18  C   UNL     1     -40.812 -52.559  15.174  1.00  0.00     0.097 C 
ENDBRANCH  12  14
ENDBRANCH   4   7
BRANCH   3  19
HETATM   19  C   UNL     1     -42.111 -48.429  12.035  1.00  0.00     0.130 C 
BRANCH  19  20
HETATM   20  C   UNL     1     -42.776 -47.633  10.898  1.00  0.00     0.018 C 
HETATM   21  C   UNL     1     -44.313 -47.699  10.921  1.00  0.00     0.022 C 
HETATM   22  C   UNL     1     -44.879 -47.445   9.523  1.00  0.00     0.141 C 
HETATM   23  S   UNL     1     -43.516 -47.255   8.413  1.00  0.00     0.144 S 
HETATM   24  O   UNL     1     -43.717 -48.104   7.257  1.00  0.00    -0.228 OA
HETATM   25  O   UNL     1     -43.226 -45.839   8.284  1.00  0.00    -0.228 OA
HETATM   26  C   UNL     1     -42.302 -47.985   9.487  1.00  0.00     0.146 C 
ENDBRANCH  19  20
ENDBRANCH   3  19
TORSDOF 4
ENDMDL
MODEL 5
REMARK VINA RESULT:      -6.4      3.892      7.828
REMARK  4 active torsions:
REMARK  status: ('A' for Active; 'I' for Inactive)
REMARK       I    between atoms: C_2  and  N_3 
REMARK       I    between atoms: C_2  and  N_12 
REMARK    1  A    between atoms: N_3  and  C_4 
REMARK    2  A    between atoms: C_4  and  C_5 
REMARK    3  A    between atoms: N_12  and  C_13 
REMARK    4  A    between atoms: C_19  and  N_20 
ROOT
HETATM    1  O   UNL     1     -43.321 -49.624  13.787  1.00  0.00    -0.247 OA
HETATM    2  C   UNL     1     -43.273 -50.578  13.016  1.00  0.00     0.320 C 
HETATM    3  N   UNL     1     -42.321 -50.673  12.023  1.00  0.00    -0.342 N 
HETATM    4  N   UNL     1     -44.121 -51.655  13.034  1.00  0.00    -0.306 N 
HETATM    5  H   UNL     1     -42.525 -51.311  11.267  1.00  0.00     0.164 HD
HETATM    6  H   UNL     1     -44.230 -52.216  12.200  1.00  0.00     0.171 HD
ENDROOT
BRANCH   4   7
HETATM    7  C   UNL     1     -45.062 -51.961  14.054  1.00  0.00     0.075 A 
HETATM    8  C   UNL     1     -46.351 -51.432  14.037  1.00  0.00     0.034 A 
HETATM    9  C   UNL     1     -47.126 -51.510  15.187  1.00  0.00     0.019 A 
HETATM   10  C   UNL     1     -46.587 -52.131  16.301  1.00  0.00     0.089 A 
HETATM   11  N   UNL     1     -45.376 -52.732  16.319  1.00  0.00    -0.355 N 
HETATM   12  C   UNL     1     -44.624 -52.678  15.194  1.00  0.00     0.109 A 
ATOM     13  HN  UNL     1     -45.039 -53.211  17.154  1.00  0.00     0.166 HD
BRANCH  12  14
HETATM   14  N   UNL     1     -43.373 -53.281  15.189  1.00  0.00    -0.267 NA
HETATM   15  C   UNL     1     -43.260 -54.732  15.364  1.00  0.00     0.097 C 
HETATM   16  C   UNL     1     -41.738 -54.939  15.304  1.00  0.00     0.016 C 
HETATM   17  C   UNL     1     -41.137 -53.539  15.501  1.00  0.00     0.016 C 
HETATM   18  C   UNL     1     -42.310 -52.704  16.008  1.00  0.00     0.097 C 
ENDBRANCH  12  14
ENDBRANCH   4   7
BRANCH   3  19
HETATM   19  C   UNL     1     -41.392 -49.589  11.743  1.00  0.00     0.130 C 
BRANCH  19  20
HETATM   20  C   UNL     1     -40.007 -49.695  12.405  1.00  0.00     0.018 C 
HETATM   21  C   UNL     1     -38.939 -48.814  11.735  1.00  0.00     0.022 C 
HETATM   22  C   UNL     1     -37.541 -49.377  11.996  1.00  0.00     0.141 C 
HETATM   23  S   UNL     1     -37.726 -50.883  12.907  1.00  0.00     0.144 S 
HETATM   24  O   UNL     1     -36.945 -51.925  12.272  1.00  0.00    -0.228 OA
HETATM   25  O   UNL     1     -37.597 -50.579  14.319  1.00  0.00    -0.228 OA
HETATM   26  C   UNL     1     -39.448 -51.113  12.531  1.00  0.00     0.146 C 
ENDBRANCH  19  20
ENDBRANCH   3  19
TORSDOF 4
ENDMDL
MODEL 6
REMARK VINA RESULT:      -6.3      4.231      8.100
REMARK  4 active torsions:
REMARK  status: ('A' for Active; 'I' for Inactive)
REMARK       I    between atoms: C_2  and  N_3 
REMARK       I    between atoms: C_2  and  N_12 
REMARK    1  A    between atoms: N_3  and  C_4 
REMARK    2  A    between atoms: C_4  and  C_5 
REMARK    3  A    between atoms: N_12  and  C_13 
REMARK    4  A    between atoms: C_19  and  N_20 
ROOT
HETATM    1  O   UNL     1     -42.364 -49.632  12.229  1.00  0.00    -0.247 OA
HETATM    2  C   UNL     1     -41.455 -49.767  11.415  1.00  0.00     0.320 C 
HETATM    3  N   UNL     1     -41.220 -48.847  10.416  1.00  0.00    -0.342 N 
HETATM    4  N   UNL     1     -40.564 -50.808  11.388  1.00  0.00    -0.306 N 
HETATM    5  H   UNL     1     -40.669 -49.167   9.632  1.00  0.00     0.164 HD
HETATM    6  H   UNL     1     -40.073 -51.021  10.530  1.00  0.00     0.171 HD
ENDROOT
BRANCH   4   7
HETATM    7  C   UNL     1     -40.402 -51.796  12.395  1.00  0.00     0.075 A 
HETATM    8  C   UNL     1     -40.958 -53.068  12.265  1.00  0.00     0.034 A 
HETATM    9  C   UNL     1     -41.033 -53.888  13.384  1.00  0.00     0.019 A 
HETATM   10  C   UNL     1     -40.530 -53.410  14.582  1.00  0.00     0.089 A 
HETATM   11  N   UNL     1     -39.904 -52.220  14.719  1.00  0.00    -0.355 N 
HETATM   12  C   UNL     1     -39.809 -51.425  13.626  1.00  0.00     0.109 A 
ATOM     13  HN  UNL     1     -39.515 -51.930  15.616  1.00  0.00     0.166 HD
BRANCH  12  14
HETATM   14  N   UNL     1     -39.176 -50.194  13.742  1.00  0.00    -0.267 NA
HETATM   15  C   UNL     1     -37.726 -50.132  13.947  1.00  0.00     0.097 C 
HETATM   16  C   UNL     1     -37.483 -48.617  14.027  1.00  0.00     0.016 C 
HETATM   17  C   UNL     1     -38.871 -48.002  14.256  1.00  0.00     0.016 C 
HETATM   18  C   UNL     1     -39.741 -49.194  14.645  1.00  0.00     0.097 C 
ENDBRANCH  12  14
ENDBRANCH   4   7
BRANCH   3  19
HETATM   19  C   UNL     1     -42.115 -47.723  10.182  1.00  0.00     0.130 C 
BRANCH  19  20
HETATM   20  C   UNL     1     -41.522 -46.324  10.424  1.00  0.00     0.018 C 
HETATM   21  C   UNL     1     -40.109 -46.353  11.031  1.00  0.00     0.022 C 
HETATM   22  C   UNL     1     -39.826 -45.054  11.788  1.00  0.00     0.141 C 
HETATM   23  S   UNL     1     -41.289 -44.062  11.726  1.00  0.00     0.144 S 
HETATM   24  O   UNL     1     -41.614 -43.604  13.062  1.00  0.00    -0.228 OA
HETATM   25  O   UNL     1     -41.172 -43.146  10.608  1.00  0.00    -0.228 OA
HETATM   26  C   UNL     1     -42.386 -45.383  11.265  1.00  0.00     0.146 C 
ENDBRANCH  19  20
ENDBRANCH   3  19
TORSDOF 4
ENDMDL
MODEL 7
REMARK VINA RESULT:      -6.2      2.858      4.639
REMARK  4 active torsions:
REMARK  status: ('A' for Active; 'I' for Inactive)
REMARK       I    between atoms: C_2  and  N_3 
REMARK       I    between atoms: C_2  and  N_12 
REMARK    1  A    between atoms: N_3  and  C_4 
REMARK    2  A    between atoms: C_4  and  C_5 
REMARK    3  A    between atoms: N_12  and  C_13 
REMARK    4  A    between atoms: C_19  and  N_20 
ROOT
HETATM    1  O   UNL     1     -42.673 -50.267  13.604  1.00  0.00    -0.247 OA
HETATM    2  C   UNL     1     -42.365 -50.825  12.555  1.00  0.00     0.320 C 
HETATM    3  N   UNL     1     -42.674 -52.145  12.306  1.00  0.00    -0.342 N 
HETATM    4  N   UNL     1     -41.701 -50.236  11.511  1.00  0.00    -0.306 N 
HETATM    5  H   UNL     1     -42.142 -52.600  11.577  1.00  0.00     0.164 HD
HETATM    6  H   UNL     1     -41.206 -50.815  10.846  1.00  0.00     0.171 HD
ENDROOT
BRANCH   4   7
HETATM    7  C   UNL     1     -41.433 -48.848  11.366  1.00  0.00     0.075 A 
HETATM    8  C   UNL     1     -42.376 -47.977  10.822  1.00  0.00     0.034 A 
HETATM    9  C   UNL     1     -41.971 -46.710  10.425  1.00  0.00     0.019 A 
HETATM   10  C   UNL     1     -40.645 -46.357  10.606  1.00  0.00     0.089 A 
HETATM   11  N   UNL     1     -39.729 -47.146  11.213  1.00  0.00    -0.355 N 
HETATM   12  C   UNL     1     -40.123 -48.376  11.622  1.00  0.00     0.109 A 
ATOM     13  HN  UNL     1     -38.772 -46.825  11.358  1.00  0.00     0.166 HD
BRANCH  12  14
HETATM   14  N   UNL     1     -39.200 -49.208  12.241  1.00  0.00    -0.267 NA
HETATM   15  C   UNL     1     -38.681 -48.865  13.569  1.00  0.00     0.097 C 
HETATM   16  C   UNL     1     -37.713 -50.028  13.839  1.00  0.00     0.016 C 
HETATM   17  C   UNL     1     -37.492 -50.689  12.470  1.00  0.00     0.016 C 
HETATM   18  C   UNL     1     -38.044 -49.669  11.477  1.00  0.00     0.097 C 
ENDBRANCH  12  14
ENDBRANCH   4   7
BRANCH   3  19
HETATM   19  C   UNL     1     -43.273 -52.998  13.321  1.00  0.00     0.130 C 
BRANCH  19  20
HETATM   20  C   UNL     1     -42.307 -53.920  14.086  1.00  0.00     0.018 C 
HETATM   21  C   UNL     1     -43.018 -55.033  14.874  1.00  0.00     0.022 C 
HETATM   22  C   UNL     1     -42.145 -55.505  16.038  1.00  0.00     0.141 C 
HETATM   23  S   UNL     1     -40.683 -54.509  16.056  1.00  0.00     0.144 S 
HETATM   24  O   UNL     1     -40.463 -54.005  17.396  1.00  0.00    -0.228 OA
HETATM   25  O   UNL     1     -39.646 -55.207  15.319  1.00  0.00    -0.228 OA
HETATM   26  C   UNL     1     -41.333 -53.212  15.028  1.00  0.00     0.146 C 
ENDBRANCH  19  20
ENDBRANCH   3  19
TORSDOF 4
ENDMDL
MODEL 8
REMARK VINA RESULT:      -6.2      3.361      7.968
REMARK  4 active torsions:
REMARK  status: ('A' for Active; 'I' for Inactive)
REMARK       I    between atoms: C_2  and  N_3 
REMARK       I    between atoms: C_2  and  N_12 
REMARK    1  A    between atoms: N_3  and  C_4 
REMARK    2  A    between atoms: C_4  and  C_5 
REMARK    3  A    between atoms: N_12  and  C_13 
REMARK    4  A    between atoms: C_19  and  N_20 
ROOT
HETATM    1  O   UNL     1     -43.196 -49.152  13.712  1.00  0.00    -0.247 OA
HETATM    2  C   UNL     1     -43.159 -49.915  12.752  1.00  0.00     0.320 C 
HETATM    3  N   UNL     1     -42.290 -49.729  11.698  1.00  0.00    -0.342 N 
HETATM    4  N   UNL     1     -43.942 -51.030  12.595  1.00  0.00    -0.306 N 
HETATM    5  H   UNL     1     -42.520 -50.206  10.837  1.00  0.00     0.164 HD
HETATM    6  H   UNL     1     -44.089 -51.408  11.669  1.00  0.00     0.171 HD
ENDROOT
BRANCH   4   7
HETATM    7  C   UNL     1     -44.776 -51.611  13.586  1.00  0.00     0.075 A 
HETATM    8  C   UNL     1     -46.119 -51.257  13.708  1.00  0.00     0.034 A 
HETATM    9  C   UNL     1     -46.808 -51.615  14.859  1.00  0.00     0.019 A 
HETATM   10  C   UNL     1     -46.132 -52.330  15.833  1.00  0.00     0.089 A 
HETATM   11  N   UNL     1     -44.859 -52.766  15.704  1.00  0.00    -0.355 N 
HETATM   12  C   UNL     1     -44.188 -52.438  14.574  1.00  0.00     0.109 A 
ATOM     13  HN  UNL     1     -44.418 -53.324  16.435  1.00  0.00     0.166 HD
BRANCH  12  14
HETATM   14  N   UNL     1     -42.876 -52.868  14.420  1.00  0.00    -0.267 NA
HETATM   15  C   UNL     1     -42.579 -54.302  14.350  1.00  0.00     0.097 C 
HETATM   16  C   UNL     1     -41.050 -54.300  14.197  1.00  0.00     0.016 C 
HETATM   17  C   UNL     1     -40.611 -52.883  14.596  1.00  0.00     0.016 C 
HETATM   18  C   UNL     1     -41.843 -52.296  15.280  1.00  0.00     0.097 C 
ENDBRANCH  12  14
ENDBRANCH   4   7
BRANCH   3  19
HETATM   19  C   UNL     1     -41.449 -48.546  11.596  1.00  0.00     0.130 C 
BRANCH  19  20
HETATM   20  C   UNL     1     -41.885 -47.493  10.562  1.00  0.00     0.018 C 
HETATM   21  C   UNL     1     -41.990 -46.072  11.141  1.00  0.00     0.022 C 
HETATM   22  C   UNL     1     -42.959 -45.227  10.313  1.00  0.00     0.141 C 
HETATM   23  S   UNL     1     -43.641 -46.265   9.053  1.00  0.00     0.144 S 
HETATM   24  O   UNL     1     -45.083 -46.131   9.050  1.00  0.00    -0.228 OA
HETATM   25  O   UNL     1     -42.852 -46.097   7.847  1.00  0.00    -0.228 OA
HETATM   26  C   UNL     1     -43.184 -47.804   9.817  1.00  0.00     0.146 C 
ENDBRANCH  19  20
ENDBRANCH   3  19
TORSDOF 4
ENDMDL
MODEL 9
REMARK VINA RESULT:      -6.2      2.022      2.579
REMARK  4 active torsions:
REMARK  status: ('A' for Active; 'I' for Inactive)
REMARK       I    between atoms: C_2  and  N_3 
REMARK       I    between atoms: C_2  and  N_12 
REMARK    1  A    between atoms: N_3  and  C_4 
REMARK    2  A    between atoms: C_4  and  C_5 
REMARK    3  A    between atoms: N_12  and  C_13 
REMARK    4  A    between atoms: C_19  and  N_20 
ROOT
HETATM    1  O   UNL     1     -40.270 -49.606  11.646  1.00  0.00    -0.247 OA
HETATM    2  C   UNL     1     -41.472 -49.833  11.536  1.00  0.00     0.320 C 
HETATM    3  N   UNL     1     -42.017 -51.065  11.826  1.00  0.00    -0.342 N 
HETATM    4  N   UNL     1     -42.416 -48.924  11.135  1.00  0.00    -0.306 N 
HETATM    5  H   UNL     1     -42.929 -51.255  11.436  1.00  0.00     0.164 HD
HETATM    6  H   UNL     1     -43.296 -49.253  10.761  1.00  0.00     0.171 HD
ENDROOT
BRANCH   4   7
HETATM    7  C   UNL     1     -42.216 -47.527  10.972  1.00  0.00     0.075 A 
HETATM    8  C   UNL     1     -41.276 -46.832  11.732  1.00  0.00     0.034 A 
HETATM    9  C   UNL     1     -41.324 -45.445  11.757  1.00  0.00     0.019 A 
HETATM   10  C   UNL     1     -42.296 -44.808  11.004  1.00  0.00     0.089 A 
HETATM   11  N   UNL     1     -43.161 -45.449  10.188  1.00  0.00    -0.355 N 
HETATM   12  C   UNL     1     -43.106 -46.802  10.143  1.00  0.00     0.109 A 
ATOM     13  HN  UNL     1     -43.834 -44.932   9.623  1.00  0.00     0.166 HD
BRANCH  12  14
HETATM   14  N   UNL     1     -43.989 -47.486   9.317  1.00  0.00    -0.267 NA
HETATM   15  C   UNL     1     -43.651 -47.705   7.907  1.00  0.00     0.097 C 
HETATM   16  C   UNL     1     -44.887 -48.467   7.402  1.00  0.00     0.016 C 
HETATM   17  C   UNL     1     -45.959 -48.247   8.480  1.00  0.00     0.016 C 
HETATM   18  C   UNL     1     -45.399 -47.107   9.327  1.00  0.00     0.097 C 
ENDBRANCH  12  14
ENDBRANCH   4   7
BRANCH   3  19
HETATM   19  C   UNL     1     -41.186 -52.214  12.156  1.00  0.00     0.130 C 
BRANCH  19  20
HETATM   20  C   UNL     1     -41.382 -52.809  13.562  1.00  0.00     0.018 C 
HETATM   21  C   UNL     1     -40.246 -53.754  13.991  1.00  0.00     0.022 C 
HETATM   22  C   UNL     1     -40.744 -54.744  15.045  1.00  0.00     0.141 C 
HETATM   23  S   UNL     1     -42.472 -54.451  15.289  1.00  0.00     0.144 S 
HETATM   24  O   UNL     1     -43.187 -55.708  15.206  1.00  0.00    -0.228 OA
HETATM   25  O   UNL     1     -42.626 -53.552  16.417  1.00  0.00    -0.228 OA
HETATM   26  C   UNL     1     -42.714 -53.526  13.790  1.00  0.00     0.146 C 
ENDBRANCH  19  20
ENDBRANCH   3  19
TORSDOF 4
ENDMDL
