MODEL 1
REMARK VINA RESULT:      -6.2      0.000      0.000
REMARK  2 active torsions:
REMARK  status: ('A' for Active; 'I' for Inactive)
REMARK    1  A    between atoms: C_8  and  N_9 
REMARK       I    between atoms: N_9  and  C_10 
REMARK       I    between atoms: C_10  and  N_12 
REMARK    2  A    between atoms: N_12  and  C_13 
ROOT
HETATM    1  N   UNL     1     -40.959 -49.455  10.641  1.00  0.00    -0.294 N 
HETATM    2  C   UNL     1     -41.532 -48.234  10.416  1.00  0.00     0.322 C 
HETATM    3  O   UNL     1     -42.555 -48.140   9.745  1.00  0.00    -0.247 OA
HETATM    4  N   UNL     1     -40.845 -47.158  10.883  1.00  0.00    -0.337 N 
HETATM    5  H   UNL     1     -41.402 -50.200  10.127  1.00  0.00     0.172 HD
HETATM    6  H   UNL     1     -40.182 -47.390  11.622  1.00  0.00     0.164 HD
ENDROOT
BRANCH   1   7
HETATM    7  C   UNL     1     -39.816 -49.743  11.404  1.00  0.00     0.114 A 
HETATM    8  C   UNL     1     -39.934 -49.983  12.779  1.00  0.00    -0.018 A 
HETATM    9  C   UNL     1     -41.242 -49.966  13.515  1.00  0.00     0.052 C 
HETATM   10  C   UNL     1     -38.761 -50.276  13.490  1.00  0.00     0.012 A 
HETATM   11  C   UNL     1     -37.534 -50.313  12.837  1.00  0.00     0.018 A 
HETATM   12  C   UNL     1     -37.516 -50.053  11.484  1.00  0.00     0.089 A 
HETATM   13  N   UNL     1     -38.621 -49.784  10.762  1.00  0.00    -0.352 N 
ATOM     14  HN  UNL     1     -38.561 -49.615   9.757  1.00  0.00     0.166 HD
ENDBRANCH   1   7
BRANCH   4  15
HETATM   15  C   UNL     1     -41.192 -45.774  10.632  1.00  0.00     0.101 C 
HETATM   16  C   UNL     1     -39.935 -44.892  10.729  1.00  0.00     0.041 C 
HETATM   17  C   UNL     1     -40.325 -43.477  11.141  1.00  0.00     0.142 C 
HETATM   18  S   UNL     1     -42.074 -43.487  11.454  1.00  0.00     0.146 S 
HETATM   19  O   UNL     1     -42.330 -42.861  12.737  1.00  0.00    -0.228 OA
HETATM   20  O   UNL     1     -42.753 -43.074  10.246  1.00  0.00    -0.228 OA
HETATM   21  C   UNL     1     -42.217 -45.247  11.622  1.00  0.00     0.165 C 
ENDBRANCH   4  15
TORSDOF 2
ENDMDL
MODEL 2
REMARK VINA RESULT:      -5.8      4.555      6.603
REMARK  2 active torsions:
REMARK  status: ('A' for Active; 'I' for Inactive)
REMARK    1  A    between atoms: C_8  and  N_9 
REMARK       I    between atoms: N_9  and  C_10 
REMARK       I    between atoms: C_10  and  N_12 
REMARK    2  A    between atoms: N_12  and  C_13 
ROOT
HETATM    1  N   UNL     1     -40.583 -50.866  11.241  1.00  0.00    -0.294 N 
HETATM    2  C   UNL     1     -41.334 -51.719  12.002  1.00  0.00     0.322 C 
HETATM    3  O   UNL     1     -41.080 -52.920  12.028  1.00  0.00    -0.247 OA
HETATM    4  N   UNL     1     -42.414 -51.172  12.619  1.00  0.00    -0.337 N 
HETATM    5  H   UNL     1     -39.908 -51.343  10.663  1.00  0.00     0.172 HD
HETATM    6  H   UNL     1     -42.351 -50.160  12.725  1.00  0.00     0.164 HD
ENDROOT
BRANCH   1   7
HETATM    7  C   UNL     1     -40.716 -49.474  11.122  1.00  0.00     0.114 A 
HETATM    8  C   UNL     1     -39.789 -48.626  11.741  1.00  0.00    -0.018 A 
HETATM    9  C   UNL     1     -38.617 -49.119  12.537  1.00  0.00     0.052 C 
HETATM   10  C   UNL     1     -39.964 -47.244  11.580  1.00  0.00     0.012 A 
HETATM   11  C   UNL     1     -41.031 -46.753  10.836  1.00  0.00     0.018 A 
HETATM   12  C   UNL     1     -41.899 -47.664  10.273  1.00  0.00     0.089 A 
HETATM   13  N   UNL     1     -41.756 -48.998  10.390  1.00  0.00    -0.352 N 
ATOM     14  HN  UNL     1     -42.413 -49.636   9.941  1.00  0.00     0.166 HD
ENDBRANCH   1   7
BRANCH   4  15
HETATM   15  C   UNL     1     -43.421 -51.913  13.352  1.00  0.00     0.101 C 
HETATM   16  C   UNL     1     -44.256 -52.766  12.381  1.00  0.00     0.041 C 
HETATM   17  C   UNL     1     -45.650 -52.991  12.955  1.00  0.00     0.142 C 
HETATM   18  S   UNL     1     -45.751 -52.056  14.463  1.00  0.00     0.146 S 
HETATM   19  O   UNL     1     -46.969 -51.268  14.451  1.00  0.00    -0.228 OA
HETATM   20  O   UNL     1     -45.410 -52.931  15.563  1.00  0.00    -0.228 OA
HETATM   21  C   UNL     1     -44.368 -51.002  14.114  1.00  0.00     0.165 C 
ENDBRANCH   4  15
TORSDOF 2
ENDMDL
MODEL 3
REMARK VINA RESULT:      -5.7      3.563      5.171
REMARK  2 active torsions:
REMARK  status: ('A' for Active; 'I' for Inactive)
REMARK    1  A    between atoms: C_8  and  N_9 
REMARK       I    between atoms: N_9  and  C_10 
REMARK       I    between atoms: C_10  and  N_12 
REMARK    2  A    between atoms: N_12  and  C_13 
ROOT
HETATM    1  N   UNL     1     -42.828 -51.736  12.937  1.00  0.00    -0.294 N 
HETATM    2  C   UNL     1     -42.070 -50.720  12.422  1.00  0.00     0.322 C 
HETATM    3  O   UNL     1     -40.882 -50.893  12.171  1.00  0.00    -0.247 OA
HETATM    4  N   UNL     1     -42.687 -49.513  12.315  1.00  0.00    -0.337 N 
HETATM    5  H   UNL     1     -42.285 -52.555  13.166  1.00  0.00     0.172 HD
HETATM    6  H   UNL     1     -43.704 -49.577  12.306  1.00  0.00     0.164 HD
ENDROOT
BRANCH   1   7
HETATM    7  C   UNL     1     -44.196 -51.718  13.250  1.00  0.00     0.114 A 
HETATM    8  C   UNL     1     -44.618 -51.317  14.524  1.00  0.00    -0.018 A 
HETATM    9  C   UNL     1     -43.679 -50.880  15.609  1.00  0.00     0.052 C 
HETATM   10  C   UNL     1     -45.997 -51.308  14.778  1.00  0.00     0.012 A 
HETATM   11  C   UNL     1     -46.896 -51.693  13.790  1.00  0.00     0.018 A 
HETATM   12  C   UNL     1     -46.386 -52.082  12.570  1.00  0.00     0.089 A 
HETATM   13  N   UNL     1     -45.071 -52.090  12.281  1.00  0.00    -0.352 N 
ATOM     14  HN  UNL     1     -44.740 -52.368  11.357  1.00  0.00     0.166 HD
ENDBRANCH   1   7
BRANCH   4  15
HETATM   15  C   UNL     1     -42.038 -48.275  11.934  1.00  0.00     0.101 C 
HETATM   16  C   UNL     1     -42.602 -47.109  12.763  1.00  0.00     0.041 C 
HETATM   17  C   UNL     1     -42.478 -45.807  11.979  1.00  0.00     0.142 C 
HETATM   18  S   UNL     1     -41.836 -46.224  10.375  1.00  0.00     0.146 S 
HETATM   19  O   UNL     1     -42.657 -45.594   9.358  1.00  0.00    -0.228 OA
HETATM   20  O   UNL     1     -40.399 -46.070  10.407  1.00  0.00    -0.228 OA
HETATM   21  C   UNL     1     -42.234 -47.949  10.463  1.00  0.00     0.165 C 
ENDBRANCH   4  15
TORSDOF 2
ENDMDL
MODEL 4
REMARK VINA RESULT:      -5.7      4.214      6.877
REMARK  2 active torsions:
REMARK  status: ('A' for Active; 'I' for Inactive)
REMARK    1  A    between atoms: C_8  and  N_9 
REMARK       I    between atoms: N_9  and  C_10 
REMARK       I    between atoms: C_10  and  N_12 
REMARK    2  A    between atoms: N_12  and  C_13 
ROOT
HETATM    1  N   UNL     1     -40.934 -48.933  10.694  1.00  0.00    -0.294 N 
HETATM    2  C   UNL     1     -41.134 -49.909  11.632  1.00  0.00     0.322 C 
HETATM    3  O   UNL     1     -40.205 -50.623  11.997  1.00  0.00    -0.247 OA
HETATM    4  N   UNL     1     -42.419 -50.094  12.034  1.00  0.00    -0.337 N 
HETATM    5  H   UNL     1     -40.008 -48.953  10.296  1.00  0.00     0.172 HD
HETATM    6  H   UNL     1     -43.019 -49.288  11.859  1.00  0.00     0.164 HD
ENDROOT
BRANCH   1   7
HETATM    7  C   UNL     1     -41.870 -48.017  10.192  1.00  0.00     0.114 A 
HETATM    8  C   UNL     1     -42.085 -46.801  10.852  1.00  0.00    -0.018 A 
HETATM    9  C   UNL     1     -41.350 -46.391  12.094  1.00  0.00     0.052 C 
HETATM   10  C   UNL     1     -43.025 -45.919  10.300  1.00  0.00     0.012 A 
HETATM   11  C   UNL     1     -43.714 -46.261   9.142  1.00  0.00     0.018 A 
HETATM   12  C   UNL     1     -43.443 -47.484   8.567  1.00  0.00     0.089 A 
HETATM   13  N   UNL     1     -42.537 -48.353   9.057  1.00  0.00    -0.352 N 
ATOM     14  HN  UNL     1     -42.357 -49.240   8.588  1.00  0.00     0.166 HD
ENDBRANCH   1   7
BRANCH   4  15
HETATM   15  C   UNL     1     -42.877 -51.160  12.903  1.00  0.00     0.101 C 
HETATM   16  C   UNL     1     -42.869 -52.498  12.144  1.00  0.00     0.041 C 
HETATM   17  C   UNL     1     -43.916 -53.435  12.735  1.00  0.00     0.142 C 
HETATM   18  S   UNL     1     -44.789 -52.521  13.984  1.00  0.00     0.146 S 
HETATM   19  O   UNL     1     -46.216 -52.676  13.773  1.00  0.00    -0.228 OA
HETATM   20  O   UNL     1     -44.166 -52.789  15.261  1.00  0.00    -0.228 OA
HETATM   21  C   UNL     1     -44.284 -50.918  13.421  1.00  0.00     0.165 C 
ENDBRANCH   4  15
TORSDOF 2
ENDMDL
MODEL 5
REMARK VINA RESULT:      -5.6      5.732      7.484
REMARK  2 active torsions:
REMARK  status: ('A' for Active; 'I' for Inactive)
REMARK    1  A    between atoms: C_8  and  N_9 
REMARK       I    between atoms: N_9  and  C_10 
REMARK       I    between atoms: C_10  and  N_12 
REMARK    2  A    between atoms: N_12  and  C_13 
ROOT
HETATM    1  N   UNL     1     -43.081 -53.003  11.952  1.00  0.00    -0.294 N 
HETATM    2  C   UNL     1     -44.086 -53.301  12.830  1.00  0.00     0.322 C 
HETATM    3  O   UNL     1     -44.970 -54.095  12.522  1.00  0.00    -0.247 OA
HETATM    4  N   UNL     1     -44.093 -52.591  13.989  1.00  0.00    -0.337 N 
HETATM    5  H   UNL     1     -43.217 -53.417  11.042  1.00  0.00     0.172 HD
HETATM    6  H   UNL     1     -43.188 -52.180  14.218  1.00  0.00     0.164 HD
ENDROOT
BRANCH   1   7
HETATM    7  C   UNL     1     -41.986 -52.149  12.153  1.00  0.00     0.114 A 
HETATM    8  C   UNL     1     -40.800 -52.648  12.708  1.00  0.00    -0.018 A 
HETATM    9  C   UNL     1     -40.610 -54.083  13.103  1.00  0.00     0.052 C 
HETATM   10  C   UNL     1     -39.734 -51.752  12.877  1.00  0.00     0.012 A 
HETATM   11  C   UNL     1     -39.872 -50.419  12.508  1.00  0.00     0.018 A 
HETATM   12  C   UNL     1     -41.080 -50.017  11.980  1.00  0.00     0.089 A 
HETATM   13  N   UNL     1     -42.122 -50.849  11.786  1.00  0.00    -0.352 N 
ATOM     14  HN  UNL     1     -42.992 -50.511  11.375  1.00  0.00     0.166 HD
ENDBRANCH   1   7
BRANCH   4  15
HETATM   15  C   UNL     1     -45.139 -52.640  14.992  1.00  0.00     0.101 C 
HETATM   16  C   UNL     1     -46.345 -51.803  14.533  1.00  0.00     0.041 C 
HETATM   17  C   UNL     1     -47.110 -51.287  15.747  1.00  0.00     0.142 C 
HETATM   18  S   UNL     1     -46.196 -51.781  17.189  1.00  0.00     0.146 S 
HETATM   19  O   UNL     1     -46.024 -50.632  18.057  1.00  0.00    -0.228 OA
HETATM   20  O   UNL     1     -46.743 -53.032  17.666  1.00  0.00    -0.228 OA
HETATM   21  C   UNL     1     -44.675 -52.105  16.336  1.00  0.00     0.165 C 
ENDBRANCH   4  15
TORSDOF 2
ENDMDL
MODEL 6
REMARK VINA RESULT:      -5.5      3.962      6.332
REMARK  2 active torsions:
REMARK  status: ('A' for Active; 'I' for Inactive)
REMARK    1  A    between atoms: C_8  and  N_9 
REMARK       I    between atoms: N_9  and  C_10 
REMARK       I    between atoms: C_10  and  N_12 
REMARK    2  A    between atoms: N_12  and  C_13 
ROOT
HETATM    1  N   UNL     1     -43.633 -45.766   9.051  1.00  0.00    -0.294 N 
HETATM    2  C   UNL     1     -42.718 -45.770  10.068  1.00  0.00     0.322 C 
HETATM    3  O   UNL     1     -41.849 -44.905  10.129  1.00  0.00    -0.247 OA
HETATM    4  N   UNL     1     -42.773 -46.831  10.915  1.00  0.00    -0.337 N 
HETATM    5  H   UNL     1     -43.442 -45.066   8.351  1.00  0.00     0.172 HD
HETATM    6  H   UNL     1     -43.673 -47.310  10.907  1.00  0.00     0.164 HD
ENDROOT
BRANCH   1   7
HETATM    7  C   UNL     1     -44.700 -46.655   8.850  1.00  0.00     0.114 A 
HETATM    8  C   UNL     1     -44.528 -47.785   8.041  1.00  0.00    -0.018 A 
HETATM    9  C   UNL     1     -43.235 -48.129   7.362  1.00  0.00     0.052 C 
HETATM   10  C   UNL     1     -45.625 -48.645   7.883  1.00  0.00     0.012 A 
HETATM   11  C   UNL     1     -46.834 -48.363   8.510  1.00  0.00     0.018 A 
HETATM   12  C   UNL     1     -46.912 -47.222   9.279  1.00  0.00     0.089 A 
HETATM   13  N   UNL     1     -45.877 -46.379   9.468  1.00  0.00    -0.352 N 
ATOM     14  HN  UNL     1     -45.976 -45.556  10.061  1.00  0.00     0.166 HD
ENDBRANCH   1   7
BRANCH   4  15
HETATM   15  C   UNL     1     -41.816 -47.111  11.967  1.00  0.00     0.101 C 
HETATM   16  C   UNL     1     -40.604 -47.861  11.390  1.00  0.00     0.041 C 
HETATM   17  C   UNL     1     -39.964 -48.723  12.472  1.00  0.00     0.142 C 
HETATM   18  S   UNL     1     -40.982 -48.581  13.922  1.00  0.00     0.146 S 
HETATM   19  O   UNL     1     -41.267 -49.909  14.432  1.00  0.00    -0.228 OA
HETATM   20  O   UNL     1     -40.436 -47.536  14.759  1.00  0.00    -0.228 OA
HETATM   21  C   UNL     1     -42.412 -47.958  13.079  1.00  0.00     0.165 C 
ENDBRANCH   4  15
TORSDOF 2
ENDMDL
MODEL 7
REMARK VINA RESULT:      -5.5      4.516      6.675
REMARK  2 active torsions:
REMARK  status: ('A' for Active; 'I' for Inactive)
REMARK    1  A    between atoms: C_8  and  N_9 
REMARK       I    between atoms: N_9  and  C_10 
REMARK       I    between atoms: C_10  and  N_12 
REMARK    2  A    between atoms: N_12  and  C_13 
ROOT
HETATM    1  N   UNL     1     -43.135 -53.814  13.277  1.00  0.00    -0.294 N 
HETATM    2  C   UNL     1     -41.882 -53.404  12.915  1.00  0.00     0.322 C 
HETATM    3  O   UNL     1     -40.965 -54.213  12.812  1.00  0.00    -0.247 OA
HETATM    4  N   UNL     1     -41.708 -52.061  12.789  1.00  0.00    -0.337 N 
HETATM    5  H   UNL     1     -43.172 -54.789  13.533  1.00  0.00     0.172 HD
HETATM    6  H   UNL     1     -42.579 -51.552  12.644  1.00  0.00     0.164 HD
ENDROOT
BRANCH   1   7
HETATM    7  C   UNL     1     -44.293 -53.032  13.410  1.00  0.00     0.114 A 
HETATM    8  C   UNL     1     -44.617 -52.465  14.649  1.00  0.00    -0.018 A 
HETATM    9  C   UNL     1     -43.777 -52.632  15.882  1.00  0.00     0.052 C 
HETATM   10  C   UNL     1     -45.779 -51.684  14.722  1.00  0.00     0.012 A 
HETATM   11  C   UNL     1     -46.573 -51.498  13.596  1.00  0.00     0.018 A 
HETATM   12  C   UNL     1     -46.179 -52.104  12.422  1.00  0.00     0.089 A 
HETATM   13  N   UNL     1     -45.062 -52.848  12.306  1.00  0.00    -0.352 N 
ATOM     14  HN  UNL     1     -44.800 -53.263  11.412  1.00  0.00     0.166 HD
ENDBRANCH   1   7
BRANCH   4  15
HETATM   15  C   UNL     1     -40.439 -51.402  12.556  1.00  0.00     0.101 C 
HETATM   16  C   UNL     1     -39.853 -50.904  13.888  1.00  0.00     0.041 C 
HETATM   17  C   UNL     1     -38.957 -49.695  13.643  1.00  0.00     0.142 C 
HETATM   18  S   UNL     1     -39.075 -49.302  11.913  1.00  0.00     0.146 S 
HETATM   19  O   UNL     1     -39.339 -47.884  11.767  1.00  0.00    -0.228 OA
HETATM   20  O   UNL     1     -37.985 -49.958  11.224  1.00  0.00    -0.228 OA
HETATM   21  C   UNL     1     -40.570 -50.210  11.623  1.00  0.00     0.165 C 
ENDBRANCH   4  15
TORSDOF 2
ENDMDL
MODEL 8
REMARK VINA RESULT:      -5.4      8.003      9.553
REMARK  2 active torsions:
REMARK  status: ('A' for Active; 'I' for Inactive)
REMARK    1  A    between atoms: C_8  and  N_9 
REMARK       I    between atoms: N_9  and  C_10 
REMARK       I    between atoms: C_10  and  N_12 
REMARK    2  A    between atoms: N_12  and  C_13 
ROOT
HETATM    1  N   UNL     1     -45.225 -53.893  16.099  1.00  0.00    -0.294 N 
HETATM    2  C   UNL     1     -43.975 -54.406  16.311  1.00  0.00     0.322 C 
HETATM    3  O   UNL     1     -43.736 -55.073  17.313  1.00  0.00    -0.247 OA
HETATM    4  N   UNL     1     -43.022 -54.042  15.414  1.00  0.00    -0.337 N 
HETATM    5  H   UNL     1     -45.849 -54.038  16.878  1.00  0.00     0.172 HD
HETATM    6  H   UNL     1     -43.403 -53.722  14.524  1.00  0.00     0.164 HD
ENDROOT
BRANCH   1   7
HETATM    7  C   UNL     1     -45.673 -53.141  15.001  1.00  0.00     0.114 A 
HETATM    8  C   UNL     1     -46.400 -51.962  15.208  1.00  0.00    -0.018 A 
HETATM    9  C   UNL     1     -46.734 -51.423  16.568  1.00  0.00     0.052 C 
HETATM   10  C   UNL     1     -46.813 -51.246  14.076  1.00  0.00     0.012 A 
HETATM   11  C   UNL     1     -46.508 -51.710  12.801  1.00  0.00     0.018 A 
HETATM   12  C   UNL     1     -45.797 -52.886  12.696  1.00  0.00     0.089 A 
HETATM   13  N   UNL     1     -45.368 -53.595  13.758  1.00  0.00    -0.352 N 
ATOM     14  HN  UNL     1     -44.829 -54.451  13.632  1.00  0.00     0.166 HD
ENDBRANCH   1   7
BRANCH   4  15
HETATM   15  C   UNL     1     -41.610 -54.349  15.525  1.00  0.00     0.101 C 
HETATM   16  C   UNL     1     -40.906 -53.285  16.383  1.00  0.00     0.041 C 
HETATM   17  C   UNL     1     -39.440 -53.177  15.978  1.00  0.00     0.142 C 
HETATM   18  S   UNL     1     -39.203 -54.257  14.587  1.00  0.00     0.146 S 
HETATM   19  O   UNL     1     -38.513 -53.532  13.537  1.00  0.00    -0.228 OA
HETATM   20  O   UNL     1     -38.733 -55.533  15.078  1.00  0.00    -0.228 OA
HETATM   21  C   UNL     1     -40.921 -54.397  14.171  1.00  0.00     0.165 C 
ENDBRANCH   4  15
TORSDOF 2
ENDMDL
MODEL 9
REMARK VINA RESULT:      -5.3      4.959      6.997
REMARK  2 active torsions:
REMARK  status: ('A' for Active; 'I' for Inactive)
REMARK    1  A    between atoms: C_8  and  N_9 
REMARK       I    between atoms: N_9  and  C_10 
REMARK       I    between atoms: C_10  and  N_12 
REMARK    2  A    between atoms: N_12  and  C_13 
ROOT
HETATM    1  N   UNL     1     -43.198 -53.185  12.245  1.00  0.00    -0.294 N 
HETATM    2  C   UNL     1     -41.985 -52.562  12.135  1.00  0.00     0.322 C 
HETATM    3  O   UNL     1     -41.116 -53.014  11.397  1.00  0.00    -0.247 OA
HETATM    4  N   UNL     1     -41.784 -51.502  12.962  1.00  0.00    -0.337 N 
HETATM    5  H   UNL     1     -43.236 -54.064  11.752  1.00  0.00     0.172 HD
HETATM    6  H   UNL     1     -42.649 -51.090  13.311  1.00  0.00     0.164 HD
ENDROOT
BRANCH   1   7
HETATM    7  C   UNL     1     -44.304 -52.789  13.013  1.00  0.00     0.114 A 
HETATM    8  C   UNL     1     -44.565 -53.412  14.240  1.00  0.00    -0.018 A 
HETATM    9  C   UNL     1     -43.708 -54.501  14.815  1.00  0.00     0.052 C 
HETATM   10  C   UNL     1     -45.677 -52.968  14.970  1.00  0.00     0.012 A 
HETATM   11  C   UNL     1     -46.484 -51.951  14.473  1.00  0.00     0.018 A 
HETATM   12  C   UNL     1     -46.154 -51.405  13.251  1.00  0.00     0.089 A 
HETATM   13  N   UNL     1     -45.086 -51.791  12.527  1.00  0.00    -0.352 N 
ATOM     14  HN  UNL     1     -44.871 -51.346  11.635  1.00  0.00     0.166 HD
ENDBRANCH   1   7
BRANCH   4  15
HETATM   15  C   UNL     1     -40.531 -50.789  13.116  1.00  0.00     0.101 C 
HETATM   16  C   UNL     1     -40.218 -49.994  11.837  1.00  0.00     0.041 C 
HETATM   17  C   UNL     1     -38.711 -49.817  11.692  1.00  0.00     0.142 C 
HETATM   18  S   UNL     1     -37.949 -50.723  13.017  1.00  0.00     0.146 S 
HETATM   19  O   UNL     1     -36.898 -51.563  12.475  1.00  0.00    -0.228 OA
HETATM   20  O   UNL     1     -37.716 -49.811  14.115  1.00  0.00    -0.228 OA
HETATM   21  C   UNL     1     -39.365 -51.724  13.389  1.00  0.00     0.165 C 
ENDBRANCH   4  15
TORSDOF 2
ENDMDL
