MODEL 1
REMARK VINA RESULT:      -5.3      0.000      0.000
REMARK  6 active torsions:
REMARK  status: ('A' for Active; 'I' for Inactive)
REMARK    1  A    between atoms: C_2  and  C_3 
REMARK       I    between atoms: C_2  and  N_10 
REMARK    2  A    between atoms: C_3  and  O_4 
REMARK    3  A    between atoms: O_4  and  C_5 
REMARK    4  A    between atoms: N_10  and  C_11 
REMARK    5  A    between atoms: C_11  and  C_12 
REMARK    6  A    between atoms: C_12  and  C_13 
ROOT
HETATM    1  O   UNL     1     -43.613 -55.491  15.334  1.00  0.00    -0.271 OA
HETATM    2  C   UNL     1     -43.933 -54.890  14.312  1.00  0.00     0.241 C 
HETATM    3  N   UNL     1     -43.018 -54.208  13.528  1.00  0.00    -0.359 N 
HETATM    4  H   UNL     1     -43.362 -53.568  12.824  1.00  0.00     0.162 HD
ENDROOT
BRANCH   3   5
HETATM    5  C   UNL     1     -41.613 -54.120  13.889  1.00  0.00     0.128 C 
BRANCH   5   6
HETATM    6  C   UNL     1     -40.714 -53.741  12.710  1.00  0.00     0.077 C 
BRANCH   6   7
HETATM    7  C   UNL     1     -40.525 -52.263  12.600  1.00  0.00     0.017 A 
HETATM    8  C   UNL     1     -39.951 -51.436  13.548  1.00  0.00     0.076 A 
HETATM    9  S   UNL     1     -39.922 -49.819  12.980  1.00  0.00    -0.095 SA
HETATM   10  C   UNL     1     -40.668 -50.339  11.528  1.00  0.00     0.138 A 
HETATM   11  N   UNL     1     -40.945 -51.622  11.445  1.00  0.00    -0.363 N 
ATOM     12  HN  UNL     1     -41.399 -52.076  10.652  1.00  0.00     0.165 HD
ENDBRANCH   6   7
ENDBRANCH   5   6
ENDBRANCH   3   5
BRANCH   2  13
HETATM   13  C   UNL     1     -45.365 -54.875  13.757  1.00  0.00     0.270 C 
BRANCH  13  14
HETATM   14  O   UNL     1     -45.604 -53.789  12.872  1.00  0.00    -0.377 OA
BRANCH  14  15
HETATM   15  C   UNL     1     -46.346 -52.733  13.470  1.00  0.00     0.122 C 
HETATM   16  C   UNL     1     -45.417 -51.562  13.807  1.00  0.00     0.032 C 
HETATM   17  C   UNL     1     -45.904 -50.993  15.141  1.00  0.00     0.002 C 
HETATM   18  C   UNL     1     -47.168 -51.766  15.489  1.00  0.00     0.002 C 
HETATM   19  C   UNL     1     -46.968 -53.109  14.811  1.00  0.00     0.032 C 
ENDBRANCH  14  15
ENDBRANCH  13  14
ENDBRANCH   2  13
TORSDOF 6
ENDMDL
MODEL 2
REMARK VINA RESULT:      -5.3      1.614      1.983
REMARK  6 active torsions:
REMARK  status: ('A' for Active; 'I' for Inactive)
REMARK    1  A    between atoms: C_2  and  C_3 
REMARK       I    between atoms: C_2  and  N_10 
REMARK    2  A    between atoms: C_3  and  O_4 
REMARK    3  A    between atoms: O_4  and  C_5 
REMARK    4  A    between atoms: N_10  and  C_11 
REMARK    5  A    between atoms: C_11  and  C_12 
REMARK    6  A    between atoms: C_12  and  C_13 
ROOT
HETATM    1  O   UNL     1     -42.267 -53.718  14.008  1.00  0.00    -0.271 OA
HETATM    2  C   UNL     1     -42.991 -53.527  13.034  1.00  0.00     0.241 C 
HETATM    3  N   UNL     1     -42.568 -52.832  11.914  1.00  0.00    -0.359 N 
HETATM    4  H   UNL     1     -43.260 -52.529  11.240  1.00  0.00     0.162 HD
ENDROOT
BRANCH   3   5
HETATM    5  C   UNL     1     -41.244 -52.238  11.833  1.00  0.00     0.128 C 
BRANCH   5   6
HETATM    6  C   UNL     1     -41.275 -50.708  11.807  1.00  0.00     0.077 C 
BRANCH   6   7
HETATM    7  C   UNL     1     -39.939 -50.114  12.114  1.00  0.00     0.017 A 
HETATM    8  C   UNL     1     -39.541 -49.571  13.322  1.00  0.00     0.076 A 
HETATM    9  S   UNL     1     -37.916 -49.032  13.221  1.00  0.00    -0.095 SA
HETATM   10  C   UNL     1     -37.868 -49.561  11.591  1.00  0.00     0.138 A 
HETATM   11  N   UNL     1     -38.973 -50.094  11.120  1.00  0.00    -0.363 N 
ATOM     12  HN  UNL     1     -39.101 -50.441  10.169  1.00  0.00     0.165 HD
ENDBRANCH   6   7
ENDBRANCH   5   6
ENDBRANCH   3   5
BRANCH   2  13
HETATM   13  C   UNL     1     -44.418 -54.084  12.923  1.00  0.00     0.270 C 
BRANCH  13  14
HETATM   14  O   UNL     1     -45.302 -53.207  12.240  1.00  0.00    -0.377 OA
BRANCH  14  15
HETATM   15  C   UNL     1     -46.266 -52.605  13.096  1.00  0.00     0.122 C 
HETATM   16  C   UNL     1     -45.726 -51.282  13.648  1.00  0.00     0.032 C 
HETATM   17  C   UNL     1     -46.207 -51.190  15.098  1.00  0.00     0.002 C 
HETATM   18  C   UNL     1     -47.106 -52.397  15.318  1.00  0.00     0.002 C 
HETATM   19  C   UNL     1     -46.570 -53.429  14.343  1.00  0.00     0.032 C 
ENDBRANCH  14  15
ENDBRANCH  13  14
ENDBRANCH   2  13
TORSDOF 6
ENDMDL
MODEL 3
REMARK VINA RESULT:      -5.2      3.362      4.584
REMARK  6 active torsions:
REMARK  status: ('A' for Active; 'I' for Inactive)
REMARK    1  A    between atoms: C_2  and  C_3 
REMARK       I    between atoms: C_2  and  N_10 
REMARK    2  A    between atoms: C_3  and  O_4 
REMARK    3  A    between atoms: O_4  and  C_5 
REMARK    4  A    between atoms: N_10  and  C_11 
REMARK    5  A    between atoms: C_11  and  C_12 
REMARK    6  A    between atoms: C_12  and  C_13 
ROOT
HETATM    1  O   UNL     1     -40.451 -50.917  13.382  1.00  0.00    -0.271 OA
HETATM    2  C   UNL     1     -41.381 -51.231  12.644  1.00  0.00     0.241 C 
HETATM    3  N   UNL     1     -41.684 -50.535  11.486  1.00  0.00    -0.359 N 
HETATM    4  H   UNL     1     -42.572 -50.708  11.034  1.00  0.00     0.162 HD
ENDROOT
BRANCH   3   5
HETATM    5  C   UNL     1     -40.944 -49.350  11.086  1.00  0.00     0.128 C 
BRANCH   5   6
HETATM    6  C   UNL     1     -41.718 -48.052  11.322  1.00  0.00     0.077 C 
BRANCH   6   7
HETATM    7  C   UNL     1     -42.754 -47.817  10.271  1.00  0.00     0.017 A 
HETATM    8  C   UNL     1     -44.058 -47.409  10.481  1.00  0.00     0.076 A 
HETATM    9  S   UNL     1     -44.875 -47.245   8.982  1.00  0.00    -0.095 SA
HETATM   10  C   UNL     1     -43.441 -47.726   8.176  1.00  0.00     0.138 A 
HETATM   11  N   UNL     1     -42.410 -48.008   8.942  1.00  0.00    -0.363 N 
ATOM     12  HN  UNL     1     -41.497 -48.320   8.610  1.00  0.00     0.165 HD
ENDBRANCH   6   7
ENDBRANCH   5   6
ENDBRANCH   3   5
BRANCH   2  13
HETATM   13  C   UNL     1     -42.273 -52.457  12.888  1.00  0.00     0.270 C 
BRANCH  13  14
HETATM   14  O   UNL     1     -43.177 -52.278  13.969  1.00  0.00    -0.377 OA
BRANCH  14  15
HETATM   15  C   UNL     1     -44.365 -51.588  13.597  1.00  0.00     0.122 C 
HETATM   16  C   UNL     1     -45.172 -51.219  14.846  1.00  0.00     0.032 C 
HETATM   17  C   UNL     1     -46.646 -51.403  14.478  1.00  0.00     0.002 C 
HETATM   18  C   UNL     1     -46.667 -51.760  12.999  1.00  0.00     0.002 C 
HETATM   19  C   UNL     1     -45.328 -52.436  12.772  1.00  0.00     0.032 C 
ENDBRANCH  14  15
ENDBRANCH  13  14
ENDBRANCH   2  13
TORSDOF 6
ENDMDL
MODEL 4
REMARK VINA RESULT:      -5.0      2.900      3.992
REMARK  6 active torsions:
REMARK  status: ('A' for Active; 'I' for Inactive)
REMARK    1  A    between atoms: C_2  and  C_3 
REMARK       I    between atoms: C_2  and  N_10 
REMARK    2  A    between atoms: C_3  and  O_4 
REMARK    3  A    between atoms: O_4  and  C_5 
REMARK    4  A    between atoms: N_10  and  C_11 
REMARK    5  A    between atoms: C_11  and  C_12 
REMARK    6  A    between atoms: C_12  and  C_13 
ROOT
HETATM    1  O   UNL     1     -40.352 -52.634  12.150  1.00  0.00    -0.271 OA
HETATM    2  C   UNL     1     -41.406 -52.002  12.150  1.00  0.00     0.241 C 
HETATM    3  N   UNL     1     -41.504 -50.714  11.652  1.00  0.00    -0.359 N 
HETATM    4  H   UNL     1     -42.333 -50.173  11.864  1.00  0.00     0.162 HD
ENDROOT
BRANCH   3   5
HETATM    5  C   UNL     1     -40.350 -50.001  11.132  1.00  0.00     0.128 C 
BRANCH   5   6
HETATM    6  C   UNL     1     -39.902 -48.848  12.032  1.00  0.00     0.077 C 
BRANCH   6   7
HETATM    7  C   UNL     1     -40.685 -47.601  11.778  1.00  0.00     0.017 A 
HETATM    8  C   UNL     1     -41.346 -46.839  12.724  1.00  0.00     0.076 A 
HETATM    9  S   UNL     1     -42.087 -45.485  11.980  1.00  0.00    -0.095 SA
HETATM   10  C   UNL     1     -41.475 -46.010  10.467  1.00  0.00     0.138 A 
HETATM   11  N   UNL     1     -40.774 -47.123  10.480  1.00  0.00    -0.363 N 
ATOM     12  HN  UNL     1     -40.358 -47.566   9.660  1.00  0.00     0.165 HD
ENDBRANCH   6   7
ENDBRANCH   5   6
ENDBRANCH   3   5
BRANCH   2  13
HETATM   13  C   UNL     1     -42.737 -52.585  12.646  1.00  0.00     0.270 C 
BRANCH  13  14
HETATM   14  O   UNL     1     -43.248 -51.905  13.785  1.00  0.00    -0.377 OA
BRANCH  14  15
HETATM   15  C   UNL     1     -44.602 -52.234  14.072  1.00  0.00     0.122 C 
HETATM   16  C   UNL     1     -45.431 -52.220  12.784  1.00  0.00     0.032 C 
HETATM   17  C   UNL     1     -46.795 -51.633  13.152  1.00  0.00     0.002 C 
HETATM   18  C   UNL     1     -46.768 -51.427  14.660  1.00  0.00     0.002 C 
HETATM   19  C   UNL     1     -45.298 -51.214  14.969  1.00  0.00     0.032 C 
ENDBRANCH  14  15
ENDBRANCH  13  14
ENDBRANCH   2  13
TORSDOF 6
ENDMDL
MODEL 5
REMARK VINA RESULT:      -4.9      2.763      3.593
REMARK  6 active torsions:
REMARK  status: ('A' for Active; 'I' for Inactive)
REMARK    1  A    between atoms: C_2  and  C_3 
REMARK       I    between atoms: C_2  and  N_10 
REMARK    2  A    between atoms: C_3  and  O_4 
REMARK    3  A    between atoms: O_4  and  C_5 
REMARK    4  A    between atoms: N_10  and  C_11 
REMARK    5  A    between atoms: C_11  and  C_12 
REMARK    6  A    between atoms: C_12  and  C_13 
ROOT
HETATM    1  O   UNL     1     -43.080 -54.580  14.091  1.00  0.00    -0.271 OA
HETATM    2  C   UNL     1     -42.884 -53.780  13.180  1.00  0.00     0.241 C 
HETATM    3  N   UNL     1     -41.640 -53.602  12.598  1.00  0.00    -0.359 N 
HETATM    4  H   UNL     1     -41.492 -52.796  12.004  1.00  0.00     0.162 HD
ENDROOT
BRANCH   3   5
HETATM    5  C   UNL     1     -40.465 -54.322  13.060  1.00  0.00     0.128 C 
BRANCH   5   6
HETATM    6  C   UNL     1     -39.851 -53.717  14.324  1.00  0.00     0.077 C 
BRANCH   6   7
HETATM    7  C   UNL     1     -39.687 -54.730  15.410  1.00  0.00     0.017 A 
HETATM    8  C   UNL     1     -38.503 -55.323  15.807  1.00  0.00     0.076 A 
HETATM    9  S   UNL     1     -38.790 -56.405  17.106  1.00  0.00    -0.095 SA
HETATM   10  C   UNL     1     -40.456 -56.004  17.041  1.00  0.00     0.138 A 
HETATM   11  N   UNL     1     -40.808 -55.136  16.117  1.00  0.00    -0.363 N 
ATOM     12  HN  UNL     1     -41.760 -54.811  15.948  1.00  0.00     0.165 HD
ENDBRANCH   6   7
ENDBRANCH   5   6
ENDBRANCH   3   5
BRANCH   2  13
HETATM   13  C   UNL     1     -43.998 -52.935  12.546  1.00  0.00     0.270 C 
BRANCH  13  14
HETATM   14  O   UNL     1     -45.239 -53.622  12.471  1.00  0.00    -0.377 OA
BRANCH  14  15
HETATM   15  C   UNL     1     -46.269 -53.000  13.230  1.00  0.00     0.122 C 
HETATM   16  C   UNL     1     -45.898 -51.544  13.527  1.00  0.00     0.032 C 
HETATM   17  C   UNL     1     -46.384 -51.254  14.948  1.00  0.00     0.002 C 
HETATM   18  C   UNL     1     -47.125 -52.504  15.400  1.00  0.00     0.002 C 
HETATM   19  C   UNL     1     -46.466 -53.619  14.611  1.00  0.00     0.032 C 
ENDBRANCH  14  15
ENDBRANCH  13  14
ENDBRANCH   2  13
TORSDOF 6
ENDMDL
MODEL 6
REMARK VINA RESULT:      -4.9      3.582      5.411
REMARK  6 active torsions:
REMARK  status: ('A' for Active; 'I' for Inactive)
REMARK    1  A    between atoms: C_2  and  C_3 
REMARK       I    between atoms: C_2  and  N_10 
REMARK    2  A    between atoms: C_3  and  O_4 
REMARK    3  A    between atoms: O_4  and  C_5 
REMARK    4  A    between atoms: N_10  and  C_11 
REMARK    5  A    between atoms: C_11  and  C_12 
REMARK    6  A    between atoms: C_12  and  C_13 
ROOT
HETATM    1  O   UNL     1     -42.020 -49.772  13.433  1.00  0.00    -0.271 OA
HETATM    2  C   UNL     1     -42.020 -50.460  12.415  1.00  0.00     0.241 C 
HETATM    3  N   UNL     1     -41.528 -50.004  11.204  1.00  0.00    -0.359 N 
HETATM    4  H   UNL     1     -41.740 -50.527  10.365  1.00  0.00     0.162 HD
ENDROOT
BRANCH   3   5
HETATM    5  C   UNL     1     -41.015 -48.654  11.044  1.00  0.00     0.128 C 
BRANCH   5   6
HETATM    6  C   UNL     1     -42.100 -47.582  11.165  1.00  0.00     0.077 C 
BRANCH   6   7
HETATM    7  C   UNL     1     -43.089 -47.656  10.048  1.00  0.00     0.017 A 
HETATM    8  C   UNL     1     -44.463 -47.542  10.159  1.00  0.00     0.076 A 
HETATM    9  S   UNL     1     -45.193 -47.665   8.612  1.00  0.00    -0.095 SA
HETATM   10  C   UNL     1     -43.637 -47.857   7.919  1.00  0.00     0.138 A 
HETATM   11  N   UNL     1     -42.623 -47.848   8.756  1.00  0.00    -0.363 N 
ATOM     12  HN  UNL     1     -41.644 -47.964   8.496  1.00  0.00     0.165 HD
ENDBRANCH   6   7
ENDBRANCH   5   6
ENDBRANCH   3   5
BRANCH   2  13
HETATM   13  C   UNL     1     -42.509 -51.916  12.382  1.00  0.00     0.270 C 
BRANCH  13  14
HETATM   14  O   UNL     1     -41.532 -52.838  12.844  1.00  0.00    -0.377 OA
BRANCH  14  15
HETATM   15  C   UNL     1     -42.092 -54.061  13.308  1.00  0.00     0.122 C 
HETATM   16  C   UNL     1     -43.618 -54.025  13.174  1.00  0.00     0.032 C 
HETATM   17  C   UNL     1     -44.177 -54.742  14.404  1.00  0.00     0.002 C 
HETATM   18  C   UNL     1     -42.970 -55.277  15.162  1.00  0.00     0.002 C 
HETATM   19  C   UNL     1     -41.858 -54.313  14.794  1.00  0.00     0.032 C 
ENDBRANCH  14  15
ENDBRANCH  13  14
ENDBRANCH   2  13
TORSDOF 6
ENDMDL
MODEL 7
REMARK VINA RESULT:      -4.9      3.107      6.558
REMARK  6 active torsions:
REMARK  status: ('A' for Active; 'I' for Inactive)
REMARK    1  A    between atoms: C_2  and  C_3 
REMARK       I    between atoms: C_2  and  N_10 
REMARK    2  A    between atoms: C_3  and  O_4 
REMARK    3  A    between atoms: O_4  and  C_5 
REMARK    4  A    between atoms: N_10  and  C_11 
REMARK    5  A    between atoms: C_11  and  C_12 
REMARK    6  A    between atoms: C_12  and  C_13 
ROOT
HETATM    1  O   UNL     1     -42.346 -52.376  14.064  1.00  0.00    -0.271 OA
HETATM    2  C   UNL     1     -42.252 -52.305  12.842  1.00  0.00     0.241 C 
HETATM    3  N   UNL     1     -43.200 -52.841  11.987  1.00  0.00    -0.359 N 
HETATM    4  H   UNL     1     -42.972 -52.936  11.006  1.00  0.00     0.162 HD
ENDROOT
BRANCH   3   5
HETATM    5  C   UNL     1     -44.356 -53.569  12.482  1.00  0.00     0.128 C 
BRANCH   5   6
HETATM    6  C   UNL     1     -45.602 -52.692  12.618  1.00  0.00     0.077 C 
BRANCH   6   7
HETATM    7  C   UNL     1     -45.909 -52.369  14.044  1.00  0.00     0.017 A 
HETATM    8  C   UNL     1     -46.836 -51.446  14.496  1.00  0.00     0.076 A 
HETATM    9  S   UNL     1     -46.865 -51.430  16.210  1.00  0.00    -0.095 SA
HETATM   10  C   UNL     1     -45.654 -52.643  16.219  1.00  0.00     0.138 A 
HETATM   11  N   UNL     1     -45.226 -53.045  15.043  1.00  0.00    -0.363 N 
ATOM     12  HN  UNL     1     -44.502 -53.747  14.888  1.00  0.00     0.165 HD
ENDBRANCH   6   7
ENDBRANCH   5   6
ENDBRANCH   3   5
BRANCH   2  13
HETATM   13  C   UNL     1     -41.111 -51.568  12.126  1.00  0.00     0.270 C 
BRANCH  13  14
HETATM   14  O   UNL     1     -40.837 -50.293  12.689  1.00  0.00    -0.377 OA
BRANCH  14  15
HETATM   15  C   UNL     1     -39.447 -50.048  12.870  1.00  0.00     0.122 C 
HETATM   16  C   UNL     1     -38.816 -49.592  11.550  1.00  0.00     0.032 C 
HETATM   17  C   UNL     1     -37.429 -50.234  11.489  1.00  0.00     0.002 C 
HETATM   18  C   UNL     1     -37.239 -50.949  12.819  1.00  0.00     0.002 C 
HETATM   19  C   UNL     1     -38.653 -51.295  13.247  1.00  0.00     0.032 C 
ENDBRANCH  14  15
ENDBRANCH  13  14
ENDBRANCH   2  13
TORSDOF 6
ENDMDL
MODEL 8
REMARK VINA RESULT:      -4.6      3.000      4.650
REMARK  6 active torsions:
REMARK  status: ('A' for Active; 'I' for Inactive)
REMARK    1  A    between atoms: C_2  and  C_3 
REMARK       I    between atoms: C_2  and  N_10 
REMARK    2  A    between atoms: C_3  and  O_4 
REMARK    3  A    between atoms: O_4  and  C_5 
REMARK    4  A    between atoms: N_10  and  C_11 
REMARK    5  A    between atoms: C_11  and  C_12 
REMARK    6  A    between atoms: C_12  and  C_13 
ROOT
HETATM    1  O   UNL     1     -39.407 -52.074  13.071  1.00  0.00    -0.271 OA
HETATM    2  C   UNL     1     -40.336 -51.821  12.308  1.00  0.00     0.241 C 
HETATM    3  N   UNL     1     -40.338 -50.716  11.474  1.00  0.00    -0.359 N 
HETATM    4  H   UNL     1     -41.205 -50.447  11.026  1.00  0.00     0.162 HD
ENDROOT
BRANCH   3   5
HETATM    5  C   UNL     1     -39.253 -49.749  11.478  1.00  0.00     0.128 C 
BRANCH   5   6
HETATM    6  C   UNL     1     -39.562 -48.506  12.314  1.00  0.00     0.077 C 
BRANCH   6   7
HETATM    7  C   UNL     1     -40.528 -47.594  11.631  1.00  0.00     0.017 A 
HETATM    8  C   UNL     1     -41.899 -47.572  11.804  1.00  0.00     0.076 A 
HETATM    9  S   UNL     1     -42.598 -46.344  10.833  1.00  0.00    -0.095 SA
HETATM   10  C   UNL     1     -41.034 -45.938  10.262  1.00  0.00     0.138 A 
HETATM   11  N   UNL     1     -40.039 -46.658  10.733  1.00  0.00    -0.363 N 
ATOM     12  HN  UNL     1     -39.058 -46.545  10.477  1.00  0.00     0.165 HD
ENDBRANCH   6   7
ENDBRANCH   5   6
ENDBRANCH   3   5
BRANCH   2  13
HETATM   13  C   UNL     1     -41.567 -52.726  12.150  1.00  0.00     0.270 C 
BRANCH  13  14
HETATM   14  O   UNL     1     -41.808 -53.536  13.292  1.00  0.00    -0.377 OA
BRANCH  14  15
HETATM   15  C   UNL     1     -43.167 -53.519  13.713  1.00  0.00     0.122 C 
HETATM   16  C   UNL     1     -43.481 -54.779  14.527  1.00  0.00     0.032 C 
HETATM   17  C   UNL     1     -44.901 -55.199  14.142  1.00  0.00     0.002 C 
HETATM   18  C   UNL     1     -45.420 -54.116  13.208  1.00  0.00     0.002 C 
HETATM   19  C   UNL     1     -44.163 -53.567  12.559  1.00  0.00     0.032 C 
ENDBRANCH  14  15
ENDBRANCH  13  14
ENDBRANCH   2  13
TORSDOF 6
ENDMDL
MODEL 9
REMARK VINA RESULT:      -4.6      3.691      5.052
REMARK  6 active torsions:
REMARK  status: ('A' for Active; 'I' for Inactive)
REMARK    1  A    between atoms: C_2  and  C_3 
REMARK       I    between atoms: C_2  and  N_10 
REMARK    2  A    between atoms: C_3  and  O_4 
REMARK    3  A    between atoms: O_4  and  C_5 
REMARK    4  A    between atoms: N_10  and  C_11 
REMARK    5  A    between atoms: C_11  and  C_12 
REMARK    6  A    between atoms: C_12  and  C_13 
ROOT
HETATM    1  O   UNL     1     -42.702 -49.209  14.056  1.00  0.00    -0.271 OA
HETATM    2  C   UNL     1     -43.312 -49.786  13.159  1.00  0.00     0.241 C 
HETATM    3  N   UNL     1     -43.552 -49.205  11.926  1.00  0.00    -0.359 N 
HETATM    4  H   UNL     1     -44.228 -49.636  11.309  1.00  0.00     0.162 HD
ENDROOT
BRANCH   3   5
HETATM    5  C   UNL     1     -43.134 -47.847  11.622  1.00  0.00     0.128 C 
BRANCH   5   6
HETATM    6  C   UNL     1     -41.808 -47.785  10.860  1.00  0.00     0.077 C 
BRANCH   6   7
HETATM    7  C   UNL     1     -41.225 -46.409  10.857  1.00  0.00     0.017 A 
HETATM    8  C   UNL     1     -41.800 -45.273  11.397  1.00  0.00     0.076 A 
HETATM    9  S   UNL     1     -40.761 -43.926  11.183  1.00  0.00    -0.095 SA
HETATM   10  C   UNL     1     -39.634 -44.951  10.395  1.00  0.00     0.138 A 
HETATM   11  N   UNL     1     -39.984 -46.212  10.272  1.00  0.00    -0.363 N 
ATOM     12  HN  UNL     1     -39.427 -46.936   9.817  1.00  0.00     0.165 HD
ENDBRANCH   6   7
ENDBRANCH   5   6
ENDBRANCH   3   5
BRANCH   2  13
HETATM   13  C   UNL     1     -43.824 -51.228  13.281  1.00  0.00     0.270 C 
BRANCH  13  14
HETATM   14  O   UNL     1     -45.215 -51.345  13.015  1.00  0.00    -0.377 OA
BRANCH  14  15
HETATM   15  C   UNL     1     -45.670 -52.693  12.999  1.00  0.00     0.122 C 
HETATM   16  C   UNL     1     -46.569 -52.959  14.211  1.00  0.00     0.032 C 
HETATM   17  C   UNL     1     -46.249 -54.379  14.684  1.00  0.00     0.002 C 
HETATM   18  C   UNL     1     -45.263 -54.944  13.673  1.00  0.00     0.002 C 
HETATM   19  C   UNL     1     -44.547 -53.717  13.141  1.00  0.00     0.032 C 
ENDBRANCH  14  15
ENDBRANCH  13  14
ENDBRANCH   2  13
TORSDOF 6
ENDMDL
