MODEL 1
REMARK VINA RESULT:      -6.5      0.000      0.000
REMARK  3 active torsions:
REMARK  status: ('A' for Active; 'I' for Inactive)
REMARK    1  A    between atoms: C_2  and  C_3 
REMARK    2  A    between atoms: C_6  and  N_7 
REMARK       I    between atoms: N_7  and  C_8 
REMARK       I    between atoms: C_8  and  N_10 
REMARK    3  A    between atoms: N_10  and  C_11 
ROOT
HETATM    1  N   UNL     1     -41.912 -48.274   9.773  1.00  0.00    -0.289 N 
HETATM    2  C   UNL     1     -41.377 -48.256  11.031  1.00  0.00     0.322 C 
HETATM    3  O   UNL     1     -41.868 -47.751  12.031  1.00  0.00    -0.247 OA
HETATM    4  N   UNL     1     -40.136 -48.892  11.085  1.00  0.00    -0.337 N 
HETATM    5  H   UNL     1     -41.474 -48.790   9.033  1.00  0.00     0.172 HD
HETATM    6  H   UNL     1     -39.644 -49.046  10.218  1.00  0.00     0.164 HD
ENDROOT
BRANCH   1   7
HETATM    7  C   UNL     1     -43.048 -47.574   9.458  1.00  0.00     0.152 A 
HETATM    8  S   UNL     1     -42.780 -45.910   9.163  1.00  0.00    -0.064 SA
HETATM    9  C   UNL     1     -44.471 -45.691   8.966  1.00  0.00     0.078 A 
HETATM   10  C   UNL     1     -45.123 -46.903   9.099  1.00  0.00     0.017 A 
HETATM   11  N   UNL     1     -44.290 -47.975   9.388  1.00  0.00    -0.340 N 
ATOM     12  HN  UNL     1     -44.602 -48.937   9.526  1.00  0.00     0.168 HD
BRANCH  10  13
HETATM   13  C   UNL     1     -46.593 -47.147   8.978  1.00  0.00     0.053 C 
HETATM   14  C   UNL     1     -46.935 -48.628   9.038  1.00  0.00     0.011 C 
ENDBRANCH  10  13
ENDBRANCH   1   7
BRANCH   4  15
HETATM   15  C   UNL     1     -39.366 -48.791  12.324  1.00  0.00     0.104 C 
HETATM   16  C   UNL     1     -37.913 -49.256  12.195  1.00  0.00     0.036 C 
HETATM   17  C   UNL     1     -37.712 -50.764  12.279  1.00  0.00     0.105 C 
HETATM   18  C   UNL     1     -38.603 -51.526  13.226  1.00  0.00     0.219 C 
HETATM   19  O   UNL     1     -38.310 -52.668  13.584  1.00  0.00    -0.273 OA
HETATM   20  N   UNL     1     -39.849 -50.968  13.438  1.00  0.00    -0.355 N 
HETATM   21  C   UNL     1     -40.998 -51.844  13.366  1.00  0.00     0.152 C 
HETATM   22  C   UNL     1     -40.041 -49.523  13.487  1.00  0.00     0.150 C 
ENDBRANCH   4  15
TORSDOF 3
ENDMDL
MODEL 2
REMARK VINA RESULT:      -6.1      3.486      5.013
REMARK  3 active torsions:
REMARK  status: ('A' for Active; 'I' for Inactive)
REMARK    1  A    between atoms: C_2  and  C_3 
REMARK    2  A    between atoms: C_6  and  N_7 
REMARK       I    between atoms: N_7  and  C_8 
REMARK       I    between atoms: C_8  and  N_10 
REMARK    3  A    between atoms: N_10  and  C_11 
ROOT
HETATM    1  N   UNL     1     -42.115 -49.234  11.053  1.00  0.00    -0.289 N 
HETATM    2  C   UNL     1     -42.558 -49.650  12.277  1.00  0.00     0.322 C 
HETATM    3  O   UNL     1     -42.904 -48.941  13.212  1.00  0.00    -0.247 OA
HETATM    4  N   UNL     1     -42.574 -51.040  12.387  1.00  0.00    -0.337 N 
HETATM    5  H   UNL     1     -41.935 -49.892  10.317  1.00  0.00     0.172 HD
HETATM    6  H   UNL     1     -42.035 -51.575  11.724  1.00  0.00     0.164 HD
ENDROOT
BRANCH   1   7
HETATM    7  C   UNL     1     -41.870 -47.912  10.779  1.00  0.00     0.152 A 
HETATM    8  S   UNL     1     -43.267 -47.021  10.353  1.00  0.00    -0.064 SA
HETATM    9  C   UNL     1     -42.281 -45.644  10.074  1.00  0.00     0.078 A 
HETATM   10  C   UNL     1     -40.961 -45.942  10.360  1.00  0.00     0.017 A 
HETATM   11  N   UNL     1     -40.741 -47.254  10.759  1.00  0.00    -0.340 N 
ATOM     12  HN  UNL     1     -39.831 -47.646  11.000  1.00  0.00     0.168 HD
BRANCH  10  13
HETATM   13  C   UNL     1     -39.793 -45.014  10.267  1.00  0.00     0.053 C 
HETATM   14  C   UNL     1     -40.027 -43.717  11.026  1.00  0.00     0.011 C 
ENDBRANCH  10  13
ENDBRANCH   1   7
BRANCH   4  15
HETATM   15  C   UNL     1     -42.852 -51.622  13.700  1.00  0.00     0.104 C 
HETATM   16  C   UNL     1     -42.277 -53.028  13.894  1.00  0.00     0.036 C 
HETATM   17  C   UNL     1     -43.116 -54.152  13.300  1.00  0.00     0.105 C 
HETATM   18  C   UNL     1     -44.614 -54.001  13.361  1.00  0.00     0.219 C 
HETATM   19  O   UNL     1     -45.351 -54.974  13.195  1.00  0.00    -0.273 OA
HETATM   20  N   UNL     1     -45.074 -52.698  13.353  1.00  0.00    -0.355 N 
HETATM   21  C   UNL     1     -46.161 -52.376  12.454  1.00  0.00     0.152 C 
HETATM   22  C   UNL     1     -44.348 -51.627  14.026  1.00  0.00     0.150 C 
ENDBRANCH   4  15
TORSDOF 3
ENDMDL
MODEL 3
REMARK VINA RESULT:      -6.1      3.564      6.703
REMARK  3 active torsions:
REMARK  status: ('A' for Active; 'I' for Inactive)
REMARK    1  A    between atoms: C_2  and  C_3 
REMARK    2  A    between atoms: C_6  and  N_7 
REMARK       I    between atoms: N_7  and  C_8 
REMARK       I    between atoms: C_8  and  N_10 
REMARK    3  A    between atoms: N_10  and  C_11 
ROOT
HETATM    1  N   UNL     1     -42.053 -51.235  11.994  1.00  0.00    -0.289 N 
HETATM    2  C   UNL     1     -42.622 -50.054  12.381  1.00  0.00     0.322 C 
HETATM    3  O   UNL     1     -43.182 -49.821  13.443  1.00  0.00    -0.247 OA
HETATM    4  N   UNL     1     -42.515 -49.071  11.396  1.00  0.00    -0.337 N 
HETATM    5  H   UNL     1     -41.538 -51.305  11.137  1.00  0.00     0.172 HD
HETATM    6  H   UNL     1     -42.305 -49.364  10.455  1.00  0.00     0.164 HD
ENDROOT
BRANCH   1   7
HETATM    7  C   UNL     1     -42.179 -52.380  12.740  1.00  0.00     0.152 A 
HETATM    8  S   UNL     1     -40.702 -53.200  13.007  1.00  0.00    -0.064 SA
HETATM    9  C   UNL     1     -41.562 -54.445  13.818  1.00  0.00     0.078 A 
HETATM   10  C   UNL     1     -42.909 -54.136  13.866  1.00  0.00     0.017 A 
HETATM   11  N   UNL     1     -43.248 -52.947  13.235  1.00  0.00    -0.340 N 
ATOM     12  HN  UNL     1     -44.194 -52.570  13.167  1.00  0.00     0.168 HD
BRANCH  10  13
HETATM   13  C   UNL     1     -43.993 -54.947  14.499  1.00  0.00     0.053 C 
HETATM   14  C   UNL     1     -45.308 -54.838  13.743  1.00  0.00     0.011 C 
ENDBRANCH  10  13
ENDBRANCH   1   7
BRANCH   4  15
HETATM   15  C   UNL     1     -43.236 -47.815  11.599  1.00  0.00     0.104 C 
HETATM   16  C   UNL     1     -43.696 -47.143  10.302  1.00  0.00     0.036 C 
HETATM   17  C   UNL     1     -42.625 -46.328   9.587  1.00  0.00     0.105 C 
HETATM   18  C   UNL     1     -41.642 -45.576  10.447  1.00  0.00     0.219 C 
HETATM   19  O   UNL     1     -40.959 -44.667   9.974  1.00  0.00    -0.273 OA
HETATM   20  N   UNL     1     -41.390 -46.141  11.683  1.00  0.00    -0.355 N 
HETATM   21  C   UNL     1     -40.009 -46.262  12.097  1.00  0.00     0.152 C 
HETATM   22  C   UNL     1     -42.436 -46.817  12.441  1.00  0.00     0.150 C 
ENDBRANCH   4  15
TORSDOF 3
ENDMDL
MODEL 4
REMARK VINA RESULT:      -5.8      3.948      5.159
REMARK  3 active torsions:
REMARK  status: ('A' for Active; 'I' for Inactive)
REMARK    1  A    between atoms: C_2  and  C_3 
REMARK    2  A    between atoms: C_6  and  N_7 
REMARK       I    between atoms: N_7  and  C_8 
REMARK       I    between atoms: C_8  and  N_10 
REMARK    3  A    between atoms: N_10  and  C_11 
ROOT
HETATM    1  N   UNL     1     -43.694 -48.930  11.809  1.00  0.00    -0.289 N 
HETATM    2  C   UNL     1     -43.256 -49.679  12.865  1.00  0.00     0.322 C 
HETATM    3  O   UNL     1     -42.458 -49.337  13.726  1.00  0.00    -0.247 OA
HETATM    4  N   UNL     1     -43.823 -50.954  12.878  1.00  0.00    -0.337 N 
HETATM    5  H   UNL     1     -44.418 -49.266  11.202  1.00  0.00     0.172 HD
HETATM    6  H   UNL     1     -44.246 -51.293  12.028  1.00  0.00     0.164 HD
ENDROOT
BRANCH   1   7
HETATM    7  C   UNL     1     -43.151 -47.705  11.512  1.00  0.00     0.152 A 
HETATM    8  S   UNL     1     -42.239 -47.681  10.066  1.00  0.00    -0.064 SA
HETATM    9  C   UNL     1     -41.828 -46.043  10.374  1.00  0.00     0.078 A 
HETATM   10  C   UNL     1     -42.444 -45.612  11.534  1.00  0.00     0.017 A 
HETATM   11  N   UNL     1     -43.196 -46.583  12.181  1.00  0.00    -0.340 N 
ATOM     12  HN  UNL     1     -43.710 -46.441  13.051  1.00  0.00     0.168 HD
BRANCH  10  13
HETATM   13  C   UNL     1     -42.360 -44.248  12.139  1.00  0.00     0.053 C 
HETATM   14  C   UNL     1     -42.808 -43.162  11.173  1.00  0.00     0.011 C 
ENDBRANCH  10  13
ENDBRANCH   1   7
BRANCH   4  15
HETATM   15  C   UNL     1     -43.310 -51.923  13.845  1.00  0.00     0.104 C 
HETATM   16  C   UNL     1     -42.794 -53.220  13.214  1.00  0.00     0.036 C 
HETATM   17  C   UNL     1     -43.872 -54.241  12.874  1.00  0.00     0.105 C 
HETATM   18  C   UNL     1     -45.045 -54.345  13.815  1.00  0.00     0.219 C 
HETATM   19  O   UNL     1     -45.784 -55.330  13.792  1.00  0.00    -0.273 OA
HETATM   20  N   UNL     1     -45.363 -53.181  14.488  1.00  0.00    -0.355 N 
HETATM   21  C   UNL     1     -46.754 -52.785  14.523  1.00  0.00     0.152 C 
HETATM   22  C   UNL     1     -44.333 -52.251  14.935  1.00  0.00     0.150 C 
ENDBRANCH   4  15
TORSDOF 3
ENDMDL
MODEL 5
REMARK VINA RESULT:      -5.7      3.756      7.064
REMARK  3 active torsions:
REMARK  status: ('A' for Active; 'I' for Inactive)
REMARK    1  A    between atoms: C_2  and  C_3 
REMARK    2  A    between atoms: C_6  and  N_7 
REMARK       I    between atoms: N_7  and  C_8 
REMARK       I    between atoms: C_8  and  N_10 
REMARK    3  A    between atoms: N_10  and  C_11 
ROOT
HETATM    1  N   UNL     1     -44.381 -50.938  12.979  1.00  0.00    -0.289 N 
HETATM    2  C   UNL     1     -43.165 -50.443  12.599  1.00  0.00     0.322 C 
HETATM    3  O   UNL     1     -42.091 -51.028  12.634  1.00  0.00    -0.247 OA
HETATM    4  N   UNL     1     -43.250 -49.126  12.149  1.00  0.00    -0.337 N 
HETATM    5  H   UNL     1     -45.222 -50.412  12.832  1.00  0.00     0.172 HD
HETATM    6  H   UNL     1     -44.073 -48.595  12.388  1.00  0.00     0.164 HD
ENDROOT
BRANCH   1   7
HETATM    7  C   UNL     1     -44.509 -52.156  13.599  1.00  0.00     0.152 A 
HETATM    8  S   UNL     1     -46.107 -52.524  14.084  1.00  0.00    -0.064 SA
HETATM    9  C   UNL     1     -45.535 -53.976  14.801  1.00  0.00     0.078 A 
HETATM   10  C   UNL     1     -44.174 -54.102  14.590  1.00  0.00     0.017 A 
HETATM   11  N   UNL     1     -43.598 -53.043  13.902  1.00  0.00    -0.340 N 
ATOM     12  HN  UNL     1     -42.608 -52.968  13.668  1.00  0.00     0.168 HD
BRANCH  10  13
HETATM   13  C   UNL     1     -43.300 -55.230  15.035  1.00  0.00     0.053 C 
HETATM   14  C   UNL     1     -41.867 -54.783  15.280  1.00  0.00     0.011 C 
ENDBRANCH  10  13
ENDBRANCH   1   7
BRANCH   4  15
HETATM   15  C   UNL     1     -42.003 -48.410  11.881  1.00  0.00     0.104 C 
HETATM   16  C   UNL     1     -41.899 -47.054  12.586  1.00  0.00     0.036 C 
HETATM   17  C   UNL     1     -42.620 -45.910  11.885  1.00  0.00     0.105 C 
HETATM   18  C   UNL     1     -42.614 -45.911  10.378  1.00  0.00     0.219 C 
HETATM   19  O   UNL     1     -42.892 -44.890   9.748  1.00  0.00    -0.273 OA
HETATM   20  N   UNL     1     -42.537 -47.160   9.792  1.00  0.00    -0.355 N 
HETATM   21  C   UNL     1     -43.453 -47.452   8.711  1.00  0.00     0.152 C 
HETATM   22  C   UNL     1     -41.746 -48.234  10.382  1.00  0.00     0.150 C 
ENDBRANCH   4  15
TORSDOF 3
ENDMDL
MODEL 6
REMARK VINA RESULT:      -5.6      2.119      2.967
REMARK  3 active torsions:
REMARK  status: ('A' for Active; 'I' for Inactive)
REMARK    1  A    between atoms: C_2  and  C_3 
REMARK    2  A    between atoms: C_6  and  N_7 
REMARK       I    between atoms: N_7  and  C_8 
REMARK       I    between atoms: C_8  and  N_10 
REMARK    3  A    between atoms: N_10  and  C_11 
ROOT
HETATM    1  N   UNL     1     -42.303 -49.026  12.227  1.00  0.00    -0.289 N 
HETATM    2  C   UNL     1     -41.324 -49.939  11.955  1.00  0.00     0.322 C 
HETATM    3  O   UNL     1     -40.659 -50.020  10.932  1.00  0.00    -0.247 OA
HETATM    4  N   UNL     1     -41.138 -50.841  13.004  1.00  0.00    -0.337 N 
HETATM    5  H   UNL     1     -42.735 -48.985  13.131  1.00  0.00     0.172 HD
HETATM    6  H   UNL     1     -41.868 -50.921  13.695  1.00  0.00     0.164 HD
ENDROOT
BRANCH   1   7
HETATM    7  C   UNL     1     -42.760 -48.146  11.279  1.00  0.00     0.152 A 
HETATM    8  S   UNL     1     -41.699 -46.839  10.976  1.00  0.00    -0.064 SA
HETATM    9  C   UNL     1     -42.853 -46.177   9.891  1.00  0.00     0.078 A 
HETATM   10  C   UNL     1     -43.950 -47.013   9.801  1.00  0.00     0.017 A 
HETATM   11  N   UNL     1     -43.884 -48.139  10.611  1.00  0.00    -0.340 N 
ATOM     12  HN  UNL     1     -44.607 -48.856  10.676  1.00  0.00     0.168 HD
BRANCH  10  13
HETATM   13  C   UNL     1     -45.164 -46.810   8.953  1.00  0.00     0.053 C 
HETATM   14  C   UNL     1     -46.110 -48.000   9.010  1.00  0.00     0.011 C 
ENDBRANCH  10  13
ENDBRANCH   1   7
BRANCH   4  15
HETATM   15  C   UNL     1     -40.251 -51.981  12.780  1.00  0.00     0.104 C 
HETATM   16  C   UNL     1     -40.972 -53.252  12.320  1.00  0.00     0.036 C 
HETATM   17  C   UNL     1     -41.615 -54.065  13.437  1.00  0.00     0.105 C 
HETATM   18  C   UNL     1     -40.888 -54.118  14.756  1.00  0.00     0.219 C 
HETATM   19  O   UNL     1     -41.163 -54.981  15.591  1.00  0.00    -0.273 OA
HETATM   20  N   UNL     1     -40.114 -53.011  15.046  1.00  0.00    -0.355 N 
HETATM   21  C   UNL     1     -40.236 -52.433  16.367  1.00  0.00     0.152 C 
HETATM   22  C   UNL     1     -39.387 -52.293  14.005  1.00  0.00     0.150 C 
ENDBRANCH   4  15
TORSDOF 3
ENDMDL
MODEL 7
REMARK VINA RESULT:      -5.5      4.933      7.892
REMARK  3 active torsions:
REMARK  status: ('A' for Active; 'I' for Inactive)
REMARK    1  A    between atoms: C_2  and  C_3 
REMARK    2  A    between atoms: C_6  and  N_7 
REMARK       I    between atoms: N_7  and  C_8 
REMARK       I    between atoms: C_8  and  N_10 
REMARK    3  A    between atoms: N_10  and  C_11 
ROOT
HETATM    1  N   UNL     1     -41.483 -51.734  14.667  1.00  0.00    -0.289 N 
HETATM    2  C   UNL     1     -42.514 -52.382  14.048  1.00  0.00     0.322 C 
HETATM    3  O   UNL     1     -42.523 -52.828  12.909  1.00  0.00    -0.247 OA
HETATM    4  N   UNL     1     -43.637 -52.493  14.869  1.00  0.00    -0.337 N 
HETATM    5  H   UNL     1     -41.539 -51.482  15.636  1.00  0.00     0.172 HD
HETATM    6  H   UNL     1     -43.696 -51.889  15.674  1.00  0.00     0.164 HD
ENDROOT
BRANCH   1   7
HETATM    7  C   UNL     1     -40.341 -51.378  13.996  1.00  0.00     0.152 A 
HETATM    8  S   UNL     1     -38.912 -52.058  14.645  1.00  0.00    -0.064 SA
HETATM    9  C   UNL     1     -37.992 -51.179  13.493  1.00  0.00     0.078 A 
HETATM   10  C   UNL     1     -38.834 -50.457  12.667  1.00  0.00     0.017 A 
HETATM   11  N   UNL     1     -40.183 -50.578  12.974  1.00  0.00    -0.340 N 
ATOM     12  HN  UNL     1     -40.940 -50.110  12.475  1.00  0.00     0.168 HD
BRANCH  10  13
HETATM   13  C   UNL     1     -38.434 -49.579  11.526  1.00  0.00     0.053 C 
HETATM   14  C   UNL     1     -37.163 -50.064  10.846  1.00  0.00     0.011 C 
ENDBRANCH  10  13
ENDBRANCH   1   7
BRANCH   4  15
HETATM   15  C   UNL     1     -44.874 -53.001  14.277  1.00  0.00     0.104 C 
HETATM   16  C   UNL     1     -45.803 -51.908  13.740  1.00  0.00     0.036 C 
HETATM   17  C   UNL     1     -46.672 -51.231  14.793  1.00  0.00     0.105 C 
HETATM   18  C   UNL     1     -47.188 -52.091  15.918  1.00  0.00     0.219 C 
HETATM   19  O   UNL     1     -48.127 -51.711  16.619  1.00  0.00    -0.273 OA
HETATM   20  N   UNL     1     -46.388 -53.166  16.250  1.00  0.00    -0.355 N 
HETATM   21  C   UNL     1     -46.109 -53.387  17.652  1.00  0.00     0.152 C 
HETATM   22  C   UNL     1     -45.646 -53.909  15.238  1.00  0.00     0.150 C 
ENDBRANCH   4  15
TORSDOF 3
ENDMDL
MODEL 8
REMARK VINA RESULT:      -5.5      3.175      4.668
REMARK  3 active torsions:
REMARK  status: ('A' for Active; 'I' for Inactive)
REMARK    1  A    between atoms: C_2  and  C_3 
REMARK    2  A    between atoms: C_6  and  N_7 
REMARK       I    between atoms: N_7  and  C_8 
REMARK       I    between atoms: C_8  and  N_10 
REMARK    3  A    between atoms: N_10  and  C_11 
ROOT
HETATM    1  N   UNL     1     -42.372 -49.969  12.701  1.00  0.00    -0.289 N 
HETATM    2  C   UNL     1     -41.939 -51.241  12.452  1.00  0.00     0.322 C 
HETATM    3  O   UNL     1     -41.271 -51.616  11.499  1.00  0.00    -0.247 OA
HETATM    4  N   UNL     1     -42.358 -52.142  13.432  1.00  0.00    -0.337 N 
HETATM    5  H   UNL     1     -42.842 -49.741  13.557  1.00  0.00     0.172 HD
HETATM    6  H   UNL     1     -43.118 -51.866  14.035  1.00  0.00     0.164 HD
ENDROOT
BRANCH   1   7
HETATM    7  C   UNL     1     -42.209 -48.955  11.792  1.00  0.00     0.152 A 
HETATM    8  S   UNL     1     -40.778 -48.046  12.013  1.00  0.00    -0.064 SA
HETATM    9  C   UNL     1     -41.259 -47.010  10.731  1.00  0.00     0.078 A 
HETATM   10  C   UNL     1     -42.456 -47.447  10.195  1.00  0.00     0.017 A 
HETATM   11  N   UNL     1     -42.993 -48.564  10.821  1.00  0.00    -0.340 N 
ATOM     12  HN  UNL     1     -43.871 -49.014  10.561  1.00  0.00     0.168 HD
BRANCH  10  13
HETATM   13  C   UNL     1     -43.203 -46.836   9.053  1.00  0.00     0.053 C 
HETATM   14  C   UNL     1     -44.699 -47.094   9.142  1.00  0.00     0.011 C 
ENDBRANCH  10  13
ENDBRANCH   1   7
BRANCH   4  15
HETATM   15  C   UNL     1     -42.123 -53.567  13.201  1.00  0.00     0.104 C 
HETATM   16  C   UNL     1     -43.392 -54.423  13.245  1.00  0.00     0.036 C 
HETATM   17  C   UNL     1     -43.862 -54.803  14.643  1.00  0.00     0.105 C 
HETATM   18  C   UNL     1     -42.799 -55.082  15.675  1.00  0.00     0.219 C 
HETATM   19  O   UNL     1     -43.075 -55.685  16.714  1.00  0.00    -0.273 OA
HETATM   20  N   UNL     1     -41.609 -54.406  15.491  1.00  0.00    -0.355 N 
HETATM   21  C   UNL     1     -41.024 -53.750  16.640  1.00  0.00     0.152 C 
HETATM   22  C   UNL     1     -41.077 -54.144  14.158  1.00  0.00     0.150 C 
ENDBRANCH   4  15
TORSDOF 3
ENDMDL
MODEL 9
REMARK VINA RESULT:      -5.4      4.010      5.924
REMARK  3 active torsions:
REMARK  status: ('A' for Active; 'I' for Inactive)
REMARK    1  A    between atoms: C_2  and  C_3 
REMARK    2  A    between atoms: C_6  and  N_7 
REMARK       I    between atoms: N_7  and  C_8 
REMARK       I    between atoms: C_8  and  N_10 
REMARK    3  A    between atoms: N_10  and  C_11 
ROOT
HETATM    1  N   UNL     1     -43.140 -49.311  12.958  1.00  0.00    -0.289 N 
HETATM    2  C   UNL     1     -41.890 -49.189  12.419  1.00  0.00     0.322 C 
HETATM    3  O   UNL     1     -41.146 -50.097  12.076  1.00  0.00    -0.247 OA
HETATM    4  N   UNL     1     -41.498 -47.856  12.293  1.00  0.00    -0.337 N 
HETATM    5  H   UNL     1     -43.710 -48.504  13.128  1.00  0.00     0.172 HD
HETATM    6  H   UNL     1     -41.999 -47.162  12.826  1.00  0.00     0.164 HD
ENDROOT
BRANCH   1   7
HETATM    7  C   UNL     1     -43.661 -50.528  13.316  1.00  0.00     0.152 A 
HETATM    8  S   UNL     1     -44.177 -50.612  14.944  1.00  0.00    -0.064 SA
HETATM    9  C   UNL     1     -44.560 -52.270  14.718  1.00  0.00     0.078 A 
HETATM   10  C   UNL     1     -44.307 -52.640  13.411  1.00  0.00     0.017 A 
HETATM   11  N   UNL     1     -43.783 -51.627  12.618  1.00  0.00    -0.340 N 
ATOM     12  HN  UNL     1     -43.531 -51.726  11.634  1.00  0.00     0.168 HD
BRANCH  10  13
HETATM   13  C   UNL     1     -44.524 -53.988  12.802  1.00  0.00     0.053 C 
HETATM   14  C   UNL     1     -45.165 -54.962  13.778  1.00  0.00     0.011 C 
ENDBRANCH  10  13
ENDBRANCH   1   7
BRANCH   4  15
HETATM   15  C   UNL     1     -40.116 -47.580  11.900  1.00  0.00     0.104 C 
HETATM   16  C   UNL     1     -39.146 -47.457  13.079  1.00  0.00     0.036 C 
HETATM   17  C   UNL     1     -39.143 -46.099  13.769  1.00  0.00     0.105 C 
HETATM   18  C   UNL     1     -39.337 -44.883  12.899  1.00  0.00     0.219 C 
HETATM   19  O   UNL     1     -39.042 -43.761  13.313  1.00  0.00    -0.273 OA
HETATM   20  N   UNL     1     -40.083 -45.092  11.755  1.00  0.00    -0.355 N 
HETATM   21  C   UNL     1     -41.129 -44.139  11.453  1.00  0.00     0.152 C 
HETATM   22  C   UNL     1     -40.003 -46.341  11.008  1.00  0.00     0.150 C 
ENDBRANCH   4  15
TORSDOF 3
ENDMDL
