MODEL 1
REMARK VINA RESULT:      -6.3      0.000      0.000
REMARK  5 active torsions:
REMARK  status: ('A' for Active; 'I' for Inactive)
REMARK       I    between atoms: N_2  and  C_4 
REMARK    1  A    between atoms: C_4  and  C_6 
REMARK    2  A    between atoms: C_6  and  C_7 
REMARK       I    between atoms: N_10  and  C_13 
REMARK       I    between atoms: C_13  and  N_15 
REMARK    3  A    between atoms: N_15  and  C_16 
REMARK    4  A    between atoms: C_16  and  C_17 
REMARK    5  A    between atoms: C_17  and  C_18 
ROOT
HETATM    1  C   UNL     1     -40.130 -47.026  11.158  1.00  0.00    -0.003 C 
HETATM    2  C   UNL     1     -41.380 -47.742  10.613  1.00  0.00     0.025 C 
HETATM    3  C   UNL     1     -42.160 -48.508  11.684  1.00  0.00     0.128 C 
HETATM    4  N   UNL     1     -41.284 -49.394  12.457  1.00  0.00    -0.334 N 
HETATM    5  C   UNL     1     -40.093 -48.761  13.017  1.00  0.00     0.128 C 
HETATM    6  C   UNL     1     -39.282 -48.058  11.929  1.00  0.00     0.025 C 
HETATM    7  C   UNL     1     -41.473 -50.741  12.707  1.00  0.00     0.318 C 
HETATM    8  O   UNL     1     -40.661 -51.422  13.328  1.00  0.00    -0.247 OA
HETATM    9  N   UNL     1     -42.620 -51.295  12.206  1.00  0.00    -0.343 N 
HETATM   10  H   UNL     1     -43.421 -50.688  12.147  1.00  0.00     0.164 HD
ENDROOT
BRANCH   9  11
HETATM   11  C   UNL     1     -42.886 -52.703  12.452  1.00  0.00     0.129 C 
BRANCH  11  12
HETATM   12  C   UNL     1     -44.343 -53.099  12.195  1.00  0.00     0.059 C 
BRANCH  12  13
HETATM   13  C   UNL     1     -45.339 -52.847  13.310  1.00  0.00    -0.048 A 
HETATM   14  C   UNL     1     -45.818 -51.559  13.576  1.00  0.00     0.024 A 
HETATM   15  C   UNL     1     -46.756 -51.372  14.579  1.00  0.00     0.088 A 
HETATM   16  N   UNL     1     -47.259 -52.369  15.329  1.00  0.00    -0.375 N 
HETATM   17  C   UNL     1     -46.807 -53.614  15.051  1.00  0.00     0.094 A 
ATOM     18  HN  UNL     1     -47.942 -52.196  16.067  1.00  0.00     0.164 HD
HETATM   19  C   UNL     1     -45.867 -53.911  14.067  1.00  0.00    -0.040 A 
HETATM   20  C   UNL     1     -45.450 -55.340  13.856  1.00  0.00     0.050 C 
ENDBRANCH  12  13
ENDBRANCH  11  12
ENDBRANCH   9  11
BRANCH   1  21
HETATM   21  C   UNL     1     -40.409 -45.814  12.070  1.00  0.00     0.107 C 
BRANCH  21  22
HETATM   22  C   UNL     1     -41.034 -44.590  11.410  1.00  0.00     0.219 C 
HETATM   23  N   UNL     1     -42.126 -44.036  12.086  1.00  0.00    -0.361 N 
HETATM   24  C   UNL     1     -42.845 -42.960  11.429  1.00  0.00     0.152 C 
HETATM   25  C   UNL     1     -42.710 -44.617  13.286  1.00  0.00     0.152 C 
HETATM   26  O   UNL     1     -40.619 -44.134  10.347  1.00  0.00    -0.273 OA
ENDBRANCH  21  22
ENDBRANCH   1  21
TORSDOF 5
ENDMDL
MODEL 2
REMARK VINA RESULT:      -6.3      1.476      2.193
REMARK  5 active torsions:
REMARK  status: ('A' for Active; 'I' for Inactive)
REMARK       I    between atoms: N_2  and  C_4 
REMARK    1  A    between atoms: C_4  and  C_6 
REMARK    2  A    between atoms: C_6  and  C_7 
REMARK       I    between atoms: N_10  and  C_13 
REMARK       I    between atoms: C_13  and  N_15 
REMARK    3  A    between atoms: N_15  and  C_16 
REMARK    4  A    between atoms: C_16  and  C_17 
REMARK    5  A    between atoms: C_17  and  C_18 
ROOT
HETATM    1  C   UNL     1     -41.773 -46.010  10.569  1.00  0.00    -0.003 C 
HETATM    2  C   UNL     1     -42.861 -47.076  10.343  1.00  0.00     0.025 C 
HETATM    3  C   UNL     1     -43.086 -47.984  11.554  1.00  0.00     0.128 C 
HETATM    4  N   UNL     1     -41.826 -48.548  12.046  1.00  0.00    -0.334 N 
HETATM    5  C   UNL     1     -40.764 -47.578  12.299  1.00  0.00     0.128 C 
HETATM    6  C   UNL     1     -40.497 -46.721  11.061  1.00  0.00     0.025 C 
HETATM    7  C   UNL     1     -41.550 -49.881  12.293  1.00  0.00     0.318 C 
HETATM    8  O   UNL     1     -40.445 -50.273  12.661  1.00  0.00    -0.247 OA
HETATM    9  N   UNL     1     -42.577 -50.761  12.088  1.00  0.00    -0.343 N 
HETATM   10  H   UNL     1     -43.506 -50.411  12.257  1.00  0.00     0.164 HD
ENDROOT
BRANCH   9  11
HETATM   11  C   UNL     1     -42.356 -52.173  12.349  1.00  0.00     0.129 C 
BRANCH  11  12
HETATM   12  C   UNL     1     -42.772 -52.603  13.758  1.00  0.00     0.059 C 
BRANCH  12  13
HETATM   13  C   UNL     1     -44.131 -53.259  13.913  1.00  0.00    -0.048 A 
HETATM   14  C   UNL     1     -44.304 -54.628  13.679  1.00  0.00     0.024 A 
HETATM   15  C   UNL     1     -45.552 -55.201  13.867  1.00  0.00     0.088 A 
HETATM   16  N   UNL     1     -46.636 -54.517  14.275  1.00  0.00    -0.375 N 
HETATM   17  C   UNL     1     -46.454 -53.198  14.520  1.00  0.00     0.094 A 
ATOM     18  HN  UNL     1     -47.544 -54.967  14.394  1.00  0.00     0.164 HD
HETATM   19  C   UNL     1     -45.244 -52.526  14.364  1.00  0.00    -0.040 A 
HETATM   20  C   UNL     1     -45.175 -51.056  14.672  1.00  0.00     0.050 C 
ENDBRANCH  12  13
ENDBRANCH  11  12
ENDBRANCH   9  11
BRANCH   1  21
HETATM   21  C   UNL     1     -42.145 -44.889  11.560  1.00  0.00     0.107 C 
BRANCH  21  22
HETATM   22  C   UNL     1     -42.477 -43.527  10.962  1.00  0.00     0.219 C 
HETATM   23  N   UNL     1     -41.657 -42.473  11.378  1.00  0.00    -0.361 N 
HETATM   24  C   UNL     1     -42.018 -41.133  10.951  1.00  0.00     0.152 C 
HETATM   25  C   UNL     1     -40.613 -42.613  12.383  1.00  0.00     0.152 C 
HETATM   26  O   UNL     1     -43.413 -43.363  10.183  1.00  0.00    -0.273 OA
ENDBRANCH  21  22
ENDBRANCH   1  21
TORSDOF 5
ENDMDL
MODEL 3
REMARK VINA RESULT:      -6.2      3.872      5.490
REMARK  5 active torsions:
REMARK  status: ('A' for Active; 'I' for Inactive)
REMARK       I    between atoms: N_2  and  C_4 
REMARK    1  A    between atoms: C_4  and  C_6 
REMARK    2  A    between atoms: C_6  and  C_7 
REMARK       I    between atoms: N_10  and  C_13 
REMARK       I    between atoms: C_13  and  N_15 
REMARK    3  A    between atoms: N_15  and  C_16 
REMARK    4  A    between atoms: C_16  and  C_17 
REMARK    5  A    between atoms: C_17  and  C_18 
ROOT
HETATM    1  C   UNL     1     -39.414 -53.656  13.627  1.00  0.00    -0.003 C 
HETATM    2  C   UNL     1     -40.606 -53.548  12.658  1.00  0.00     0.025 C 
HETATM    3  C   UNL     1     -41.919 -53.167  13.346  1.00  0.00     0.128 C 
HETATM    4  N   UNL     1     -42.194 -54.030  14.497  1.00  0.00    -0.334 N 
HETATM    5  C   UNL     1     -41.105 -54.151  15.462  1.00  0.00     0.128 C 
HETATM    6  C   UNL     1     -39.813 -54.601  14.778  1.00  0.00     0.025 C 
HETATM    7  C   UNL     1     -43.362 -54.725  14.757  1.00  0.00     0.318 C 
HETATM    8  O   UNL     1     -43.491 -55.468  15.728  1.00  0.00    -0.247 OA
HETATM    9  N   UNL     1     -44.380 -54.557  13.858  1.00  0.00    -0.343 N 
HETATM   10  H   UNL     1     -44.431 -53.661  13.403  1.00  0.00     0.164 HD
ENDROOT
BRANCH   9  11
HETATM   11  C   UNL     1     -45.640 -55.245  14.086  1.00  0.00     0.129 C 
BRANCH  11  12
HETATM   12  C   UNL     1     -46.752 -54.322  14.591  1.00  0.00     0.059 C 
BRANCH  12  13
HETATM   13  C   UNL     1     -46.349 -53.185  15.510  1.00  0.00    -0.048 A 
HETATM   14  C   UNL     1     -46.060 -53.412  16.861  1.00  0.00     0.024 A 
HETATM   15  C   UNL     1     -45.658 -52.355  17.662  1.00  0.00     0.088 A 
HETATM   16  N   UNL     1     -45.514 -51.094  17.219  1.00  0.00    -0.375 N 
HETATM   17  C   UNL     1     -45.774 -50.886  15.906  1.00  0.00     0.094 A 
ATOM     18  HN  UNL     1     -45.226 -50.335  17.837  1.00  0.00     0.164 HD
HETATM   19  C   UNL     1     -46.183 -51.877  15.017  1.00  0.00    -0.040 A 
HETATM   20  C   UNL     1     -46.437 -51.514  13.580  1.00  0.00     0.050 C 
ENDBRANCH  12  13
ENDBRANCH  11  12
ENDBRANCH   9  11
BRANCH   1  21
HETATM   21  C   UNL     1     -38.920 -52.319  14.216  1.00  0.00     0.107 C 
BRANCH  21  22
HETATM   22  C   UNL     1     -38.193 -51.378  13.263  1.00  0.00     0.219 C 
HETATM   23  N   UNL     1     -38.825 -50.153  13.030  1.00  0.00    -0.361 N 
HETATM   24  C   UNL     1     -38.250 -49.281  12.021  1.00  0.00     0.152 C 
HETATM   25  C   UNL     1     -40.133 -49.807  13.568  1.00  0.00     0.152 C 
HETATM   26  O   UNL     1     -37.133 -51.683  12.720  1.00  0.00    -0.273 OA
ENDBRANCH  21  22
ENDBRANCH   1  21
TORSDOF 5
ENDMDL
MODEL 4
REMARK VINA RESULT:      -6.1      4.866      8.006
REMARK  5 active torsions:
REMARK  status: ('A' for Active; 'I' for Inactive)
REMARK       I    between atoms: N_2  and  C_4 
REMARK    1  A    between atoms: C_4  and  C_6 
REMARK    2  A    between atoms: C_6  and  C_7 
REMARK       I    between atoms: N_10  and  C_13 
REMARK       I    between atoms: C_13  and  N_15 
REMARK    3  A    between atoms: N_15  and  C_16 
REMARK    4  A    between atoms: C_16  and  C_17 
REMARK    5  A    between atoms: C_17  and  C_18 
ROOT
HETATM    1  C   UNL     1     -39.656 -54.047  15.787  1.00  0.00    -0.003 C 
HETATM    2  C   UNL     1     -41.136 -54.174  16.192  1.00  0.00     0.025 C 
HETATM    3  C   UNL     1     -42.036 -54.684  15.064  1.00  0.00     0.128 C 
HETATM    4  N   UNL     1     -41.844 -53.915  13.831  1.00  0.00    -0.334 N 
HETATM    5  C   UNL     1     -40.459 -53.781  13.388  1.00  0.00     0.128 C 
HETATM    6  C   UNL     1     -39.580 -53.204  14.498  1.00  0.00     0.025 C 
HETATM    7  C   UNL     1     -42.825 -53.317  13.061  1.00  0.00     0.318 C 
HETATM    8  O   UNL     1     -42.570 -52.647  12.063  1.00  0.00    -0.247 OA
HETATM    9  N   UNL     1     -44.116 -53.496  13.478  1.00  0.00    -0.343 N 
HETATM   10  H   UNL     1     -44.318 -54.363  13.947  1.00  0.00     0.164 HD
ENDROOT
BRANCH   9  11
HETATM   11  C   UNL     1     -45.194 -52.910  12.699  1.00  0.00     0.129 C 
BRANCH  11  12
HETATM   12  C   UNL     1     -45.546 -51.482  13.128  1.00  0.00     0.059 C 
BRANCH  12  13
HETATM   13  C   UNL     1     -45.873 -51.257  14.592  1.00  0.00    -0.048 A 
HETATM   14  C   UNL     1     -47.094 -51.676  15.135  1.00  0.00     0.024 A 
HETATM   15  C   UNL     1     -47.342 -51.487  16.485  1.00  0.00     0.088 A 
HETATM   16  N   UNL     1     -46.467 -50.923  17.335  1.00  0.00    -0.375 N 
HETATM   17  C   UNL     1     -45.280 -50.541  16.807  1.00  0.00     0.094 A 
ATOM     18  HN  UNL     1     -46.685 -50.789  18.323  1.00  0.00     0.164 HD
HETATM   19  C   UNL     1     -44.930 -50.685  15.467  1.00  0.00    -0.040 A 
HETATM   20  C   UNL     1     -43.576 -50.220  15.007  1.00  0.00     0.050 C 
ENDBRANCH  12  13
ENDBRANCH  11  12
ENDBRANCH   9  11
BRANCH   1  21
HETATM   21  C   UNL     1     -38.917 -55.382  15.566  1.00  0.00     0.107 C 
BRANCH  21  22
HETATM   22  C   UNL     1     -39.038 -56.423  16.672  1.00  0.00     0.219 C 
HETATM   23  N   UNL     1     -37.985 -56.446  17.592  1.00  0.00    -0.361 N 
HETATM   24  C   UNL     1     -37.979 -57.511  18.579  1.00  0.00     0.152 C 
HETATM   25  C   UNL     1     -36.796 -55.614  17.476  1.00  0.00     0.152 C 
HETATM   26  O   UNL     1     -39.986 -57.203  16.739  1.00  0.00    -0.273 OA
ENDBRANCH  21  22
ENDBRANCH   1  21
TORSDOF 5
ENDMDL
MODEL 5
REMARK VINA RESULT:      -6.1      1.096      1.601
REMARK  5 active torsions:
REMARK  status: ('A' for Active; 'I' for Inactive)
REMARK       I    between atoms: N_2  and  C_4 
REMARK    1  A    between atoms: C_4  and  C_6 
REMARK    2  A    between atoms: C_6  and  C_7 
REMARK       I    between atoms: N_10  and  C_13 
REMARK       I    between atoms: C_13  and  N_15 
REMARK    3  A    between atoms: N_15  and  C_16 
REMARK    4  A    between atoms: C_16  and  C_17 
REMARK    5  A    between atoms: C_17  and  C_18 
ROOT
HETATM    1  C   UNL     1     -40.671 -47.245  11.077  1.00  0.00    -0.003 C 
HETATM    2  C   UNL     1     -41.897 -48.060  10.628  1.00  0.00     0.025 C 
HETATM    3  C   UNL     1     -42.520 -48.895  11.749  1.00  0.00     0.128 C 
HETATM    4  N   UNL     1     -41.513 -49.708  12.437  1.00  0.00    -0.334 N 
HETATM    5  C   UNL     1     -40.336 -48.981  12.906  1.00  0.00     0.128 C 
HETATM    6  C   UNL     1     -39.679 -48.205  11.764  1.00  0.00     0.025 C 
HETATM    7  C   UNL     1     -41.567 -51.068  12.685  1.00  0.00     0.318 C 
HETATM    8  O   UNL     1     -40.652 -51.681  13.229  1.00  0.00    -0.247 OA
HETATM    9  N   UNL     1     -42.701 -51.714  12.272  1.00  0.00    -0.343 N 
HETATM   10  H   UNL     1     -43.552 -51.176  12.286  1.00  0.00     0.164 HD
ENDROOT
BRANCH   9  11
HETATM   11  C   UNL     1     -42.827 -53.140  12.521  1.00  0.00     0.129 C 
BRANCH  11  12
HETATM   12  C   UNL     1     -44.278 -53.631  12.513  1.00  0.00     0.059 C 
BRANCH  12  13
HETATM   13  C   UNL     1     -45.113 -53.353  13.748  1.00  0.00    -0.048 A 
HETATM   14  C   UNL     1     -44.859 -54.010  14.958  1.00  0.00     0.024 A 
HETATM   15  C   UNL     1     -45.619 -53.703  16.076  1.00  0.00     0.088 A 
HETATM   16  N   UNL     1     -46.603 -52.787  16.083  1.00  0.00    -0.375 N 
HETATM   17  C   UNL     1     -46.828 -52.140  14.915  1.00  0.00     0.094 A 
ATOM     18  HN  UNL     1     -47.151 -52.591  16.921  1.00  0.00     0.164 HD
HETATM   19  C   UNL     1     -46.124 -52.373  13.736  1.00  0.00    -0.040 A 
HETATM   20  C   UNL     1     -46.471 -51.583  12.505  1.00  0.00     0.050 C 
ENDBRANCH  12  13
ENDBRANCH  11  12
ENDBRANCH   9  11
BRANCH   1  21
HETATM   21  C   UNL     1     -40.974 -46.066  12.024  1.00  0.00     0.107 C 
BRANCH  21  22
HETATM   22  C   UNL     1     -40.938 -44.670  11.413  1.00  0.00     0.219 C 
HETATM   23  N   UNL     1     -40.430 -43.665  12.242  1.00  0.00    -0.361 N 
HETATM   24  C   UNL     1     -40.506 -42.296  11.763  1.00  0.00     0.152 C 
HETATM   25  C   UNL     1     -40.043 -43.884  13.629  1.00  0.00     0.152 C 
HETATM   26  O   UNL     1     -41.345 -44.439  10.277  1.00  0.00    -0.273 OA
ENDBRANCH  21  22
ENDBRANCH   1  21
TORSDOF 5
ENDMDL
MODEL 6
REMARK VINA RESULT:      -6.1      2.243      3.001
REMARK  5 active torsions:
REMARK  status: ('A' for Active; 'I' for Inactive)
REMARK       I    between atoms: N_2  and  C_4 
REMARK    1  A    between atoms: C_4  and  C_6 
REMARK    2  A    between atoms: C_6  and  C_7 
REMARK       I    between atoms: N_10  and  C_13 
REMARK       I    between atoms: C_13  and  N_15 
REMARK    3  A    between atoms: N_15  and  C_16 
REMARK    4  A    between atoms: C_16  and  C_17 
REMARK    5  A    between atoms: C_17  and  C_18 
ROOT
HETATM    1  C   UNL     1     -41.958 -45.808  10.595  1.00  0.00    -0.003 C 
HETATM    2  C   UNL     1     -42.969 -46.968  10.529  1.00  0.00     0.025 C 
HETATM    3  C   UNL     1     -42.818 -47.974  11.672  1.00  0.00     0.128 C 
HETATM    4  N   UNL     1     -41.432 -48.430  11.808  1.00  0.00    -0.334 N 
HETATM    5  C   UNL     1     -40.431 -47.371  11.898  1.00  0.00     0.128 C 
HETATM    6  C   UNL     1     -40.543 -46.408  10.715  1.00  0.00     0.025 C 
HETATM    7  C   UNL     1     -40.987 -49.739  11.863  1.00  0.00     0.318 C 
HETATM    8  O   UNL     1     -39.796 -50.034  11.930  1.00  0.00    -0.247 OA
HETATM    9  N   UNL     1     -41.951 -50.709  11.820  1.00  0.00    -0.343 N 
HETATM   10  H   UNL     1     -42.840 -50.474  12.228  1.00  0.00     0.164 HD
ENDROOT
BRANCH   9  11
HETATM   11  C   UNL     1     -41.549 -52.104  11.893  1.00  0.00     0.129 C 
BRANCH  11  12
HETATM   12  C   UNL     1     -42.627 -53.017  12.484  1.00  0.00     0.059 C 
BRANCH  12  13
HETATM   13  C   UNL     1     -42.249 -53.845  13.697  1.00  0.00    -0.048 A 
HETATM   14  C   UNL     1     -40.944 -53.832  14.205  1.00  0.00     0.024 A 
HETATM   15  C   UNL     1     -40.644 -54.572  15.337  1.00  0.00     0.088 A 
HETATM   16  N   UNL     1     -41.543 -55.315  16.006  1.00  0.00    -0.375 N 
HETATM   17  C   UNL     1     -42.808 -55.304  15.522  1.00  0.00     0.094 A 
ATOM     18  HN  UNL     1     -41.287 -55.856  16.832  1.00  0.00     0.164 HD
HETATM   19  C   UNL     1     -43.214 -54.596  14.394  1.00  0.00    -0.040 A 
HETATM   20  C   UNL     1     -44.652 -54.667  13.961  1.00  0.00     0.050 C 
ENDBRANCH  12  13
ENDBRANCH  11  12
ENDBRANCH   9  11
BRANCH   1  21
HETATM   21  C   UNL     1     -42.183 -44.803  11.743  1.00  0.00     0.107 C 
BRANCH  21  22
HETATM   22  C   UNL     1     -42.817 -43.468  11.371  1.00  0.00     0.219 C 
HETATM   23  N   UNL     1     -43.060 -42.600  12.440  1.00  0.00    -0.361 N 
HETATM   24  C   UNL     1     -43.793 -41.378  12.160  1.00  0.00     0.152 C 
HETATM   25  C   UNL     1     -42.823 -42.952  13.833  1.00  0.00     0.152 C 
HETATM   26  O   UNL     1     -43.115 -43.183  10.213  1.00  0.00    -0.273 OA
ENDBRANCH  21  22
ENDBRANCH   1  21
TORSDOF 5
ENDMDL
MODEL 7
REMARK VINA RESULT:      -6.1      2.395      7.826
REMARK  5 active torsions:
REMARK  status: ('A' for Active; 'I' for Inactive)
REMARK       I    between atoms: N_2  and  C_4 
REMARK    1  A    between atoms: C_4  and  C_6 
REMARK    2  A    between atoms: C_6  and  C_7 
REMARK       I    between atoms: N_10  and  C_13 
REMARK       I    between atoms: C_13  and  N_15 
REMARK    3  A    between atoms: N_15  and  C_16 
REMARK    4  A    between atoms: C_16  and  C_17 
REMARK    5  A    between atoms: C_17  and  C_18 
ROOT
HETATM    1  C   UNL     1     -42.335 -54.128  13.857  1.00  0.00    -0.003 C 
HETATM    2  C   UNL     1     -42.116 -52.963  14.841  1.00  0.00     0.025 C 
HETATM    3  C   UNL     1     -41.808 -51.632  14.152  1.00  0.00     0.128 C 
HETATM    4  N   UNL     1     -40.723 -51.769  13.176  1.00  0.00    -0.334 N 
HETATM    5  C   UNL     1     -40.890 -52.845  12.203  1.00  0.00     0.128 C 
HETATM    6  C   UNL     1     -41.127 -54.184  12.901  1.00  0.00     0.025 C 
HETATM    7  C   UNL     1     -39.581 -50.993  13.086  1.00  0.00     0.318 C 
HETATM    8  O   UNL     1     -38.695 -51.208  12.262  1.00  0.00    -0.247 OA
HETATM    9  N   UNL     1     -39.474 -49.966  13.983  1.00  0.00    -0.343 N 
HETATM   10  H   UNL     1     -40.336 -49.540  14.281  1.00  0.00     0.164 HD
ENDROOT
BRANCH   9  11
HETATM   11  C   UNL     1     -38.307 -49.102  13.927  1.00  0.00     0.129 C 
BRANCH  11  12
HETATM   12  C   UNL     1     -38.657 -47.613  13.845  1.00  0.00     0.059 C 
BRANCH  12  13
HETATM   13  C   UNL     1     -39.858 -47.226  13.004  1.00  0.00    -0.048 A 
HETATM   14  C   UNL     1     -39.823 -47.313  11.607  1.00  0.00     0.024 A 
HETATM   15  C   UNL     1     -40.952 -46.987  10.873  1.00  0.00     0.088 A 
HETATM   16  N   UNL     1     -42.114 -46.591  11.423  1.00  0.00    -0.375 N 
HETATM   17  C   UNL     1     -42.146 -46.532  12.775  1.00  0.00     0.094 A 
ATOM     18  HN  UNL     1     -42.925 -46.349  10.853  1.00  0.00     0.164 HD
HETATM   19  C   UNL     1     -41.070 -46.837  13.605  1.00  0.00    -0.040 A 
HETATM   20  C   UNL     1     -41.238 -46.732  15.095  1.00  0.00     0.050 C 
ENDBRANCH  12  13
ENDBRANCH  11  12
ENDBRANCH   9  11
BRANCH   1  21
HETATM   21  C   UNL     1     -43.634 -54.055  13.030  1.00  0.00     0.107 C 
BRANCH  21  22
HETATM   22  C   UNL     1     -44.940 -54.269  13.786  1.00  0.00     0.219 C 
HETATM   23  N   UNL     1     -45.788 -53.159  13.846  1.00  0.00    -0.361 N 
HETATM   24  C   UNL     1     -46.976 -53.265  14.674  1.00  0.00     0.152 C 
HETATM   25  C   UNL     1     -45.437 -51.848  13.318  1.00  0.00     0.152 C 
HETATM   26  O   UNL     1     -45.220 -55.339  14.323  1.00  0.00    -0.273 OA
ENDBRANCH  21  22
ENDBRANCH   1  21
TORSDOF 5
ENDMDL
MODEL 8
REMARK VINA RESULT:      -6.1      2.938      3.306
REMARK  5 active torsions:
REMARK  status: ('A' for Active; 'I' for Inactive)
REMARK       I    between atoms: N_2  and  C_4 
REMARK    1  A    between atoms: C_4  and  C_6 
REMARK    2  A    between atoms: C_6  and  C_7 
REMARK       I    between atoms: N_10  and  C_13 
REMARK       I    between atoms: C_13  and  N_15 
REMARK    3  A    between atoms: N_15  and  C_16 
REMARK    4  A    between atoms: C_16  and  C_17 
REMARK    5  A    between atoms: C_17  and  C_18 
ROOT
HETATM    1  C   UNL     1     -38.123 -48.918  12.851  1.00  0.00    -0.003 C 
HETATM    2  C   UNL     1     -39.659 -48.912  12.739  1.00  0.00     0.025 C 
HETATM    3  C   UNL     1     -40.342 -49.938  13.646  1.00  0.00     0.128 C 
HETATM    4  N   UNL     1     -39.761 -51.273  13.481  1.00  0.00    -0.334 N 
HETATM    5  C   UNL     1     -38.307 -51.341  13.602  1.00  0.00     0.128 C 
HETATM    6  C   UNL     1     -37.630 -50.363  12.641  1.00  0.00     0.025 C 
HETATM    7  C   UNL     1     -40.440 -52.452  13.232  1.00  0.00     0.318 C 
HETATM    8  O   UNL     1     -39.867 -53.526  13.059  1.00  0.00    -0.247 OA
HETATM    9  N   UNL     1     -41.804 -52.364  13.168  1.00  0.00    -0.343 N 
HETATM   10  H   UNL     1     -42.234 -51.661  13.745  1.00  0.00     0.164 HD
ENDROOT
BRANCH   9  11
HETATM   11  C   UNL     1     -42.576 -53.572  12.928  1.00  0.00     0.129 C 
BRANCH  11  12
HETATM   12  C   UNL     1     -43.970 -53.298  12.357  1.00  0.00     0.059 C 
BRANCH  12  13
HETATM   13  C   UNL     1     -45.064 -52.930  13.341  1.00  0.00    -0.048 A 
HETATM   14  C   UNL     1     -45.417 -51.593  13.565  1.00  0.00     0.024 A 
HETATM   15  C   UNL     1     -46.447 -51.296  14.442  1.00  0.00     0.088 A 
HETATM   16  N   UNL     1     -47.157 -52.226  15.106  1.00  0.00    -0.375 N 
HETATM   17  C   UNL     1     -46.824 -53.516  14.867  1.00  0.00     0.094 A 
ATOM     18  HN  UNL     1     -47.904 -51.973  15.754  1.00  0.00     0.164 HD
HETATM   19  C   UNL     1     -45.808 -53.923  14.005  1.00  0.00    -0.040 A 
HETATM   20  C   UNL     1     -45.540 -55.391  13.826  1.00  0.00     0.050 C 
ENDBRANCH  12  13
ENDBRANCH  11  12
ENDBRANCH   9  11
BRANCH   1  21
HETATM   21  C   UNL     1     -37.559 -48.377  14.181  1.00  0.00     0.107 C 
BRANCH  21  22
HETATM   22  C   UNL     1     -38.216 -47.123  14.745  1.00  0.00     0.219 C 
HETATM   23  N   UNL     1     -38.791 -47.264  16.012  1.00  0.00    -0.361 N 
HETATM   24  C   UNL     1     -39.554 -46.144  16.532  1.00  0.00     0.152 C 
HETATM   25  C   UNL     1     -38.858 -48.530  16.729  1.00  0.00     0.152 C 
HETATM   26  O   UNL     1     -38.257 -46.066  14.120  1.00  0.00    -0.273 OA
ENDBRANCH  21  22
ENDBRANCH   1  21
TORSDOF 5
ENDMDL
MODEL 9
REMARK VINA RESULT:      -6.0      1.685      2.283
REMARK  5 active torsions:
REMARK  status: ('A' for Active; 'I' for Inactive)
REMARK       I    between atoms: N_2  and  C_4 
REMARK    1  A    between atoms: C_4  and  C_6 
REMARK    2  A    between atoms: C_6  and  C_7 
REMARK       I    between atoms: N_10  and  C_13 
REMARK       I    between atoms: C_13  and  N_15 
REMARK    3  A    between atoms: N_15  and  C_16 
REMARK    4  A    between atoms: C_16  and  C_17 
REMARK    5  A    between atoms: C_17  and  C_18 
ROOT
HETATM    1  C   UNL     1     -42.767 -47.383  11.312  1.00  0.00    -0.003 C 
HETATM    2  C   UNL     1     -43.444 -48.529  12.086  1.00  0.00     0.025 C 
HETATM    3  C   UNL     1     -42.554 -49.143  13.169  1.00  0.00     0.128 C 
HETATM    4  N   UNL     1     -41.237 -49.509  12.641  1.00  0.00    -0.334 N 
HETATM    5  C   UNL     1     -40.539 -48.451  11.916  1.00  0.00     0.128 C 
HETATM    6  C   UNL     1     -41.408 -47.891  10.790  1.00  0.00     0.025 C 
HETATM    7  C   UNL     1     -40.601 -50.731  12.762  1.00  0.00     0.318 C 
HETATM    8  O   UNL     1     -39.512 -50.968  12.244  1.00  0.00    -0.247 OA
HETATM    9  N   UNL     1     -41.261 -51.689  13.483  1.00  0.00    -0.343 N 
HETATM   10  H   UNL     1     -41.843 -51.360  14.235  1.00  0.00     0.164 HD
ENDROOT
BRANCH   9  11
HETATM   11  C   UNL     1     -40.636 -52.989  13.663  1.00  0.00     0.129 C 
BRANCH  11  12
HETATM   12  C   UNL     1     -41.482 -54.148  13.129  1.00  0.00     0.059 C 
BRANCH  12  13
HETATM   13  C   UNL     1     -42.983 -54.062  13.327  1.00  0.00    -0.048 A 
HETATM   14  C   UNL     1     -43.800 -53.408  12.396  1.00  0.00     0.024 A 
HETATM   15  C   UNL     1     -45.172 -53.381  12.590  1.00  0.00     0.088 A 
HETATM   16  N   UNL     1     -45.792 -53.962  13.632  1.00  0.00    -0.375 N 
HETATM   17  C   UNL     1     -44.997 -54.611  14.516  1.00  0.00     0.094 A 
ATOM     18  HN  UNL     1     -46.804 -53.915  13.751  1.00  0.00     0.164 HD
HETATM   19  C   UNL     1     -43.611 -54.698  14.414  1.00  0.00    -0.040 A 
HETATM   20  C   UNL     1     -42.843 -55.452  15.464  1.00  0.00     0.050 C 
ENDBRANCH  12  13
ENDBRANCH  11  12
ENDBRANCH   9  11
BRANCH   1  21
HETATM   21  C   UNL     1     -42.550 -46.084  12.115  1.00  0.00     0.107 C 
BRANCH  21  22
HETATM   22  C   UNL     1     -42.080 -44.865  11.331  1.00  0.00     0.219 C 
HETATM   23  N   UNL     1     -40.934 -44.237  11.828  1.00  0.00    -0.361 N 
HETATM   24  C   UNL     1     -40.528 -42.989  11.206  1.00  0.00     0.152 C 
HETATM   25  C   UNL     1     -40.266 -44.636  13.059  1.00  0.00     0.152 C 
HETATM   26  O   UNL     1     -42.679 -44.449  10.342  1.00  0.00    -0.273 OA
ENDBRANCH  21  22
ENDBRANCH   1  21
TORSDOF 5
ENDMDL
