MODEL 1
REMARK VINA RESULT:      -5.8      0.000      0.000
REMARK  5 active torsions:
REMARK  status: ('A' for Active; 'I' for Inactive)
REMARK    1  A    between atoms: C_2  and  C_3 
REMARK    2  A    between atoms: C_2  and  N_10 
REMARK    3  A    between atoms: C_3  and  N_4 
REMARK       I    between atoms: N_10  and  C_11 
REMARK    4  A    between atoms: C_11  and  C_13 
REMARK    5  A    between atoms: C_13  and  N_14 
ROOT
HETATM    1  N   UNL     1     -41.356 -53.480  14.390  1.00  0.00    -0.354 N 
HETATM    2  C   UNL     1     -40.422 -53.115  13.443  1.00  0.00     0.236 C 
HETATM    3  O   UNL     1     -40.460 -53.464  12.267  1.00  0.00    -0.272 OA
HETATM    4  H   UNL     1     -41.026 -53.478  15.354  1.00  0.00     0.162 HD
ENDROOT
BRANCH   1   5
HETATM    5  C   UNL     1     -42.543 -54.273  14.076  1.00  0.00     0.108 C 
HETATM    6  C   UNL     1     -42.819 -55.247  15.221  1.00  0.00     0.034 C 
BRANCH   5   7
HETATM    7  C   UNL     1     -43.791 -53.418  13.668  1.00  0.00     0.296 C 
BRANCH   7   8
HETATM    8  N   UNL     1     -43.925 -52.047  14.215  1.00  0.00     0.090 N 
HETATM    9  C   UNL     1     -44.466 -51.965  15.575  1.00  0.00     0.272 C 
HETATM   10  C   UNL     1     -45.951 -52.321  15.687  1.00  0.00     0.030 C 
HETATM   11  C   UNL     1     -46.789 -51.452  14.759  1.00  0.00     0.003 C 
HETATM   12  C   UNL     1     -46.232 -51.475  13.340  1.00  0.00     0.030 C 
HETATM   13  C   UNL     1     -44.725 -51.190  13.316  1.00  0.00     0.272 C 
ENDBRANCH   7   8
ENDBRANCH   5   7
ENDBRANCH   1   5
BRANCH   2  14
HETATM   14  C   UNL     1     -39.268 -52.289  14.015  1.00  0.00     0.234 C 
BRANCH  14  15
HETATM   15  N   UNL     1     -39.087 -51.054  13.259  1.00  0.00    -0.316 N 
HETATM   16  C   UNL     1     -40.093 -50.103  13.255  1.00  0.00     0.095 A 
HETATM   17  C   UNL     1     -39.958 -48.959  12.575  1.00  0.00     0.017 A 
HETATM   18  C   UNL     1     -38.749 -48.698  11.836  1.00  0.00     0.007 A 
HETATM   19  C   UNL     1     -37.764 -49.606  11.801  1.00  0.00     0.074 A 
HETATM   20  C   UNL     1     -37.913 -50.898  12.527  1.00  0.00     0.247 A 
HETATM   21  O   UNL     1     -37.030 -51.750  12.447  1.00  0.00    -0.268 OA
ENDBRANCH  14  15
ENDBRANCH   2  14
TORSDOF 5
ENDMDL
MODEL 2
REMARK VINA RESULT:      -5.8      2.045      6.495
REMARK  5 active torsions:
REMARK  status: ('A' for Active; 'I' for Inactive)
REMARK    1  A    between atoms: C_2  and  C_3 
REMARK    2  A    between atoms: C_2  and  N_10 
REMARK    3  A    between atoms: C_3  and  N_4 
REMARK       I    between atoms: N_10  and  C_11 
REMARK    4  A    between atoms: C_11  and  C_13 
REMARK    5  A    between atoms: C_13  and  N_14 
ROOT
HETATM    1  N   UNL     1     -41.810 -53.942  14.003  1.00  0.00    -0.354 N 
HETATM    2  C   UNL     1     -42.661 -54.017  15.087  1.00  0.00     0.236 C 
HETATM    3  O   UNL     1     -42.338 -53.732  16.236  1.00  0.00    -0.272 OA
HETATM    4  H   UNL     1     -42.043 -54.554  13.222  1.00  0.00     0.162 HD
ENDROOT
BRANCH   1   5
HETATM    5  C   UNL     1     -40.440 -53.444  14.096  1.00  0.00     0.108 C 
HETATM    6  C   UNL     1     -39.465 -54.614  13.971  1.00  0.00     0.034 C 
BRANCH   5   7
HETATM    7  C   UNL     1     -40.125 -52.260  13.118  1.00  0.00     0.296 C 
BRANCH   7   8
HETATM    8  N   UNL     1     -39.595 -50.995  13.678  1.00  0.00     0.090 N 
HETATM    9  C   UNL     1     -39.947 -49.783  12.930  1.00  0.00     0.272 C 
HETATM   10  C   UNL     1     -39.252 -49.654  11.572  1.00  0.00     0.030 C 
HETATM   11  C   UNL     1     -37.738 -49.729  11.728  1.00  0.00     0.003 C 
HETATM   12  C   UNL     1     -37.333 -50.954  12.538  1.00  0.00     0.030 C 
HETATM   13  C   UNL     1     -38.129 -51.059  13.846  1.00  0.00     0.272 C 
ENDBRANCH   7   8
ENDBRANCH   5   7
ENDBRANCH   1   5
BRANCH   2  14
HETATM   14  C   UNL     1     -44.042 -54.576  14.738  1.00  0.00     0.234 C 
BRANCH  14  15
HETATM   15  N   UNL     1     -44.974 -53.498  14.423  1.00  0.00    -0.316 N 
HETATM   16  C   UNL     1     -45.705 -52.908  15.441  1.00  0.00     0.095 A 
HETATM   17  C   UNL     1     -46.564 -51.915  15.186  1.00  0.00     0.017 A 
HETATM   18  C   UNL     1     -46.739 -51.440  13.837  1.00  0.00     0.007 A 
HETATM   19  C   UNL     1     -46.063 -52.003  12.825  1.00  0.00     0.074 A 
HETATM   20  C   UNL     1     -45.127 -53.130  13.089  1.00  0.00     0.247 A 
HETATM   21  O   UNL     1     -44.551 -53.679  12.151  1.00  0.00    -0.268 OA
ENDBRANCH  14  15
ENDBRANCH   2  14
TORSDOF 5
ENDMDL
MODEL 3
REMARK VINA RESULT:      -5.2      2.055      2.909
REMARK  5 active torsions:
REMARK  status: ('A' for Active; 'I' for Inactive)
REMARK    1  A    between atoms: C_2  and  C_3 
REMARK    2  A    between atoms: C_2  and  N_10 
REMARK    3  A    between atoms: C_3  and  N_4 
REMARK       I    between atoms: N_10  and  C_11 
REMARK    4  A    between atoms: C_11  and  C_13 
REMARK    5  A    between atoms: C_13  and  N_14 
ROOT
HETATM    1  N   UNL     1     -41.590 -52.469  14.168  1.00  0.00    -0.354 N 
HETATM    2  C   UNL     1     -40.789 -52.131  13.097  1.00  0.00     0.236 C 
HETATM    3  O   UNL     1     -40.509 -52.895  12.179  1.00  0.00    -0.272 OA
HETATM    4  H   UNL     1     -41.430 -51.933  15.020  1.00  0.00     0.162 HD
ENDROOT
BRANCH   1   5
HETATM    5  C   UNL     1     -42.255 -53.764  14.291  1.00  0.00     0.108 C 
HETATM    6  C   UNL     1     -41.387 -54.702  15.129  1.00  0.00     0.034 C 
BRANCH   5   7
HETATM    7  C   UNL     1     -43.739 -53.674  14.788  1.00  0.00     0.296 C 
BRANCH   7   8
HETATM    8  N   UNL     1     -44.832 -53.812  13.798  1.00  0.00     0.090 N 
HETATM    9  C   UNL     1     -44.864 -52.782  12.754  1.00  0.00     0.272 C 
HETATM   10  C   UNL     1     -45.279 -51.394  13.248  1.00  0.00     0.030 C 
HETATM   11  C   UNL     1     -46.632 -51.448  13.945  1.00  0.00     0.003 C 
HETATM   12  C   UNL     1     -46.654 -52.537  15.010  1.00  0.00     0.030 C 
HETATM   13  C   UNL     1     -46.149 -53.879  14.462  1.00  0.00     0.272 C 
ENDBRANCH   7   8
ENDBRANCH   5   7
ENDBRANCH   1   5
BRANCH   2  14
HETATM   14  C   UNL     1     -40.202 -50.721  13.198  1.00  0.00     0.234 C 
BRANCH  14  15
HETATM   15  N   UNL     1     -41.065 -49.750  12.531  1.00  0.00    -0.316 N 
HETATM   16  C   UNL     1     -40.790 -49.373  11.228  1.00  0.00     0.095 A 
HETATM   17  C   UNL     1     -41.563 -48.489  10.589  1.00  0.00     0.017 A 
HETATM   18  C   UNL     1     -42.706 -47.917  11.253  1.00  0.00     0.007 A 
HETATM   19  C   UNL     1     -42.989 -48.243  12.522  1.00  0.00     0.074 A 
HETATM   20  C   UNL     1     -42.120 -49.202  13.257  1.00  0.00     0.247 A 
HETATM   21  O   UNL     1     -42.352 -49.457  14.438  1.00  0.00    -0.268 OA
ENDBRANCH  14  15
ENDBRANCH   2  14
TORSDOF 5
ENDMDL
MODEL 4
REMARK VINA RESULT:      -5.2      2.390      6.304
REMARK  5 active torsions:
REMARK  status: ('A' for Active; 'I' for Inactive)
REMARK    1  A    between atoms: C_2  and  C_3 
REMARK    2  A    between atoms: C_2  and  N_10 
REMARK    3  A    between atoms: C_3  and  N_4 
REMARK       I    between atoms: N_10  and  C_11 
REMARK    4  A    between atoms: C_11  and  C_13 
REMARK    5  A    between atoms: C_13  and  N_14 
ROOT
HETATM    1  N   UNL     1     -40.149 -51.503  12.000  1.00  0.00    -0.354 N 
HETATM    2  C   UNL     1     -40.440 -52.210  13.148  1.00  0.00     0.236 C 
HETATM    3  O   UNL     1     -40.336 -51.752  14.283  1.00  0.00    -0.272 OA
HETATM    4  H   UNL     1     -39.890 -52.069  11.192  1.00  0.00     0.162 HD
ENDROOT
BRANCH   1   5
HETATM    5  C   UNL     1     -39.750 -50.098  12.006  1.00  0.00     0.108 C 
HETATM    6  C   UNL     1     -38.294 -49.982  11.556  1.00  0.00     0.034 C 
BRANCH   5   7
HETATM    7  C   UNL     1     -40.724 -49.155  11.218  1.00  0.00     0.296 C 
BRANCH   7   8
HETATM    8  N   UNL     1     -41.390 -48.051  11.947  1.00  0.00     0.090 N 
HETATM    9  C   UNL     1     -42.603 -47.524  11.312  1.00  0.00     0.272 C 
HETATM   10  C   UNL     1     -42.351 -46.731  10.028  1.00  0.00     0.030 C 
HETATM   11  C   UNL     1     -41.376 -45.587  10.278  1.00  0.00     0.003 C 
HETATM   12  C   UNL     1     -40.117 -46.087  10.977  1.00  0.00     0.030 C 
HETATM   13  C   UNL     1     -40.452 -46.940  12.208  1.00  0.00     0.272 C 
ENDBRANCH   7   8
ENDBRANCH   5   7
ENDBRANCH   1   5
BRANCH   2  14
HETATM   14  C   UNL     1     -40.830 -53.665  12.885  1.00  0.00     0.234 C 
BRANCH  14  15
HETATM   15  N   UNL     1     -42.220 -53.907  13.261  1.00  0.00    -0.316 N 
HETATM   16  C   UNL     1     -43.239 -53.423  12.459  1.00  0.00     0.095 A 
HETATM   17  C   UNL     1     -44.522 -53.631  12.775  1.00  0.00     0.017 A 
HETATM   18  C   UNL     1     -44.862 -54.373  13.962  1.00  0.00     0.007 A 
HETATM   19  C   UNL     1     -43.900 -54.837  14.772  1.00  0.00     0.074 A 
HETATM   20  C   UNL     1     -42.468 -54.586  14.452  1.00  0.00     0.247 A 
HETATM   21  O   UNL     1     -41.592 -54.967  15.226  1.00  0.00    -0.268 OA
ENDBRANCH  14  15
ENDBRANCH   2  14
TORSDOF 5
ENDMDL
MODEL 5
REMARK VINA RESULT:      -5.1      3.979      4.904
REMARK  5 active torsions:
REMARK  status: ('A' for Active; 'I' for Inactive)
REMARK    1  A    between atoms: C_2  and  C_3 
REMARK    2  A    between atoms: C_2  and  N_10 
REMARK    3  A    between atoms: C_3  and  N_4 
REMARK       I    between atoms: N_10  and  C_11 
REMARK    4  A    between atoms: C_11  and  C_13 
REMARK    5  A    between atoms: C_13  and  N_14 
ROOT
HETATM    1  N   UNL     1     -42.085 -49.809  12.510  1.00  0.00    -0.354 N 
HETATM    2  C   UNL     1     -41.593 -48.969  11.532  1.00  0.00     0.236 C 
HETATM    3  O   UNL     1     -40.854 -49.332  10.621  1.00  0.00    -0.272 OA
HETATM    4  H   UNL     1     -42.333 -49.357  13.390  1.00  0.00     0.162 HD
ENDROOT
BRANCH   1   5
HETATM    5  C   UNL     1     -41.833 -51.248  12.528  1.00  0.00     0.108 C 
HETATM    6  C   UNL     1     -40.716 -51.555  13.525  1.00  0.00     0.034 C 
BRANCH   5   7
HETATM    7  C   UNL     1     -43.119 -52.117  12.743  1.00  0.00     0.296 C 
BRANCH   7   8
HETATM    8  N   UNL     1     -43.635 -52.297  14.121  1.00  0.00     0.090 N 
HETATM    9  C   UNL     1     -44.211 -53.615  14.406  1.00  0.00     0.272 C 
HETATM   10  C   UNL     1     -45.545 -53.887  13.705  1.00  0.00     0.030 C 
HETATM   11  C   UNL     1     -46.565 -52.807  14.042  1.00  0.00     0.003 C 
HETATM   12  C   UNL     1     -45.989 -51.418  13.799  1.00  0.00     0.030 C 
HETATM   13  C   UNL     1     -44.617 -51.247  14.464  1.00  0.00     0.272 C 
ENDBRANCH   7   8
ENDBRANCH   5   7
ENDBRANCH   1   5
BRANCH   2  14
HETATM   14  C   UNL     1     -41.990 -47.505  11.732  1.00  0.00     0.234 C 
BRANCH  14  15
HETATM   15  N   UNL     1     -42.975 -47.093  10.736  1.00  0.00    -0.316 N 
HETATM   16  C   UNL     1     -44.153 -47.807  10.605  1.00  0.00     0.095 A 
HETATM   17  C   UNL     1     -45.077 -47.453   9.705  1.00  0.00     0.017 A 
HETATM   18  C   UNL     1     -44.858 -46.310   8.857  1.00  0.00     0.007 A 
HETATM   19  C   UNL     1     -43.719 -45.609   8.943  1.00  0.00     0.074 A 
HETATM   20  C   UNL     1     -42.667 -46.010   9.917  1.00  0.00     0.247 A 
HETATM   21  O   UNL     1     -41.601 -45.396   9.954  1.00  0.00    -0.268 OA
ENDBRANCH  14  15
ENDBRANCH   2  14
TORSDOF 5
ENDMDL
MODEL 6
REMARK VINA RESULT:      -5.1      2.665      6.889
REMARK  5 active torsions:
REMARK  status: ('A' for Active; 'I' for Inactive)
REMARK    1  A    between atoms: C_2  and  C_3 
REMARK    2  A    between atoms: C_2  and  N_10 
REMARK    3  A    between atoms: C_3  and  N_4 
REMARK       I    between atoms: N_10  and  C_11 
REMARK    4  A    between atoms: C_11  and  C_13 
REMARK    5  A    between atoms: C_13  and  N_14 
ROOT
HETATM    1  N   UNL     1     -40.424 -50.648  12.176  1.00  0.00    -0.354 N 
HETATM    2  C   UNL     1     -41.686 -51.122  12.472  1.00  0.00     0.236 C 
HETATM    3  O   UNL     1     -42.516 -50.504  13.133  1.00  0.00    -0.272 OA
HETATM    4  H   UNL     1     -39.722 -51.363  11.989  1.00  0.00     0.162 HD
ENDROOT
BRANCH   1   5
HETATM    5  C   UNL     1     -39.960 -49.318  12.562  1.00  0.00     0.108 C 
HETATM    6  C   UNL     1     -38.531 -49.415  13.097  1.00  0.00     0.034 C 
BRANCH   5   7
HETATM    7  C   UNL     1     -40.137 -48.233  11.445  1.00  0.00     0.296 C 
BRANCH   7   8
HETATM    8  N   UNL     1     -41.068 -47.106  11.688  1.00  0.00     0.090 N 
HETATM    9  C   UNL     1     -41.132 -46.105  10.618  1.00  0.00     0.272 C 
HETATM   10  C   UNL     1     -39.876 -45.240  10.486  1.00  0.00     0.030 C 
HETATM   11  C   UNL     1     -39.552 -44.549  11.804  1.00  0.00     0.003 C 
HETATM   12  C   UNL     1     -39.518 -45.551  12.951  1.00  0.00     0.030 C 
HETATM   13  C   UNL     1     -40.773 -46.435  12.971  1.00  0.00     0.272 C 
ENDBRANCH   7   8
ENDBRANCH   5   7
ENDBRANCH   1   5
BRANCH   2  14
HETATM   14  C   UNL     1     -41.936 -52.544  11.966  1.00  0.00     0.234 C 
BRANCH  14  15
HETATM   15  N   UNL     1     -42.354 -53.419  13.057  1.00  0.00    -0.316 N 
HETATM   16  C   UNL     1     -41.431 -53.806  14.013  1.00  0.00     0.095 A 
HETATM   17  C   UNL     1     -41.783 -54.603  15.028  1.00  0.00     0.017 A 
HETATM   18  C   UNL     1     -43.141 -55.069  15.141  1.00  0.00     0.007 A 
HETATM   19  C   UNL     1     -44.055 -54.731  14.221  1.00  0.00     0.074 A 
HETATM   20  C   UNL     1     -43.671 -53.870  13.069  1.00  0.00     0.247 A 
HETATM   21  O   UNL     1     -44.500 -53.608  12.199  1.00  0.00    -0.268 OA
ENDBRANCH  14  15
ENDBRANCH   2  14
TORSDOF 5
ENDMDL
MODEL 7
REMARK VINA RESULT:      -5.1      1.337      2.075
REMARK  5 active torsions:
REMARK  status: ('A' for Active; 'I' for Inactive)
REMARK    1  A    between atoms: C_2  and  C_3 
REMARK    2  A    between atoms: C_2  and  N_10 
REMARK    3  A    between atoms: C_3  and  N_4 
REMARK       I    between atoms: N_10  and  C_11 
REMARK    4  A    between atoms: C_11  and  C_13 
REMARK    5  A    between atoms: C_13  and  N_14 
ROOT
HETATM    1  N   UNL     1     -41.071 -52.913  14.845  1.00  0.00    -0.354 N 
HETATM    2  C   UNL     1     -39.922 -53.100  14.106  1.00  0.00     0.236 C 
HETATM    3  O   UNL     1     -39.799 -53.948  13.226  1.00  0.00    -0.272 OA
HETATM    4  H   UNL     1     -40.936 -52.492  15.764  1.00  0.00     0.162 HD
ENDROOT
BRANCH   1   5
HETATM    5  C   UNL     1     -42.302 -53.664  14.612  1.00  0.00     0.108 C 
HETATM    6  C   UNL     1     -42.284 -54.941  15.451  1.00  0.00     0.034 C 
BRANCH   5   7
HETATM    7  C   UNL     1     -43.609 -52.818  14.790  1.00  0.00     0.296 C 
BRANCH   7   8
HETATM    8  N   UNL     1     -44.917 -53.460  14.522  1.00  0.00     0.090 N 
HETATM    9  C   UNL     1     -45.734 -52.811  13.492  1.00  0.00     0.272 C 
HETATM   10  C   UNL     1     -46.311 -51.454  13.905  1.00  0.00     0.030 C 
HETATM   11  C   UNL     1     -47.122 -51.578  15.188  1.00  0.00     0.003 C 
HETATM   12  C   UNL     1     -46.322 -52.288  16.273  1.00  0.00     0.030 C 
HETATM   13  C   UNL     1     -45.708 -53.598  15.761  1.00  0.00     0.272 C 
ENDBRANCH   7   8
ENDBRANCH   5   7
ENDBRANCH   1   5
BRANCH   2  14
HETATM   14  C   UNL     1     -38.765 -52.198  14.541  1.00  0.00     0.234 C 
BRANCH  14  15
HETATM   15  N   UNL     1     -38.589 -51.090  13.607  1.00  0.00    -0.316 N 
HETATM   16  C   UNL     1     -37.628 -51.180  12.615  1.00  0.00     0.095 A 
HETATM   17  C   UNL     1     -37.445 -50.185  11.741  1.00  0.00     0.017 A 
HETATM   18  C   UNL     1     -38.256 -48.997  11.819  1.00  0.00     0.007 A 
HETATM   19  C   UNL     1     -39.182 -48.868  12.780  1.00  0.00     0.074 A 
HETATM   20  C   UNL     1     -39.376 -49.954  13.779  1.00  0.00     0.247 A 
HETATM   21  O   UNL     1     -40.188 -49.808  14.692  1.00  0.00    -0.268 OA
ENDBRANCH  14  15
ENDBRANCH   2  14
TORSDOF 5
ENDMDL
MODEL 8
REMARK VINA RESULT:      -5.0      3.375      6.580
REMARK  5 active torsions:
REMARK  status: ('A' for Active; 'I' for Inactive)
REMARK    1  A    between atoms: C_2  and  C_3 
REMARK    2  A    between atoms: C_2  and  N_10 
REMARK    3  A    between atoms: C_3  and  N_4 
REMARK       I    between atoms: N_10  and  C_11 
REMARK    4  A    between atoms: C_11  and  C_13 
REMARK    5  A    between atoms: C_13  and  N_14 
ROOT
HETATM    1  N   UNL     1     -42.273 -49.010  11.090  1.00  0.00    -0.354 N 
HETATM    2  C   UNL     1     -41.281 -49.860  11.534  1.00  0.00     0.236 C 
HETATM    3  O   UNL     1     -40.104 -49.783  11.193  1.00  0.00    -0.272 OA
HETATM    4  H   UNL     1     -43.217 -49.392  11.109  1.00  0.00     0.162 HD
ENDROOT
BRANCH   1   5
HETATM    5  C   UNL     1     -42.014 -47.870  10.213  1.00  0.00     0.108 C 
HETATM    6  C   UNL     1     -43.212 -47.662   9.287  1.00  0.00     0.034 C 
BRANCH   5   7
HETATM    7  C   UNL     1     -41.575 -46.570  10.970  1.00  0.00     0.296 C 
BRANCH   7   8
HETATM    8  N   UNL     1     -40.130 -46.265  11.082  1.00  0.00     0.090 N 
HETATM    9  C   UNL     1     -39.613 -46.175  12.451  1.00  0.00     0.272 C 
HETATM   10  C   UNL     1     -40.090 -44.946  13.228  1.00  0.00     0.030 C 
HETATM   11  C   UNL     1     -39.753 -43.664  12.478  1.00  0.00     0.003 C 
HETATM   12  C   UNL     1     -40.237 -43.734  11.034  1.00  0.00     0.030 C 
HETATM   13  C   UNL     1     -39.787 -45.030  10.346  1.00  0.00     0.272 C 
ENDBRANCH   7   8
ENDBRANCH   5   7
ENDBRANCH   1   5
BRANCH   2  14
HETATM   14  C   UNL     1     -41.800 -50.980  12.439  1.00  0.00     0.234 C 
BRANCH  14  15
HETATM   15  N   UNL     1     -40.908 -51.183  13.576  1.00  0.00    -0.316 N 
HETATM   16  C   UNL     1     -40.894 -50.259  14.607  1.00  0.00     0.095 A 
HETATM   17  C   UNL     1     -40.091 -50.419  15.665  1.00  0.00     0.017 A 
HETATM   18  C   UNL     1     -39.227 -51.569  15.748  1.00  0.00     0.007 A 
HETATM   19  C   UNL     1     -39.200 -52.471  14.757  1.00  0.00     0.074 A 
HETATM   20  C   UNL     1     -40.064 -52.291  13.559  1.00  0.00     0.247 A 
HETATM   21  O   UNL     1     -39.995 -53.093  12.629  1.00  0.00    -0.268 OA
ENDBRANCH  14  15
ENDBRANCH   2  14
TORSDOF 5
ENDMDL
MODEL 9
REMARK VINA RESULT:      -4.9      2.669      6.367
REMARK  5 active torsions:
REMARK  status: ('A' for Active; 'I' for Inactive)
REMARK    1  A    between atoms: C_2  and  C_3 
REMARK    2  A    between atoms: C_2  and  N_10 
REMARK    3  A    between atoms: C_3  and  N_4 
REMARK       I    between atoms: N_10  and  C_11 
REMARK    4  A    between atoms: C_11  and  C_13 
REMARK    5  A    between atoms: C_13  and  N_14 
ROOT
HETATM    1  N   UNL     1     -39.640 -50.938  12.496  1.00  0.00    -0.354 N 
HETATM    2  C   UNL     1     -40.910 -51.466  12.603  1.00  0.00     0.236 C 
HETATM    3  O   UNL     1     -41.890 -50.831  12.979  1.00  0.00    -0.272 OA
HETATM    4  H   UNL     1     -38.879 -51.612  12.568  1.00  0.00     0.162 HD
ENDROOT
BRANCH   1   5
HETATM    5  C   UNL     1     -39.335 -49.533  12.754  1.00  0.00     0.108 C 
HETATM    6  C   UNL     1     -37.865 -49.398  13.151  1.00  0.00     0.034 C 
BRANCH   5   7
HETATM    7  C   UNL     1     -39.761 -48.566  11.596  1.00  0.00     0.296 C 
BRANCH   7   8
HETATM    8  N   UNL     1     -40.825 -47.569  11.857  1.00  0.00     0.090 N 
HETATM    9  C   UNL     1     -41.056 -46.602  10.777  1.00  0.00     0.272 C 
HETATM   10  C   UNL     1     -39.930 -45.582  10.591  1.00  0.00     0.030 C 
HETATM   11  C   UNL     1     -39.658 -44.832  11.889  1.00  0.00     0.003 C 
HETATM   12  C   UNL     1     -39.455 -45.802  13.047  1.00  0.00     0.030 C 
HETATM   13  C   UNL     1     -40.580 -46.843  13.120  1.00  0.00     0.272 C 
ENDBRANCH   7   8
ENDBRANCH   5   7
ENDBRANCH   1   5
BRANCH   2  14
HETATM   14  C   UNL     1     -40.975 -52.962  12.286  1.00  0.00     0.234 C 
BRANCH  14  15
HETATM   15  N   UNL     1     -41.006 -53.752  13.513  1.00  0.00    -0.316 N 
HETATM   16  C   UNL     1     -42.224 -54.122  14.056  1.00  0.00     0.095 A 
HETATM   17  C   UNL     1     -42.287 -54.849  15.177  1.00  0.00     0.017 A 
HETATM   18  C   UNL     1     -41.075 -55.264  15.837  1.00  0.00     0.007 A 
HETATM   19  C   UNL     1     -39.879 -54.906  15.349  1.00  0.00     0.074 A 
HETATM   20  C   UNL     1     -39.794 -54.070  14.121  1.00  0.00     0.247 A 
HETATM   21  O   UNL     1     -38.696 -53.697  13.709  1.00  0.00    -0.268 OA
ENDBRANCH  14  15
ENDBRANCH   2  14
TORSDOF 5
ENDMDL
