MODEL 1
REMARK VINA RESULT:      -6.1      0.000      0.000
REMARK  2 active torsions:
REMARK  status: ('A' for Active; 'I' for Inactive)
REMARK    1  A    between atoms: C_6  and  N_8 
REMARK       I    between atoms: N_8  and  C_9 
REMARK       I    between atoms: C_9  and  N_11 
REMARK    2  A    between atoms: N_11  and  C_12 
ROOT
HETATM    1  N   UNL     1     -41.552 -52.072  12.708  1.00  0.00    -0.338 N 
HETATM    2  C   UNL     1     -40.187 -52.086  12.721  1.00  0.00     0.322 C 
HETATM    3  O   UNL     1     -39.519 -53.004  13.198  1.00  0.00    -0.247 OA
HETATM    4  N   UNL     1     -39.562 -51.058  12.076  1.00  0.00    -0.288 N 
HETATM    5  H   UNL     1     -42.008 -51.191  12.488  1.00  0.00     0.164 HD
HETATM    6  H   UNL     1     -38.568 -51.158  11.944  1.00  0.00     0.172 HD
ENDROOT
BRANCH   1   7
HETATM    7  C   UNL     1     -42.378 -53.134  13.239  1.00  0.00     0.086 C 
HETATM    8  C   UNL     1     -43.700 -53.200  12.472  1.00  0.00     0.025 C 
HETATM    9  C   UNL     1     -44.609 -54.296  13.014  1.00  0.00     0.002 C 
HETATM   10  C   UNL     1     -44.838 -54.143  14.519  1.00  0.00     0.004 C 
HETATM   11  C   UNL     1     -43.533 -54.026  15.321  1.00  0.00    -0.017 C 
HETATM   12  C   UNL     1     -42.793 -55.366  15.401  1.00  0.00     0.010 C 
HETATM   13  C   UNL     1     -42.633 -52.929  14.736  1.00  0.00     0.029 C 
ENDBRANCH   1   7
BRANCH   4  14
HETATM   14  C   UNL     1     -40.205 -49.989  11.519  1.00  0.00     0.168 A 
HETATM   15  N   UNL     1     -40.615 -49.840  10.279  1.00  0.00    -0.279 N 
HETATM   16  N   UNL     1     -41.170 -48.600  10.067  1.00  0.00    -0.303 N 
ATOM     17  HN  UNL     1     -40.532 -50.559   9.560  1.00  0.00     0.189 HD
HETATM   18  C   UNL     1     -41.142 -47.865  11.159  1.00  0.00     0.160 A 
ATOM     19  HN  UNL     1     -41.556 -48.288   9.175  1.00  0.00     0.186 HD
HETATM   20  S   UNL     1     -40.486 -48.655  12.538  1.00  0.00    -0.046 SA
ENDBRANCH   4  14
TORSDOF 2
ENDMDL
MODEL 2
REMARK VINA RESULT:      -5.9      1.725      2.000
REMARK  2 active torsions:
REMARK  status: ('A' for Active; 'I' for Inactive)
REMARK    1  A    between atoms: C_6  and  N_8 
REMARK       I    between atoms: N_8  and  C_9 
REMARK       I    between atoms: C_9  and  N_11 
REMARK    2  A    between atoms: N_11  and  C_12 
ROOT
HETATM    1  N   UNL     1     -42.477 -51.092  12.537  1.00  0.00    -0.338 N 
HETATM    2  C   UNL     1     -41.373 -51.722  12.039  1.00  0.00     0.322 C 
HETATM    3  O   UNL     1     -41.170 -52.932  12.148  1.00  0.00    -0.247 OA
HETATM    4  N   UNL     1     -40.516 -50.955  11.304  1.00  0.00    -0.288 N 
HETATM    5  H   UNL     1     -42.456 -50.078  12.584  1.00  0.00     0.164 HD
HETATM    6  H   UNL     1     -39.797 -51.452  10.803  1.00  0.00     0.172 HD
ENDROOT
BRANCH   1   7
HETATM    7  C   UNL     1     -43.547 -51.768  13.239  1.00  0.00     0.086 C 
HETATM    8  C   UNL     1     -44.180 -52.825  12.331  1.00  0.00     0.025 C 
HETATM    9  C   UNL     1     -45.326 -53.548  13.027  1.00  0.00     0.002 C 
HETATM   10  C   UNL     1     -46.370 -52.566  13.560  1.00  0.00     0.004 C 
HETATM   11  C   UNL     1     -45.766 -51.459  14.439  1.00  0.00    -0.017 C 
HETATM   12  C   UNL     1     -45.330 -51.996  15.807  1.00  0.00     0.010 C 
HETATM   13  C   UNL     1     -44.603 -50.766  13.717  1.00  0.00     0.029 C 
ENDBRANCH   1   7
BRANCH   4  14
HETATM   14  C   UNL     1     -40.642 -49.607  11.127  1.00  0.00     0.168 A 
HETATM   15  N   UNL     1     -41.329 -48.967  10.207  1.00  0.00    -0.279 N 
HETATM   16  N   UNL     1     -41.172 -47.604  10.303  1.00  0.00    -0.303 N 
ATOM     17  HN  UNL     1     -41.910 -49.426   9.505  1.00  0.00     0.189 HD
HETATM   18  C   UNL     1     -40.361 -47.280  11.288  1.00  0.00     0.160 A 
ATOM     19  HN  UNL     1     -41.626 -46.928   9.688  1.00  0.00     0.186 HD
HETATM   20  S   UNL     1     -39.776 -48.613  12.204  1.00  0.00    -0.046 SA
ENDBRANCH   4  14
TORSDOF 2
ENDMDL
MODEL 3
REMARK VINA RESULT:      -5.8      2.085      2.548
REMARK  2 active torsions:
REMARK  status: ('A' for Active; 'I' for Inactive)
REMARK    1  A    between atoms: C_6  and  N_8 
REMARK       I    between atoms: N_8  and  C_9 
REMARK       I    between atoms: C_9  and  N_11 
REMARK    2  A    between atoms: N_11  and  C_12 
ROOT
HETATM    1  N   UNL     1     -42.883 -52.228  13.435  1.00  0.00    -0.338 N 
HETATM    2  C   UNL     1     -41.954 -53.227  13.395  1.00  0.00     0.322 C 
HETATM    3  O   UNL     1     -42.145 -54.354  13.854  1.00  0.00    -0.247 OA
HETATM    4  N   UNL     1     -40.799 -52.957  12.720  1.00  0.00    -0.288 N 
HETATM    5  H   UNL     1     -42.565 -51.286  13.225  1.00  0.00     0.164 HD
HETATM    6  H   UNL     1     -40.192 -53.744  12.551  1.00  0.00     0.172 HD
ENDROOT
BRANCH   1   7
HETATM    7  C   UNL     1     -44.205 -52.373  14.004  1.00  0.00     0.086 C 
HETATM    8  C   UNL     1     -45.203 -51.508  13.232  1.00  0.00     0.025 C 
HETATM    9  C   UNL     1     -46.607 -51.617  13.813  1.00  0.00     0.002 C 
HETATM   10  C   UNL     1     -46.623 -51.297  15.309  1.00  0.00     0.004 C 
HETATM   11  C   UNL     1     -45.600 -52.112  16.114  1.00  0.00    -0.017 C 
HETATM   12  C   UNL     1     -46.026 -53.578  16.254  1.00  0.00     0.010 C 
HETATM   13  C   UNL     1     -44.202 -51.997  15.490  1.00  0.00     0.029 C 
ENDBRANCH   1   7
BRANCH   4  14
HETATM   14  C   UNL     1     -40.483 -51.743  12.181  1.00  0.00     0.168 A 
HETATM   15  N   UNL     1     -40.815 -51.263  11.003  1.00  0.00    -0.279 N 
HETATM   16  N   UNL     1     -40.264 -50.024  10.779  1.00  0.00    -0.303 N 
ATOM     17  HN  UNL     1     -41.411 -51.752  10.335  1.00  0.00     0.189 HD
HETATM   18  C   UNL     1     -39.529 -49.631  11.798  1.00  0.00     0.160 A 
ATOM     19  HN  UNL     1     -40.405 -49.477   9.929  1.00  0.00     0.186 HD
HETATM   20  S   UNL     1     -39.505 -50.722  13.127  1.00  0.00    -0.046 SA
ENDBRANCH   4  14
TORSDOF 2
ENDMDL
MODEL 4
REMARK VINA RESULT:      -5.6      4.066      5.379
REMARK  2 active torsions:
REMARK  status: ('A' for Active; 'I' for Inactive)
REMARK    1  A    between atoms: C_6  and  N_8 
REMARK       I    between atoms: N_8  and  C_9 
REMARK       I    between atoms: C_9  and  N_11 
REMARK    2  A    between atoms: N_11  and  C_12 
ROOT
HETATM    1  N   UNL     1     -45.195 -53.136  15.035  1.00  0.00    -0.338 N 
HETATM    2  C   UNL     1     -45.473 -54.312  14.400  1.00  0.00     0.322 C 
HETATM    3  O   UNL     1     -46.407 -55.051  14.711  1.00  0.00    -0.247 OA
HETATM    4  N   UNL     1     -44.712 -54.606  13.306  1.00  0.00    -0.288 N 
HETATM    5  H   UNL     1     -44.294 -52.706  14.850  1.00  0.00     0.164 HD
HETATM    6  H   UNL     1     -45.024 -55.383  12.746  1.00  0.00     0.172 HD
ENDROOT
BRANCH   1   7
HETATM    7  C   UNL     1     -45.970 -52.609  16.138  1.00  0.00     0.086 C 
HETATM    8  C   UNL     1     -47.089 -51.711  15.606  1.00  0.00     0.025 C 
HETATM    9  C   UNL     1     -47.918 -51.119  16.738  1.00  0.00     0.002 C 
HETATM   10  C   UNL     1     -47.041 -50.384  17.753  1.00  0.00     0.004 C 
HETATM   11  C   UNL     1     -45.876 -51.238  18.277  1.00  0.00    -0.017 C 
HETATM   12  C   UNL     1     -46.358 -52.331  19.236  1.00  0.00     0.010 C 
HETATM   13  C   UNL     1     -45.074 -51.835  17.111  1.00  0.00     0.029 C 
ENDBRANCH   1   7
BRANCH   4  14
HETATM   14  C   UNL     1     -43.650 -53.861  12.879  1.00  0.00     0.168 A 
HETATM   15  N   UNL     1     -43.619 -52.957  11.926  1.00  0.00    -0.279 N 
HETATM   16  N   UNL     1     -42.353 -52.454  11.734  1.00  0.00    -0.303 N 
ATOM     17  HN  UNL     1     -44.437 -52.662  11.392  1.00  0.00     0.189 HD
HETATM   18  C   UNL     1     -41.483 -53.015  12.547  1.00  0.00     0.160 A 
ATOM     19  HN  UNL     1     -42.118 -51.737  11.047  1.00  0.00     0.186 HD
HETATM   20  S   UNL     1     -42.158 -54.155  13.643  1.00  0.00    -0.046 SA
ENDBRANCH   4  14
TORSDOF 2
ENDMDL
MODEL 5
REMARK VINA RESULT:      -5.6      2.447      6.700
REMARK  2 active torsions:
REMARK  status: ('A' for Active; 'I' for Inactive)
REMARK    1  A    between atoms: C_6  and  N_8 
REMARK       I    between atoms: N_8  and  C_9 
REMARK       I    between atoms: C_9  and  N_11 
REMARK    2  A    between atoms: N_11  and  C_12 
ROOT
HETATM    1  N   UNL     1     -39.910 -48.945  11.889  1.00  0.00    -0.338 N 
HETATM    2  C   UNL     1     -38.873 -49.832  11.874  1.00  0.00     0.322 C 
HETATM    3  O   UNL     1     -37.691 -49.500  11.778  1.00  0.00    -0.247 OA
HETATM    4  N   UNL     1     -39.193 -51.144  12.075  1.00  0.00    -0.288 N 
HETATM    5  H   UNL     1     -40.846 -49.317  11.760  1.00  0.00     0.164 HD
HETATM    6  H   UNL     1     -38.418 -51.770  12.229  1.00  0.00     0.172 HD
ENDROOT
BRANCH   1   7
HETATM    7  C   UNL     1     -39.747 -47.509  11.807  1.00  0.00     0.086 C 
HETATM    8  C   UNL     1     -39.769 -46.902  13.212  1.00  0.00     0.025 C 
HETATM    9  C   UNL     1     -39.620 -45.387  13.170  1.00  0.00     0.002 C 
HETATM   10  C   UNL     1     -40.670 -44.743  12.262  1.00  0.00     0.004 C 
HETATM   11  C   UNL     1     -40.713 -45.359  10.855  1.00  0.00    -0.017 C 
HETATM   12  C   UNL     1     -39.496 -44.948  10.019  1.00  0.00     0.010 C 
HETATM   13  C   UNL     1     -40.842 -46.886  10.934  1.00  0.00     0.029 C 
ENDBRANCH   1   7
BRANCH   4  14
HETATM   14  C   UNL     1     -40.468 -51.621  12.186  1.00  0.00     0.168 A 
HETATM   15  N   UNL     1     -41.211 -52.183  11.259  1.00  0.00    -0.279 N 
HETATM   16  N   UNL     1     -42.471 -52.484  11.723  1.00  0.00    -0.303 N 
ATOM     17  HN  UNL     1     -40.892 -52.374  10.309  1.00  0.00     0.189 HD
HETATM   18  C   UNL     1     -42.622 -52.123  12.980  1.00  0.00     0.160 A 
ATOM     19  HN  UNL     1     -43.197 -52.931  11.162  1.00  0.00     0.186 HD
HETATM   20  S   UNL     1     -41.219 -51.441  13.703  1.00  0.00    -0.046 SA
ENDBRANCH   4  14
TORSDOF 2
ENDMDL
MODEL 6
REMARK VINA RESULT:      -5.6      2.609      5.713
REMARK  2 active torsions:
REMARK  status: ('A' for Active; 'I' for Inactive)
REMARK    1  A    between atoms: C_6  and  N_8 
REMARK       I    between atoms: N_8  and  C_9 
REMARK       I    between atoms: C_9  and  N_11 
REMARK    2  A    between atoms: N_11  and  C_12 
ROOT
HETATM    1  N   UNL     1     -40.636 -52.206  12.892  1.00  0.00    -0.338 N 
HETATM    2  C   UNL     1     -40.632 -53.549  13.134  1.00  0.00     0.322 C 
HETATM    3  O   UNL     1     -39.607 -54.208  13.308  1.00  0.00    -0.247 OA
HETATM    4  N   UNL     1     -41.852 -54.145  13.278  1.00  0.00    -0.288 N 
HETATM    5  H   UNL     1     -41.502 -51.794  12.556  1.00  0.00     0.164 HD
HETATM    6  H   UNL     1     -41.844 -55.093  13.619  1.00  0.00     0.172 HD
ENDROOT
BRANCH   1   7
HETATM    7  C   UNL     1     -39.442 -51.392  12.825  1.00  0.00     0.086 C 
HETATM    8  C   UNL     1     -39.049 -50.927  14.229  1.00  0.00     0.025 C 
HETATM    9  C   UNL     1     -37.805 -50.048  14.200  1.00  0.00     0.002 C 
HETATM   10  C   UNL     1     -37.971 -48.868  13.242  1.00  0.00     0.004 C 
HETATM   11  C   UNL     1     -38.412 -49.291  11.832  1.00  0.00    -0.017 C 
HETATM   12  C   UNL     1     -37.275 -49.971  11.062  1.00  0.00     0.010 C 
HETATM   13  C   UNL     1     -39.654 -50.190  11.898  1.00  0.00     0.029 C 
ENDBRANCH   1   7
BRANCH   4  14
HETATM   14  C   UNL     1     -43.048 -53.511  13.099  1.00  0.00     0.168 A 
HETATM   15  N   UNL     1     -43.674 -53.254  11.972  1.00  0.00    -0.279 N 
HETATM   16  N   UNL     1     -44.833 -52.542  12.177  1.00  0.00    -0.303 N 
ATOM     17  HN  UNL     1     -43.341 -53.549  11.054  1.00  0.00     0.189 HD
HETATM   18  C   UNL     1     -45.021 -52.285  13.455  1.00  0.00     0.160 A 
ATOM     19  HN  UNL     1     -45.467 -52.250  11.433  1.00  0.00     0.186 HD
HETATM   20  S   UNL     1     -43.825 -52.941  14.502  1.00  0.00    -0.046 SA
ENDBRANCH   4  14
TORSDOF 2
ENDMDL
MODEL 7
REMARK VINA RESULT:      -5.5      2.845      3.269
REMARK  2 active torsions:
REMARK  status: ('A' for Active; 'I' for Inactive)
REMARK    1  A    between atoms: C_6  and  N_8 
REMARK       I    between atoms: N_8  and  C_9 
REMARK       I    between atoms: C_9  and  N_11 
REMARK    2  A    between atoms: N_11  and  C_12 
ROOT
HETATM    1  N   UNL     1     -39.016 -51.365  13.226  1.00  0.00    -0.338 N 
HETATM    2  C   UNL     1     -37.949 -51.078  12.426  1.00  0.00     0.322 C 
HETATM    3  O   UNL     1     -36.845 -51.610  12.544  1.00  0.00    -0.247 OA
HETATM    4  N   UNL     1     -38.180 -50.220  11.389  1.00  0.00    -0.288 N 
HETATM    5  H   UNL     1     -39.811 -50.733  13.190  1.00  0.00     0.164 HD
HETATM    6  H   UNL     1     -37.441 -50.141  10.708  1.00  0.00     0.172 HD
ENDROOT
BRANCH   1   7
HETATM    7  C   UNL     1     -38.987 -52.336  14.298  1.00  0.00     0.086 C 
HETATM    8  C   UNL     1     -39.672 -53.628  13.849  1.00  0.00     0.025 C 
HETATM    9  C   UNL     1     -39.680 -54.673  14.959  1.00  0.00     0.002 C 
HETATM   10  C   UNL     1     -40.300 -54.124  16.245  1.00  0.00     0.004 C 
HETATM   11  C   UNL     1     -39.669 -52.799  16.703  1.00  0.00    -0.017 C 
HETATM   12  C   UNL     1     -38.262 -53.007  17.273  1.00  0.00     0.010 C 
HETATM   13  C   UNL     1     -39.659 -51.778  15.557  1.00  0.00     0.029 C 
ENDBRANCH   1   7
BRANCH   4  14
HETATM   14  C   UNL     1     -39.361 -49.571  11.170  1.00  0.00     0.168 A 
HETATM   15  N   UNL     1     -40.357 -49.932  10.392  1.00  0.00    -0.279 N 
HETATM   16  N   UNL     1     -41.362 -48.993  10.376  1.00  0.00    -0.303 N 
ATOM     17  HN  UNL     1     -40.382 -50.804   9.864  1.00  0.00     0.189 HD
HETATM   18  C   UNL     1     -41.070 -47.959  11.136  1.00  0.00     0.160 A 
ATOM     19  HN  UNL     1     -42.226 -49.086   9.841  1.00  0.00     0.186 HD
HETATM   20  S   UNL     1     -39.571 -48.084  11.970  1.00  0.00    -0.046 SA
ENDBRANCH   4  14
TORSDOF 2
ENDMDL
MODEL 8
REMARK VINA RESULT:      -5.4      4.673      7.315
REMARK  2 active torsions:
REMARK  status: ('A' for Active; 'I' for Inactive)
REMARK    1  A    between atoms: C_6  and  N_8 
REMARK       I    between atoms: N_8  and  C_9 
REMARK       I    between atoms: C_9  and  N_11 
REMARK    2  A    between atoms: N_11  and  C_12 
ROOT
HETATM    1  N   UNL     1     -40.410 -47.567  11.415  1.00  0.00    -0.338 N 
HETATM    2  C   UNL     1     -41.144 -48.492  10.732  1.00  0.00     0.322 C 
HETATM    3  O   UNL     1     -42.198 -48.233  10.150  1.00  0.00    -0.247 OA
HETATM    4  N   UNL     1     -40.602 -49.741  10.627  1.00  0.00    -0.288 N 
HETATM    5  H   UNL     1     -39.678 -47.912  12.030  1.00  0.00     0.164 HD
HETATM    6  H   UNL     1     -41.061 -50.370   9.987  1.00  0.00     0.172 HD
ENDROOT
BRANCH   1   7
HETATM    7  C   UNL     1     -40.771 -46.171  11.528  1.00  0.00     0.086 C 
HETATM    8  C   UNL     1     -39.863 -45.324  10.632  1.00  0.00     0.025 C 
HETATM    9  C   UNL     1     -40.198 -43.842  10.737  1.00  0.00     0.002 C 
HETATM   10  C   UNL     1     -40.166 -43.358  12.188  1.00  0.00     0.004 C 
HETATM   11  C   UNL     1     -41.028 -44.213  13.130  1.00  0.00    -0.017 C 
HETATM   12  C   UNL     1     -42.525 -43.969  12.907  1.00  0.00     0.010 C 
HETATM   13  C   UNL     1     -40.680 -45.701  12.984  1.00  0.00     0.029 C 
ENDBRANCH   1   7
BRANCH   4  14
HETATM   14  C   UNL     1     -39.447 -50.137  11.237  1.00  0.00     0.168 A 
HETATM   15  N   UNL     1     -38.226 -50.139  10.747  1.00  0.00    -0.279 N 
HETATM   16  N   UNL     1     -37.317 -50.667  11.634  1.00  0.00    -0.303 N 
ATOM     17  HN  UNL     1     -37.983 -49.790   9.820  1.00  0.00     0.189 HD
HETATM   18  C   UNL     1     -37.900 -51.051  12.751  1.00  0.00     0.160 A 
ATOM     19  HN  UNL     1     -36.317 -50.751  11.450  1.00  0.00     0.186 HD
HETATM   20  S   UNL     1     -39.590 -50.743  12.821  1.00  0.00    -0.046 SA
ENDBRANCH   4  14
TORSDOF 2
ENDMDL
MODEL 9
REMARK VINA RESULT:      -4.9      4.170      5.463
REMARK  2 active torsions:
REMARK  status: ('A' for Active; 'I' for Inactive)
REMARK    1  A    between atoms: C_6  and  N_8 
REMARK       I    between atoms: N_8  and  C_9 
REMARK       I    between atoms: C_9  and  N_11 
REMARK    2  A    between atoms: N_11  and  C_12 
ROOT
HETATM    1  N   UNL     1     -41.605 -47.934  11.160  1.00  0.00    -0.338 N 
HETATM    2  C   UNL     1     -41.193 -46.796  10.531  1.00  0.00     0.322 C 
HETATM    3  O   UNL     1     -40.075 -46.299  10.682  1.00  0.00    -0.247 OA
HETATM    4  N   UNL     1     -42.055 -46.257   9.621  1.00  0.00    -0.288 N 
HETATM    5  H   UNL     1     -42.599 -48.147  11.138  1.00  0.00     0.164 HD
HETATM    6  H   UNL     1     -41.684 -45.520   9.043  1.00  0.00     0.172 HD
ENDROOT
BRANCH   1   7
HETATM    7  C   UNL     1     -40.780 -48.703  12.066  1.00  0.00     0.086 C 
HETATM    8  C   UNL     1     -40.242 -49.946  11.354  1.00  0.00     0.025 C 
HETATM    9  C   UNL     1     -39.383 -50.796  12.281  1.00  0.00     0.002 C 
HETATM   10  C   UNL     1     -40.131 -51.162  13.564  1.00  0.00     0.004 C 
HETATM   11  C   UNL     1     -40.728 -49.943  14.285  1.00  0.00    -0.017 C 
HETATM   12  C   UNL     1     -39.644 -49.096  14.961  1.00  0.00     0.010 C 
HETATM   13  C   UNL     1     -41.570 -49.099  13.319  1.00  0.00     0.029 C 
ENDBRANCH   1   7
BRANCH   4  14
HETATM   14  C   UNL     1     -43.316 -46.722   9.381  1.00  0.00     0.168 A 
HETATM   15  N   UNL     1     -44.398 -46.559  10.111  1.00  0.00    -0.279 N 
HETATM   16  N   UNL     1     -45.479 -47.224   9.584  1.00  0.00    -0.303 N 
ATOM     17  HN  UNL     1     -44.431 -46.004  10.967  1.00  0.00     0.189 HD
HETATM   18  C   UNL     1     -45.158 -47.870   8.482  1.00  0.00     0.160 A 
ATOM     19  HN  UNL     1     -46.413 -47.219   9.995  1.00  0.00     0.186 HD
HETATM   20  S   UNL     1     -43.527 -47.666   7.981  1.00  0.00    -0.046 SA
ENDBRANCH   4  14
TORSDOF 2
ENDMDL
