MODEL 1
REMARK VINA RESULT:      -6.3      0.000      0.000
REMARK  5 active torsions:
REMARK  status: ('A' for Active; 'I' for Inactive)
REMARK    1  A    between atoms: O_2  and  C_3 
REMARK    2  A    between atoms: C_9  and  N_10 
REMARK       I    between atoms: N_10  and  C_11 
REMARK       I    between atoms: C_11  and  N_13 
REMARK    3  A    between atoms: N_13  and  C_14 
REMARK    4  A    between atoms: C_14  and  C_15 
REMARK    5  A    between atoms: C_15  and  N_16 
ROOT
HETATM    1  N   UNL     1     -41.382 -48.683  10.480  1.00  0.00    -0.305 N 
HETATM    2  C   UNL     1     -41.418 -49.599  11.509  1.00  0.00     0.320 C 
HETATM    3  O   UNL     1     -41.793 -49.342  12.650  1.00  0.00    -0.247 OA
HETATM    4  N   UNL     1     -40.906 -50.839  11.184  1.00  0.00    -0.341 N 
HETATM    5  H   UNL     1     -41.473 -49.009   9.527  1.00  0.00     0.171 HD
HETATM    6  H   UNL     1     -41.040 -51.160  10.239  1.00  0.00     0.164 HD
ENDROOT
BRANCH   1   7
HETATM    7  C   UNL     1     -41.490 -47.275  10.681  1.00  0.00     0.087 A 
HETATM    8  C   UNL     1     -42.720 -46.610  10.626  1.00  0.00     0.169 A 
HETATM    9  N   UNL     1     -42.865 -45.264  10.734  1.00  0.00    -0.345 N 
HETATM   10  C   UNL     1     -41.752 -44.537  10.950  1.00  0.00     0.090 A 
ATOM     11  HN  UNL     1     -43.780 -44.821  10.654  1.00  0.00     0.167 HD
HETATM   12  C   UNL     1     -40.494 -45.094  11.063  1.00  0.00     0.019 A 
HETATM   13  C   UNL     1     -40.364 -46.472  10.911  1.00  0.00     0.035 A 
BRANCH   8  14
HETATM   14  O   UNL     1     -43.871 -47.373  10.493  1.00  0.00    -0.339 OA
HETATM   15  C   UNL     1     -44.453 -47.181   9.198  1.00  0.00     0.211 C 
ENDBRANCH   8  14
ENDBRANCH   1   7
BRANCH   4  16
HETATM   16  C   UNL     1     -40.864 -51.837  12.255  1.00  0.00     0.154 C 
BRANCH  16  17
HETATM   17  C   UNL     1     -42.120 -52.720  12.389  1.00  0.00     0.292 C 
BRANCH  17  18
HETATM   18  N   UNL     1     -42.906 -52.437  13.611  1.00  0.00     0.090 N 
HETATM   19  C   UNL     1     -43.137 -53.598  14.487  1.00  0.00     0.272 C 
HETATM   20  C   UNL     1     -44.165 -54.604  13.963  1.00  0.00     0.031 C 
HETATM   21  C   UNL     1     -45.474 -53.930  13.563  1.00  0.00     0.007 C 
HETATM   22  C   UNL     1     -45.228 -52.715  12.665  1.00  0.00     0.010 C 
HETATM   23  C   UNL     1     -46.530 -51.968  12.389  1.00  0.00     0.011 C 
HETATM   24  C   UNL     1     -44.189 -51.779  13.311  1.00  0.00     0.276 C 
ENDBRANCH  17  18
ENDBRANCH  16  17
ENDBRANCH   4  16
TORSDOF 5
ENDMDL
MODEL 2
REMARK VINA RESULT:      -6.3      0.922      1.373
REMARK  5 active torsions:
REMARK  status: ('A' for Active; 'I' for Inactive)
REMARK    1  A    between atoms: O_2  and  C_3 
REMARK    2  A    between atoms: C_9  and  N_10 
REMARK       I    between atoms: N_10  and  C_11 
REMARK       I    between atoms: C_11  and  N_13 
REMARK    3  A    between atoms: N_13  and  C_14 
REMARK    4  A    between atoms: C_14  and  C_15 
REMARK    5  A    between atoms: C_15  and  N_16 
ROOT
HETATM    1  N   UNL     1     -41.279 -48.666  10.454  1.00  0.00    -0.305 N 
HETATM    2  C   UNL     1     -41.369 -49.602  11.461  1.00  0.00     0.320 C 
HETATM    3  O   UNL     1     -41.848 -49.380  12.571  1.00  0.00    -0.247 OA
HETATM    4  N   UNL     1     -40.787 -50.817  11.162  1.00  0.00    -0.341 N 
HETATM    5  H   UNL     1     -41.278 -48.976   9.491  1.00  0.00     0.171 HD
HETATM    6  H   UNL     1     -40.829 -51.125  10.204  1.00  0.00     0.164 HD
ENDROOT
BRANCH   1   7
HETATM    7  C   UNL     1     -41.455 -47.266  10.668  1.00  0.00     0.087 A 
HETATM    8  C   UNL     1     -42.681 -46.630  10.447  1.00  0.00     0.169 A 
HETATM    9  N   UNL     1     -42.878 -45.291  10.562  1.00  0.00    -0.345 N 
HETATM   10  C   UNL     1     -41.829 -44.543  10.955  1.00  0.00     0.090 A 
ATOM     11  HN  UNL     1     -43.783 -44.869  10.358  1.00  0.00     0.167 HD
HETATM   12  C   UNL     1     -40.586 -45.072  11.238  1.00  0.00     0.019 A 
HETATM   13  C   UNL     1     -40.397 -46.442  11.077  1.00  0.00     0.035 A 
BRANCH   8  14
HETATM   14  O   UNL     1     -43.779 -47.417  10.130  1.00  0.00    -0.339 OA
HETATM   15  C   UNL     1     -44.067 -47.335   8.729  1.00  0.00     0.211 C 
ENDBRANCH   8  14
ENDBRANCH   1   7
BRANCH   4  16
HETATM   16  C   UNL     1     -40.799 -51.833  12.216  1.00  0.00     0.154 C 
BRANCH  16  17
HETATM   17  C   UNL     1     -42.116 -52.620  12.363  1.00  0.00     0.292 C 
BRANCH  17  18
HETATM   18  N   UNL     1     -42.745 -52.464  13.695  1.00  0.00     0.090 N 
HETATM   19  C   UNL     1     -41.928 -52.930  14.828  1.00  0.00     0.272 C 
HETATM   20  C   UNL     1     -41.828 -54.452  14.966  1.00  0.00     0.031 C 
HETATM   21  C   UNL     1     -43.200 -55.121  14.945  1.00  0.00     0.007 C 
HETATM   22  C   UNL     1     -44.050 -54.621  13.774  1.00  0.00     0.010 C 
HETATM   23  C   UNL     1     -45.465 -55.189  13.847  1.00  0.00     0.011 C 
HETATM   24  C   UNL     1     -44.080 -53.082  13.758  1.00  0.00     0.276 C 
ENDBRANCH  17  18
ENDBRANCH  16  17
ENDBRANCH   4  16
TORSDOF 5
ENDMDL
MODEL 3
REMARK VINA RESULT:      -6.2      1.646      2.967
REMARK  5 active torsions:
REMARK  status: ('A' for Active; 'I' for Inactive)
REMARK    1  A    between atoms: O_2  and  C_3 
REMARK    2  A    between atoms: C_9  and  N_10 
REMARK       I    between atoms: N_10  and  C_11 
REMARK       I    between atoms: C_11  and  N_13 
REMARK    3  A    between atoms: N_13  and  C_14 
REMARK    4  A    between atoms: C_14  and  C_15 
REMARK    5  A    between atoms: C_15  and  N_16 
ROOT
HETATM    1  N   UNL     1     -41.988 -48.175   9.566  1.00  0.00    -0.305 N 
HETATM    2  C   UNL     1     -41.666 -48.690  10.803  1.00  0.00     0.320 C 
HETATM    3  O   UNL     1     -42.417 -48.674  11.775  1.00  0.00    -0.247 OA
HETATM    4  N   UNL     1     -40.372 -49.158  10.905  1.00  0.00    -0.341 N 
HETATM    5  H   UNL     1     -41.549 -48.563   8.741  1.00  0.00     0.171 HD
HETATM    6  H   UNL     1     -39.966 -49.574  10.082  1.00  0.00     0.164 HD
ENDROOT
BRANCH   1   7
HETATM    7  C   UNL     1     -43.099 -47.309   9.343  1.00  0.00     0.087 A 
HETATM    8  C   UNL     1     -43.009 -45.925   9.528  1.00  0.00     0.169 A 
HETATM    9  N   UNL     1     -44.057 -45.069   9.403  1.00  0.00    -0.345 N 
HETATM   10  C   UNL     1     -45.242 -45.592   9.036  1.00  0.00     0.090 A 
ATOM     11  HN  UNL     1     -43.950 -44.071   9.581  1.00  0.00     0.167 HD
HETATM   12  C   UNL     1     -45.433 -46.936   8.787  1.00  0.00     0.019 A 
HETATM   13  C   UNL     1     -44.355 -47.800   8.958  1.00  0.00     0.035 A 
BRANCH   8  14
HETATM   14  O   UNL     1     -41.766 -45.383   9.819  1.00  0.00    -0.339 OA
HETATM   15  C   UNL     1     -41.747 -44.858  11.152  1.00  0.00     0.211 C 
ENDBRANCH   8  14
ENDBRANCH   1   7
BRANCH   4  16
HETATM   16  C   UNL     1     -39.953 -49.663  12.213  1.00  0.00     0.154 C 
BRANCH  16  17
HETATM   17  C   UNL     1     -39.836 -51.195  12.327  1.00  0.00     0.292 C 
BRANCH  17  18
HETATM   18  N   UNL     1     -40.332 -51.726  13.617  1.00  0.00     0.090 N 
HETATM   19  C   UNL     1     -40.048 -53.151  13.856  1.00  0.00     0.272 C 
HETATM   20  C   UNL     1     -40.903 -54.122  13.038  1.00  0.00     0.031 C 
HETATM   21  C   UNL     1     -42.393 -53.816  13.157  1.00  0.00     0.007 C 
HETATM   22  C   UNL     1     -42.680 -52.330  12.924  1.00  0.00     0.010 C 
HETATM   23  C   UNL     1     -44.150 -52.012  13.186  1.00  0.00     0.011 C 
HETATM   24  C   UNL     1     -41.768 -51.466  13.814  1.00  0.00     0.276 C 
ENDBRANCH  17  18
ENDBRANCH  16  17
ENDBRANCH   4  16
TORSDOF 5
ENDMDL
MODEL 4
REMARK VINA RESULT:      -6.1      1.848      7.119
REMARK  5 active torsions:
REMARK  status: ('A' for Active; 'I' for Inactive)
REMARK    1  A    between atoms: O_2  and  C_3 
REMARK    2  A    between atoms: C_9  and  N_10 
REMARK       I    between atoms: N_10  and  C_11 
REMARK       I    between atoms: C_11  and  N_13 
REMARK    3  A    between atoms: N_13  and  C_14 
REMARK    4  A    between atoms: C_14  and  C_15 
REMARK    5  A    between atoms: C_15  and  N_16 
ROOT
HETATM    1  N   UNL     1     -43.581 -52.688  12.062  1.00  0.00    -0.305 N 
HETATM    2  C   UNL     1     -42.589 -51.916  12.627  1.00  0.00     0.320 C 
HETATM    3  O   UNL     1     -42.293 -51.935  13.819  1.00  0.00    -0.247 OA
HETATM    4  N   UNL     1     -41.993 -51.029  11.754  1.00  0.00    -0.341 N 
HETATM    5  H   UNL     1     -43.511 -52.945  11.086  1.00  0.00     0.171 HD
HETATM    6  H   UNL     1     -41.899 -51.319  10.794  1.00  0.00     0.164 HD
ENDROOT
BRANCH   1   7
HETATM    7  C   UNL     1     -44.570 -53.374  12.827  1.00  0.00     0.087 A 
HETATM    8  C   UNL     1     -45.806 -52.793  13.134  1.00  0.00     0.169 A 
HETATM    9  N   UNL     1     -46.747 -53.374  13.922  1.00  0.00    -0.345 N 
HETATM   10  C   UNL     1     -46.483 -54.606  14.397  1.00  0.00     0.090 A 
ATOM     11  HN  UNL     1     -47.620 -52.896  14.145  1.00  0.00     0.167 HD
HETATM   12  C   UNL     1     -45.315 -55.288  14.122  1.00  0.00     0.019 A 
HETATM   13  C   UNL     1     -44.348 -54.658  13.344  1.00  0.00     0.035 A 
BRANCH   8  14
HETATM   14  O   UNL     1     -46.109 -51.562  12.569  1.00  0.00    -0.339 OA
HETATM   15  C   UNL     1     -47.051 -51.719  11.502  1.00  0.00     0.211 C 
ENDBRANCH   8  14
ENDBRANCH   1   7
BRANCH   4  16
HETATM   16  C   UNL     1     -40.972 -50.140  12.310  1.00  0.00     0.154 C 
BRANCH  16  17
HETATM   17  C   UNL     1     -41.301 -48.636  12.259  1.00  0.00     0.292 C 
BRANCH  17  18
HETATM   18  N   UNL     1     -41.000 -48.016  10.948  1.00  0.00     0.090 N 
HETATM   19  C   UNL     1     -40.441 -46.655  11.016  1.00  0.00     0.272 C 
HETATM   20  C   UNL     1     -41.449 -45.564  11.389  1.00  0.00     0.031 C 
HETATM   21  C   UNL     1     -42.701 -45.618  10.519  1.00  0.00     0.007 C 
HETATM   22  C   UNL     1     -43.268 -47.038  10.439  1.00  0.00     0.010 C 
HETATM   23  C   UNL     1     -44.433 -47.105   9.455  1.00  0.00     0.011 C 
HETATM   24  C   UNL     1     -42.161 -48.031  10.042  1.00  0.00     0.276 C 
ENDBRANCH  17  18
ENDBRANCH  16  17
ENDBRANCH   4  16
TORSDOF 5
ENDMDL
MODEL 5
REMARK VINA RESULT:      -5.9      2.048      7.191
REMARK  5 active torsions:
REMARK  status: ('A' for Active; 'I' for Inactive)
REMARK    1  A    between atoms: O_2  and  C_3 
REMARK    2  A    between atoms: C_9  and  N_10 
REMARK       I    between atoms: N_10  and  C_11 
REMARK       I    between atoms: C_11  and  N_13 
REMARK    3  A    between atoms: N_13  and  C_14 
REMARK    4  A    between atoms: C_14  and  C_15 
REMARK    5  A    between atoms: C_15  and  N_16 
ROOT
HETATM    1  N   UNL     1     -43.507 -52.721  12.173  1.00  0.00    -0.305 N 
HETATM    2  C   UNL     1     -42.349 -52.054  12.505  1.00  0.00     0.320 C 
HETATM    3  O   UNL     1     -42.080 -51.655  13.636  1.00  0.00    -0.247 OA
HETATM    4  N   UNL     1     -41.525 -51.777  11.433  1.00  0.00    -0.341 N 
HETATM    5  H   UNL     1     -43.500 -53.363  11.392  1.00  0.00     0.171 HD
HETATM    6  H   UNL     1     -41.504 -52.448  10.682  1.00  0.00     0.164 HD
ENDROOT
BRANCH   1   7
HETATM    7  C   UNL     1     -44.654 -52.769  13.021  1.00  0.00     0.087 A 
HETATM    8  C   UNL     1     -44.955 -53.893  13.798  1.00  0.00     0.169 A 
HETATM    9  N   UNL     1     -46.073 -54.017  14.560  1.00  0.00    -0.345 N 
HETATM   10  C   UNL     1     -46.916 -52.967  14.596  1.00  0.00     0.090 A 
ATOM     11  HN  UNL     1     -46.266 -54.870  15.083  1.00  0.00     0.167 HD
HETATM   12  C   UNL     1     -46.696 -51.795  13.902  1.00  0.00     0.019 A 
HETATM   13  C   UNL     1     -45.563 -51.705  13.098  1.00  0.00     0.035 A 
BRANCH   8  14
HETATM   14  O   UNL     1     -44.038 -54.934  13.826  1.00  0.00    -0.339 OA
HETATM   15  C   UNL     1     -43.336 -54.950  15.075  1.00  0.00     0.211 C 
ENDBRANCH   8  14
ENDBRANCH   1   7
BRANCH   4  16
HETATM   16  C   UNL     1     -40.306 -51.017  11.715  1.00  0.00     0.154 C 
BRANCH  16  17
HETATM   17  C   UNL     1     -40.286 -49.571  11.183  1.00  0.00     0.292 C 
BRANCH  17  18
HETATM   18  N   UNL     1     -40.564 -48.559  12.228  1.00  0.00     0.090 N 
HETATM   19  C   UNL     1     -41.991 -48.339  12.518  1.00  0.00     0.272 C 
HETATM   20  C   UNL     1     -42.751 -47.555  11.444  1.00  0.00     0.031 C 
HETATM   21  C   UNL     1     -42.043 -46.256  11.073  1.00  0.00     0.007 C 
HETATM   22  C   UNL     1     -40.557 -46.489  10.788  1.00  0.00     0.010 C 
HETATM   23  C   UNL     1     -39.832 -45.164  10.559  1.00  0.00     0.011 C 
HETATM   24  C   UNL     1     -39.910 -47.270  11.946  1.00  0.00     0.276 C 
ENDBRANCH  17  18
ENDBRANCH  16  17
ENDBRANCH   4  16
TORSDOF 5
ENDMDL
MODEL 6
REMARK VINA RESULT:      -5.8      2.601      4.448
REMARK  5 active torsions:
REMARK  status: ('A' for Active; 'I' for Inactive)
REMARK    1  A    between atoms: O_2  and  C_3 
REMARK    2  A    between atoms: C_9  and  N_10 
REMARK       I    between atoms: N_10  and  C_11 
REMARK       I    between atoms: C_11  and  N_13 
REMARK    3  A    between atoms: N_13  and  C_14 
REMARK    4  A    between atoms: C_14  and  C_15 
REMARK    5  A    between atoms: C_15  and  N_16 
ROOT
HETATM    1  N   UNL     1     -40.490 -51.473  13.785  1.00  0.00    -0.305 N 
HETATM    2  C   UNL     1     -41.149 -52.664  13.575  1.00  0.00     0.320 C 
HETATM    3  O   UNL     1     -40.761 -53.543  12.808  1.00  0.00    -0.247 OA
HETATM    4  N   UNL     1     -42.356 -52.771  14.235  1.00  0.00    -0.341 N 
HETATM    5  H   UNL     1     -40.597 -51.000  14.673  1.00  0.00     0.171 HD
HETATM    6  H   UNL     1     -42.430 -52.324  15.135  1.00  0.00     0.164 HD
ENDROOT
BRANCH   1   7
HETATM    7  C   UNL     1     -39.452 -50.991  12.933  1.00  0.00     0.087 A 
HETATM    8  C   UNL     1     -39.726 -50.280  11.759  1.00  0.00     0.169 A 
HETATM    9  N   UNL     1     -38.779 -49.868  10.878  1.00  0.00    -0.345 N 
HETATM   10  C   UNL     1     -37.493 -50.128  11.185  1.00  0.00     0.090 A 
ATOM     11  HN  UNL     1     -39.031 -49.382  10.018  1.00  0.00     0.167 HD
HETATM   12  C   UNL     1     -37.108 -50.785  12.336  1.00  0.00     0.019 A 
HETATM   13  C   UNL     1     -38.098 -51.232  13.206  1.00  0.00     0.035 A 
BRANCH   8  14
HETATM   14  O   UNL     1     -41.045 -49.938  11.494  1.00  0.00    -0.339 OA
HETATM   15  C   UNL     1     -41.133 -48.572  11.073  1.00  0.00     0.211 C 
ENDBRANCH   8  14
ENDBRANCH   1   7
BRANCH   4  16
HETATM   16  C   UNL     1     -43.130 -53.991  14.003  1.00  0.00     0.154 C 
BRANCH  16  17
HETATM   17  C   UNL     1     -44.339 -54.198  14.936  1.00  0.00     0.292 C 
BRANCH  17  18
HETATM   18  N   UNL     1     -45.641 -54.088  14.239  1.00  0.00     0.090 N 
HETATM   19  C   UNL     1     -45.610 -53.331  12.976  1.00  0.00     0.272 C 
HETATM   20  C   UNL     1     -45.481 -51.814  13.140  1.00  0.00     0.031 C 
HETATM   21  C   UNL     1     -46.515 -51.252  14.111  1.00  0.00     0.007 C 
HETATM   22  C   UNL     1     -46.553 -52.052  15.415  1.00  0.00     0.010 C 
HETATM   23  C   UNL     1     -47.686 -51.570  16.318  1.00  0.00     0.011 C 
HETATM   24  C   UNL     1     -46.700 -53.555  15.113  1.00  0.00     0.276 C 
ENDBRANCH  17  18
ENDBRANCH  16  17
ENDBRANCH   4  16
TORSDOF 5
ENDMDL
MODEL 7
REMARK VINA RESULT:      -5.8      2.008      7.659
REMARK  5 active torsions:
REMARK  status: ('A' for Active; 'I' for Inactive)
REMARK    1  A    between atoms: O_2  and  C_3 
REMARK    2  A    between atoms: C_9  and  N_10 
REMARK       I    between atoms: N_10  and  C_11 
REMARK       I    between atoms: C_11  and  N_13 
REMARK    3  A    between atoms: N_13  and  C_14 
REMARK    4  A    between atoms: C_14  and  C_15 
REMARK    5  A    between atoms: C_15  and  N_16 
ROOT
HETATM    1  N   UNL     1     -42.929 -52.550  12.049  1.00  0.00    -0.305 N 
HETATM    2  C   UNL     1     -42.264 -51.455  12.555  1.00  0.00     0.320 C 
HETATM    3  O   UNL     1     -42.086 -51.246  13.753  1.00  0.00    -0.247 OA
HETATM    4  N   UNL     1     -41.878 -50.534  11.602  1.00  0.00    -0.341 N 
HETATM    5  H   UNL     1     -42.697 -52.883  11.122  1.00  0.00     0.171 HD
HETATM    6  H   UNL     1     -41.615 -50.890  10.697  1.00  0.00     0.164 HD
ENDROOT
BRANCH   1   7
HETATM    7  C   UNL     1     -43.739 -53.412  12.847  1.00  0.00     0.087 A 
HETATM    8  C   UNL     1     -45.136 -53.390  12.779  1.00  0.00     0.169 A 
HETATM    9  N   UNL     1     -45.950 -54.134  13.571  1.00  0.00    -0.345 N 
HETATM   10  C   UNL     1     -45.364 -54.976  14.443  1.00  0.00     0.090 A 
ATOM     11  HN  UNL     1     -46.965 -54.059  13.507  1.00  0.00     0.167 HD
HETATM   12  C   UNL     1     -43.995 -55.108  14.565  1.00  0.00     0.019 A 
HETATM   13  C   UNL     1     -43.180 -54.308  13.770  1.00  0.00     0.035 A 
BRANCH   8  14
HETATM   14  O   UNL     1     -45.732 -52.588  11.816  1.00  0.00    -0.339 OA
HETATM   15  C   UNL     1     -46.613 -51.639  12.429  1.00  0.00     0.211 C 
ENDBRANCH   8  14
ENDBRANCH   1   7
BRANCH   4  16
HETATM   16  C   UNL     1     -41.219 -49.320  12.086  1.00  0.00     0.154 C 
BRANCH  16  17
HETATM   17  C   UNL     1     -41.062 -48.191  11.048  1.00  0.00     0.292 C 
BRANCH  17  18
HETATM   18  N   UNL     1     -41.667 -46.911  11.480  1.00  0.00     0.090 N 
HETATM   19  C   UNL     1     -41.572 -45.815  10.501  1.00  0.00     0.272 C 
HETATM   20  C   UNL     1     -40.177 -45.199  10.359  1.00  0.00     0.031 C 
HETATM   21  C   UNL     1     -39.585 -44.804  11.709  1.00  0.00     0.007 C 
HETATM   22  C   UNL     1     -39.701 -45.941  12.727  1.00  0.00     0.010 C 
HETATM   23  C   UNL     1     -39.237 -45.486  14.109  1.00  0.00     0.011 C 
HETATM   24  C   UNL     1     -41.150 -46.459  12.783  1.00  0.00     0.276 C 
ENDBRANCH  17  18
ENDBRANCH  16  17
ENDBRANCH   4  16
TORSDOF 5
ENDMDL
MODEL 8
REMARK VINA RESULT:      -5.5      2.386      3.693
REMARK  5 active torsions:
REMARK  status: ('A' for Active; 'I' for Inactive)
REMARK    1  A    between atoms: O_2  and  C_3 
REMARK    2  A    between atoms: C_9  and  N_10 
REMARK       I    between atoms: N_10  and  C_11 
REMARK       I    between atoms: C_11  and  N_13 
REMARK    3  A    between atoms: N_13  and  C_14 
REMARK    4  A    between atoms: C_14  and  C_15 
REMARK    5  A    between atoms: C_15  and  N_16 
ROOT
HETATM    1  N   UNL     1     -43.056 -48.610  11.516  1.00  0.00    -0.305 N 
HETATM    2  C   UNL     1     -41.887 -49.335  11.461  1.00  0.00     0.320 C 
HETATM    3  O   UNL     1     -40.857 -48.946  10.914  1.00  0.00    -0.247 OA
HETATM    4  N   UNL     1     -41.977 -50.603  11.999  1.00  0.00    -0.341 N 
HETATM    5  H   UNL     1     -43.695 -48.763  12.286  1.00  0.00     0.171 HD
HETATM    6  H   UNL     1     -42.590 -50.726  12.789  1.00  0.00     0.164 HD
ENDROOT
BRANCH   1   7
HETATM    7  C   UNL     1     -43.308 -47.465  10.704  1.00  0.00     0.087 A 
HETATM    8  C   UNL     1     -42.903 -46.181  11.085  1.00  0.00     0.169 A 
HETATM    9  N   UNL     1     -43.185 -45.053  10.385  1.00  0.00    -0.345 N 
HETATM   10  C   UNL     1     -43.862 -45.195   9.229  1.00  0.00     0.090 A 
ATOM     11  HN  UNL     1     -42.897 -44.134  10.721  1.00  0.00     0.167 HD
HETATM   12  C   UNL     1     -44.274 -46.417   8.738  1.00  0.00     0.019 A 
HETATM   13  C   UNL     1     -44.006 -47.557   9.492  1.00  0.00     0.035 A 
BRANCH   8  14
HETATM   14  O   UNL     1     -42.129 -46.052  12.230  1.00  0.00    -0.339 OA
HETATM   15  C   UNL     1     -42.417 -44.815  12.893  1.00  0.00     0.211 C 
ENDBRANCH   8  14
ENDBRANCH   1   7
BRANCH   4  16
HETATM   16  C   UNL     1     -40.780 -51.443  11.916  1.00  0.00     0.154 C 
BRANCH  16  17
HETATM   17  C   UNL     1     -40.428 -52.225  13.196  1.00  0.00     0.292 C 
BRANCH  17  18
HETATM   18  N   UNL     1     -40.585 -53.690  13.048  1.00  0.00     0.090 N 
HETATM   19  C   UNL     1     -41.930 -54.207  13.353  1.00  0.00     0.272 C 
HETATM   20  C   UNL     1     -42.283 -54.241  14.843  1.00  0.00     0.031 C 
HETATM   21  C   UNL     1     -41.208 -54.938  15.671  1.00  0.00     0.007 C 
HETATM   22  C   UNL     1     -39.811 -54.408  15.338  1.00  0.00     0.010 C 
HETATM   23  C   UNL     1     -38.735 -55.210  16.067  1.00  0.00     0.011 C 
HETATM   24  C   UNL     1     -39.578 -54.441  13.817  1.00  0.00     0.276 C 
ENDBRANCH  17  18
ENDBRANCH  16  17
ENDBRANCH   4  16
TORSDOF 5
ENDMDL
MODEL 9
REMARK VINA RESULT:      -5.4      3.011      7.048
REMARK  5 active torsions:
REMARK  status: ('A' for Active; 'I' for Inactive)
REMARK    1  A    between atoms: O_2  and  C_3 
REMARK    2  A    between atoms: C_9  and  N_10 
REMARK       I    between atoms: N_10  and  C_11 
REMARK       I    between atoms: C_11  and  N_13 
REMARK    3  A    between atoms: N_13  and  C_14 
REMARK    4  A    between atoms: C_14  and  C_15 
REMARK    5  A    between atoms: C_15  and  N_16 
ROOT
HETATM    1  N   UNL     1     -43.924 -52.026  12.438  1.00  0.00    -0.305 N 
HETATM    2  C   UNL     1     -43.319 -51.000  13.129  1.00  0.00     0.320 C 
HETATM    3  O   UNL     1     -43.235 -50.946  14.354  1.00  0.00    -0.247 OA
HETATM    4  N   UNL     1     -42.880 -49.960  12.334  1.00  0.00    -0.341 N 
HETATM    5  H   UNL     1     -43.617 -52.235  11.496  1.00  0.00     0.171 HD
HETATM    6  H   UNL     1     -42.544 -50.193  11.414  1.00  0.00     0.164 HD
ENDROOT
BRANCH   1   7
HETATM    7  C   UNL     1     -44.775 -52.991  13.054  1.00  0.00     0.087 A 
HETATM    8  C   UNL     1     -46.122 -52.727  13.324  1.00  0.00     0.169 A 
HETATM    9  N   UNL     1     -46.951 -53.582  13.977  1.00  0.00    -0.345 N 
HETATM   10  C   UNL     1     -46.445 -54.775  14.344  1.00  0.00     0.090 A 
ATOM     11  HN  UNL     1     -47.918 -53.331  14.181  1.00  0.00     0.167 HD
HETATM   12  C   UNL     1     -45.142 -55.156  14.091  1.00  0.00     0.019 A 
HETATM   13  C   UNL     1     -44.300 -54.248  13.455  1.00  0.00     0.035 A 
BRANCH   8  14
HETATM   14  O   UNL     1     -46.660 -51.534  12.864  1.00  0.00    -0.339 OA
HETATM   15  C   UNL     1     -47.208 -51.704  11.551  1.00  0.00     0.211 C 
ENDBRANCH   8  14
ENDBRANCH   1   7
BRANCH   4  16
HETATM   16  C   UNL     1     -42.282 -48.813  13.019  1.00  0.00     0.154 C 
BRANCH  16  17
HETATM   17  C   UNL     1     -40.762 -48.900  13.257  1.00  0.00     0.292 C 
BRANCH  17  18
HETATM   18  N   UNL     1     -40.232 -50.279  13.154  1.00  0.00     0.090 N 
HETATM   19  C   UNL     1     -39.545 -50.774  14.359  1.00  0.00     0.272 C 
HETATM   20  C   UNL     1     -38.157 -50.174  14.600  1.00  0.00     0.031 C 
HETATM   21  C   UNL     1     -37.268 -50.270  13.364  1.00  0.00     0.007 C 
HETATM   22  C   UNL     1     -37.992 -49.769  12.112  1.00  0.00     0.010 C 
HETATM   23  C   UNL     1     -37.146 -50.002  10.863  1.00  0.00     0.011 C 
HETATM   24  C   UNL     1     -39.363 -50.458  11.979  1.00  0.00     0.276 C 
ENDBRANCH  17  18
ENDBRANCH  16  17
ENDBRANCH   4  16
TORSDOF 5
ENDMDL
