MODEL 1
REMARK VINA RESULT:      -5.5      0.000      0.000
REMARK  5 active torsions:
REMARK  status: ('A' for Active; 'I' for Inactive)
REMARK    1  A    between atoms: N_7  and  C_8 
REMARK    2  A    between atoms: C_8  and  C_9 
REMARK       I    between atoms: C_9  and  N_11 
REMARK    3  A    between atoms: N_11  and  C_12 
REMARK    4  A    between atoms: C_12  and  C_13 
REMARK    5  A    between atoms: C_13  and  C_14 
REMARK       I    between atoms: C_14  and  N_16 
ROOT
HETATM    1  C   UNL     1     -40.875 -53.250  12.893  1.00  0.00     0.235 C 
HETATM    2  O   UNL     1     -39.877 -53.943  13.098  1.00  0.00    -0.272 OA
HETATM    3  N   UNL     1     -42.069 -53.455  13.548  1.00  0.00    -0.359 N 
HETATM    4  H   UNL     1     -42.745 -52.693  13.599  1.00  0.00     0.162 HD
ENDROOT
BRANCH   3   5
HETATM    5  C   UNL     1     -42.286 -54.597  14.420  1.00  0.00     0.132 C 
BRANCH   5   6
HETATM    6  C   UNL     1     -43.753 -54.901  14.697  1.00  0.00     0.122 C 
BRANCH   6   7
HETATM    7  C   UNL     1     -44.669 -54.154  13.748  1.00  0.00     0.221 C 
HETATM    8  O   UNL     1     -44.912 -54.570  12.614  1.00  0.00    -0.273 OA
HETATM    9  N   UNL     1     -45.258 -53.011  14.238  1.00  0.00    -0.352 N 
HETATM   10  C   UNL     1     -46.221 -52.273  13.446  1.00  0.00     0.126 C 
HETATM   11  C   UNL     1     -44.981 -52.319  15.481  1.00  0.00     0.126 C 
HETATM   12  C   UNL     1     -46.895 -51.311  14.420  1.00  0.00     0.021 C 
HETATM   13  C   UNL     1     -46.299 -51.633  15.790  1.00  0.00     0.021 C 
ENDBRANCH   6   7
ENDBRANCH   5   6
ENDBRANCH   3   5
BRANCH   1  14
HETATM   14  C   UNL     1     -40.871 -52.109  11.874  1.00  0.00     0.235 C 
BRANCH  14  15
HETATM   15  N   UNL     1     -40.505 -50.819  12.421  1.00  0.00    -0.303 N 
HETATM   16  C   UNL     1     -41.383 -49.880  12.948  1.00  0.00     0.018 A 
HETATM   17  C   UNL     1     -42.867 -50.042  12.902  1.00  0.00     0.069 C 
HETATM   18  C   UNL     1     -40.761 -48.830  13.501  1.00  0.00     0.080 A 
HETATM   19  S   UNL     1     -39.034 -48.950  13.377  1.00  0.00    -0.039 SA
HETATM   20  C   UNL     1     -39.161 -50.496  12.534  1.00  0.00     0.290 A 
HETATM   21  O   UNL     1     -38.202 -51.154  12.154  1.00  0.00    -0.259 OA
ENDBRANCH  14  15
ENDBRANCH   1  14
TORSDOF 5
ENDMDL
MODEL 2
REMARK VINA RESULT:      -5.5      2.947      5.873
REMARK  5 active torsions:
REMARK  status: ('A' for Active; 'I' for Inactive)
REMARK    1  A    between atoms: N_7  and  C_8 
REMARK    2  A    between atoms: C_8  and  C_9 
REMARK       I    between atoms: C_9  and  N_11 
REMARK    3  A    between atoms: N_11  and  C_12 
REMARK    4  A    between atoms: C_12  and  C_13 
REMARK    5  A    between atoms: C_13  and  C_14 
REMARK       I    between atoms: C_14  and  N_16 
ROOT
HETATM    1  C   UNL     1     -43.368 -53.767  13.010  1.00  0.00     0.235 C 
HETATM    2  O   UNL     1     -42.488 -54.345  13.650  1.00  0.00    -0.272 OA
HETATM    3  N   UNL     1     -43.091 -52.785  12.085  1.00  0.00    -0.359 N 
HETATM    4  H   UNL     1     -43.783 -52.569  11.367  1.00  0.00     0.162 HD
ENDROOT
BRANCH   3   5
HETATM    5  C   UNL     1     -41.752 -52.253  11.901  1.00  0.00     0.132 C 
BRANCH   5   6
HETATM    6  C   UNL     1     -41.444 -51.028  12.753  1.00  0.00     0.122 C 
BRANCH   6   7
HETATM    7  C   UNL     1     -42.541 -49.986  12.653  1.00  0.00     0.221 C 
HETATM    8  O   UNL     1     -43.582 -50.070  13.306  1.00  0.00    -0.273 OA
HETATM    9  N   UNL     1     -42.290 -48.910  11.832  1.00  0.00    -0.352 N 
HETATM   10  C   UNL     1     -43.232 -47.814  11.735  1.00  0.00     0.126 C 
HETATM   11  C   UNL     1     -41.193 -48.725  10.903  1.00  0.00     0.126 C 
HETATM   12  C   UNL     1     -42.475 -46.690  11.035  1.00  0.00     0.021 C 
HETATM   13  C   UNL     1     -41.053 -47.215  10.838  1.00  0.00     0.021 C 
ENDBRANCH   6   7
ENDBRANCH   5   6
ENDBRANCH   3   5
BRANCH   1  14
HETATM   14  C   UNL     1     -44.852 -54.085  13.208  1.00  0.00     0.235 C 
BRANCH  14  15
HETATM   15  N   UNL     1     -45.518 -53.249  14.185  1.00  0.00    -0.303 N 
HETATM   16  C   UNL     1     -46.332 -52.159  13.903  1.00  0.00     0.018 A 
HETATM   17  C   UNL     1     -46.527 -51.628  12.520  1.00  0.00     0.069 C 
HETATM   18  C   UNL     1     -46.921 -51.646  14.991  1.00  0.00     0.080 A 
HETATM   19  S   UNL     1     -46.475 -52.491  16.439  1.00  0.00    -0.039 SA
HETATM   20  C   UNL     1     -45.439 -53.592  15.526  1.00  0.00     0.290 A 
HETATM   21  O   UNL     1     -44.797 -54.506  16.025  1.00  0.00    -0.259 OA
ENDBRANCH  14  15
ENDBRANCH   1  14
TORSDOF 5
ENDMDL
MODEL 3
REMARK VINA RESULT:      -5.5      1.364      1.572
REMARK  5 active torsions:
REMARK  status: ('A' for Active; 'I' for Inactive)
REMARK    1  A    between atoms: N_7  and  C_8 
REMARK    2  A    between atoms: C_8  and  C_9 
REMARK       I    between atoms: C_9  and  N_11 
REMARK    3  A    between atoms: N_11  and  C_12 
REMARK    4  A    between atoms: C_12  and  C_13 
REMARK    5  A    between atoms: C_13  and  C_14 
REMARK       I    between atoms: C_14  and  N_16 
ROOT
HETATM    1  C   UNL     1     -40.013 -53.204  13.957  1.00  0.00     0.235 C 
HETATM    2  O   UNL     1     -39.518 -54.118  13.294  1.00  0.00    -0.272 OA
HETATM    3  N   UNL     1     -41.331 -53.204  14.353  1.00  0.00    -0.359 N 
HETATM    4  H   UNL     1     -41.612 -52.623  15.145  1.00  0.00     0.162 HD
ENDROOT
BRANCH   3   5
HETATM    5  C   UNL     1     -42.277 -54.206  13.894  1.00  0.00     0.132 C 
BRANCH   5   6
HETATM    6  C   UNL     1     -43.232 -53.716  12.813  1.00  0.00     0.122 C 
BRANCH   6   7
HETATM    7  C   UNL     1     -44.681 -53.891  13.224  1.00  0.00     0.221 C 
HETATM    8  O   UNL     1     -45.268 -54.966  13.101  1.00  0.00    -0.273 OA
HETATM    9  N   UNL     1     -45.292 -52.795  13.790  1.00  0.00    -0.352 N 
HETATM   10  C   UNL     1     -46.645 -52.882  14.300  1.00  0.00     0.126 C 
HETATM   11  C   UNL     1     -44.797 -51.436  13.882  1.00  0.00     0.126 C 
HETATM   12  C   UNL     1     -46.842 -51.624  15.141  1.00  0.00     0.021 C 
HETATM   13  C   UNL     1     -45.495 -50.902  15.120  1.00  0.00     0.021 C 
ENDBRANCH   6   7
ENDBRANCH   5   6
ENDBRANCH   3   5
BRANCH   1  14
HETATM   14  C   UNL     1     -39.197 -51.980  14.380  1.00  0.00     0.235 C 
BRANCH  14  15
HETATM   15  N   UNL     1     -39.003 -50.999  13.333  1.00  0.00    -0.303 N 
HETATM   16  C   UNL     1     -39.827 -49.909  13.077  1.00  0.00     0.018 A 
HETATM   17  C   UNL     1     -41.115 -49.680  13.796  1.00  0.00     0.069 C 
HETATM   18  C   UNL     1     -39.341 -49.093  12.132  1.00  0.00     0.080 A 
HETATM   19  S   UNL     1     -37.828 -49.655  11.494  1.00  0.00    -0.039 SA
HETATM   20  C   UNL     1     -37.855 -51.063  12.558  1.00  0.00     0.290 A 
HETATM   21  O   UNL     1     -36.978 -51.915  12.596  1.00  0.00    -0.259 OA
ENDBRANCH  14  15
ENDBRANCH   1  14
TORSDOF 5
ENDMDL
MODEL 4
REMARK VINA RESULT:      -5.4      1.381      1.873
REMARK  5 active torsions:
REMARK  status: ('A' for Active; 'I' for Inactive)
REMARK    1  A    between atoms: N_7  and  C_8 
REMARK    2  A    between atoms: C_8  and  C_9 
REMARK       I    between atoms: C_9  and  N_11 
REMARK    3  A    between atoms: N_11  and  C_12 
REMARK    4  A    between atoms: C_12  and  C_13 
REMARK    5  A    between atoms: C_13  and  C_14 
REMARK       I    between atoms: C_14  and  N_16 
ROOT
HETATM    1  C   UNL     1     -40.686 -52.739  12.779  1.00  0.00     0.235 C 
HETATM    2  O   UNL     1     -39.614 -53.178  13.198  1.00  0.00    -0.272 OA
HETATM    3  N   UNL     1     -41.904 -53.186  13.241  1.00  0.00    -0.359 N 
HETATM    4  H   UNL     1     -42.728 -52.596  13.120  1.00  0.00     0.162 HD
ENDROOT
BRANCH   3   5
HETATM    5  C   UNL     1     -42.020 -54.314  14.148  1.00  0.00     0.132 C 
BRANCH   5   6
HETATM    6  C   UNL     1     -43.455 -54.698  14.487  1.00  0.00     0.122 C 
BRANCH   6   7
HETATM    7  C   UNL     1     -44.451 -54.005  13.578  1.00  0.00     0.221 C 
HETATM    8  O   UNL     1     -44.692 -54.414  12.442  1.00  0.00    -0.273 OA
HETATM    9  N   UNL     1     -45.111 -52.921  14.110  1.00  0.00    -0.352 N 
HETATM   10  C   UNL     1     -46.148 -52.242  13.359  1.00  0.00     0.126 C 
HETATM   11  C   UNL     1     -44.853 -52.235  15.360  1.00  0.00     0.126 C 
HETATM   12  C   UNL     1     -46.867 -51.355  14.371  1.00  0.00     0.021 C 
HETATM   13  C   UNL     1     -46.211 -51.658  15.719  1.00  0.00     0.021 C 
ENDBRANCH   6   7
ENDBRANCH   5   6
ENDBRANCH   3   5
BRANCH   1  14
HETATM   14  C   UNL     1     -40.749 -51.664  11.691  1.00  0.00     0.235 C 
BRANCH  14  15
HETATM   15  N   UNL     1     -40.660 -50.306  12.186  1.00  0.00    -0.303 N 
HETATM   16  C   UNL     1     -39.530 -49.498  12.146  1.00  0.00     0.018 A 
HETATM   17  C   UNL     1     -38.198 -49.989  11.683  1.00  0.00     0.069 C 
HETATM   18  C   UNL     1     -39.765 -48.244  12.555  1.00  0.00     0.080 A 
HETATM   19  S   UNL     1     -41.416 -48.008  13.033  1.00  0.00    -0.039 SA
HETATM   20  C   UNL     1     -41.808 -49.689  12.661  1.00  0.00     0.290 A 
HETATM   21  O   UNL     1     -42.920 -50.182  12.789  1.00  0.00    -0.259 OA
ENDBRANCH  14  15
ENDBRANCH   1  14
TORSDOF 5
ENDMDL
MODEL 5
REMARK VINA RESULT:      -5.3      2.716      6.342
REMARK  5 active torsions:
REMARK  status: ('A' for Active; 'I' for Inactive)
REMARK    1  A    between atoms: N_7  and  C_8 
REMARK    2  A    between atoms: C_8  and  C_9 
REMARK       I    between atoms: C_9  and  N_11 
REMARK    3  A    between atoms: N_11  and  C_12 
REMARK    4  A    between atoms: C_12  and  C_13 
REMARK    5  A    between atoms: C_13  and  C_14 
REMARK       I    between atoms: C_14  and  N_16 
ROOT
HETATM    1  C   UNL     1     -43.898 -54.882  14.283  1.00  0.00     0.235 C 
HETATM    2  O   UNL     1     -43.411 -55.677  15.089  1.00  0.00    -0.272 OA
HETATM    3  N   UNL     1     -43.127 -54.102  13.452  1.00  0.00    -0.359 N 
HETATM    4  H   UNL     1     -43.545 -53.715  12.604  1.00  0.00     0.162 HD
ENDROOT
BRANCH   3   5
HETATM    5  C   UNL     1     -41.680 -54.047  13.566  1.00  0.00     0.132 C 
BRANCH   5   6
HETATM    6  C   UNL     1     -41.138 -52.690  14.000  1.00  0.00     0.122 C 
BRANCH   6   7
HETATM    7  C   UNL     1     -40.930 -51.765  12.818  1.00  0.00     0.221 C 
HETATM    8  O   UNL     1     -41.829 -51.525  12.011  1.00  0.00    -0.273 OA
HETATM    9  N   UNL     1     -39.696 -51.164  12.722  1.00  0.00    -0.352 N 
HETATM   10  C   UNL     1     -39.422 -50.192  11.683  1.00  0.00     0.126 C 
HETATM   11  C   UNL     1     -38.501 -51.436  13.495  1.00  0.00     0.126 C 
HETATM   12  C   UNL     1     -38.123 -49.509  12.099  1.00  0.00     0.021 C 
HETATM   13  C   UNL     1     -37.761 -50.110  13.457  1.00  0.00     0.021 C 
ENDBRANCH   6   7
ENDBRANCH   5   6
ENDBRANCH   3   5
BRANCH   1  14
HETATM   14  C   UNL     1     -45.410 -54.687  14.154  1.00  0.00     0.235 C 
BRANCH  14  15
HETATM   15  N   UNL     1     -45.918 -53.497  14.805  1.00  0.00    -0.303 N 
HETATM   16  C   UNL     1     -46.318 -52.329  14.167  1.00  0.00     0.018 A 
HETATM   17  C   UNL     1     -46.155 -52.110  12.699  1.00  0.00     0.069 C 
HETATM   18  C   UNL     1     -46.865 -51.435  15.001  1.00  0.00     0.080 A 
HETATM   19  S   UNL     1     -46.895 -52.000  16.642  1.00  0.00    -0.039 SA
HETATM   20  C   UNL     1     -46.128 -53.520  16.176  1.00  0.00     0.290 A 
HETATM   21  O   UNL     1     -45.866 -54.426  16.954  1.00  0.00    -0.259 OA
ENDBRANCH  14  15
ENDBRANCH   1  14
TORSDOF 5
ENDMDL
MODEL 6
REMARK VINA RESULT:      -5.3      3.006      6.098
REMARK  5 active torsions:
REMARK  status: ('A' for Active; 'I' for Inactive)
REMARK    1  A    between atoms: N_7  and  C_8 
REMARK    2  A    between atoms: C_8  and  C_9 
REMARK       I    between atoms: C_9  and  N_11 
REMARK    3  A    between atoms: N_11  and  C_12 
REMARK    4  A    between atoms: C_12  and  C_13 
REMARK    5  A    between atoms: C_13  and  C_14 
REMARK       I    between atoms: C_14  and  N_16 
ROOT
HETATM    1  C   UNL     1     -43.946 -50.642  13.394  1.00  0.00     0.235 C 
HETATM    2  O   UNL     1     -43.813 -49.931  14.392  1.00  0.00    -0.272 OA
HETATM    3  N   UNL     1     -42.909 -50.906  12.526  1.00  0.00    -0.359 N 
HETATM    4  H   UNL     1     -42.964 -51.727  11.922  1.00  0.00     0.162 HD
ENDROOT
BRANCH   3   5
HETATM    5  C   UNL     1     -41.620 -50.247  12.639  1.00  0.00     0.132 C 
BRANCH   5   6
HETATM    6  C   UNL     1     -40.676 -50.890  13.647  1.00  0.00     0.122 C 
BRANCH   6   7
HETATM    7  C   UNL     1     -40.343 -52.321  13.270  1.00  0.00     0.221 C 
HETATM    8  O   UNL     1     -40.381 -52.713  12.103  1.00  0.00    -0.273 OA
HETATM    9  N   UNL     1     -39.947 -53.147  14.297  1.00  0.00    -0.352 N 
HETATM   10  C   UNL     1     -39.520 -54.506  14.033  1.00  0.00     0.126 C 
HETATM   11  C   UNL     1     -39.979 -52.889  15.722  1.00  0.00     0.126 C 
HETATM   12  C   UNL     1     -38.843 -54.975  15.317  1.00  0.00     0.021 C 
HETATM   13  C   UNL     1     -38.858 -53.766  16.252  1.00  0.00     0.021 C 
ENDBRANCH   6   7
ENDBRANCH   5   6
ENDBRANCH   3   5
BRANCH   1  14
HETATM   14  C   UNL     1     -45.289 -51.278  13.028  1.00  0.00     0.235 C 
BRANCH  14  15
HETATM   15  N   UNL     1     -45.534 -52.560  13.657  1.00  0.00    -0.303 N 
HETATM   16  C   UNL     1     -46.354 -52.783  14.756  1.00  0.00     0.018 A 
HETATM   17  C   UNL     1     -47.006 -51.677  15.520  1.00  0.00     0.069 C 
HETATM   18  C   UNL     1     -46.501 -54.082  15.048  1.00  0.00     0.080 A 
HETATM   19  S   UNL     1     -45.602 -55.103  13.971  1.00  0.00    -0.039 SA
HETATM   20  C   UNL     1     -44.998 -53.702  13.081  1.00  0.00     0.290 A 
HETATM   21  O   UNL     1     -44.256 -53.770  12.111  1.00  0.00    -0.259 OA
ENDBRANCH  14  15
ENDBRANCH   1  14
TORSDOF 5
ENDMDL
MODEL 7
REMARK VINA RESULT:      -5.3      2.857      6.870
REMARK  5 active torsions:
REMARK  status: ('A' for Active; 'I' for Inactive)
REMARK    1  A    between atoms: N_7  and  C_8 
REMARK    2  A    between atoms: C_8  and  C_9 
REMARK       I    between atoms: C_9  and  N_11 
REMARK    3  A    between atoms: N_11  and  C_12 
REMARK    4  A    between atoms: C_12  and  C_13 
REMARK    5  A    between atoms: C_13  and  C_14 
REMARK       I    between atoms: C_14  and  N_16 
ROOT
HETATM    1  C   UNL     1     -41.574 -51.507  12.112  1.00  0.00     0.235 C 
HETATM    2  O   UNL     1     -42.091 -50.834  13.006  1.00  0.00    -0.272 OA
HETATM    3  N   UNL     1     -40.530 -51.042  11.343  1.00  0.00    -0.359 N 
HETATM    4  H   UNL     1     -39.933 -51.714  10.858  1.00  0.00     0.162 HD
ENDROOT
BRANCH   3   5
HETATM    5  C   UNL     1     -40.058 -49.671  11.427  1.00  0.00     0.132 C 
BRANCH   5   6
HETATM    6  C   UNL     1     -38.548 -49.538  11.577  1.00  0.00     0.122 C 
BRANCH   6   7
HETATM    7  C   UNL     1     -38.035 -50.306  12.780  1.00  0.00     0.221 C 
HETATM    8  O   UNL     1     -37.884 -51.527  12.757  1.00  0.00    -0.273 OA
HETATM    9  N   UNL     1     -37.697 -49.557  13.884  1.00  0.00    -0.352 N 
HETATM   10  C   UNL     1     -37.111 -50.181  15.053  1.00  0.00     0.126 C 
HETATM   11  C   UNL     1     -37.936 -48.148  14.123  1.00  0.00     0.126 C 
HETATM   12  C   UNL     1     -36.564 -49.032  15.894  1.00  0.00     0.021 C 
HETATM   13  C   UNL     1     -36.815 -47.768  15.073  1.00  0.00     0.021 C 
ENDBRANCH   6   7
ENDBRANCH   5   6
ENDBRANCH   3   5
BRANCH   1  14
HETATM   14  C   UNL     1     -42.066 -52.915  11.773  1.00  0.00     0.235 C 
BRANCH  14  15
HETATM   15  N   UNL     1     -42.573 -53.661  12.906  1.00  0.00    -0.303 N 
HETATM   16  C   UNL     1     -41.809 -54.193  13.937  1.00  0.00     0.018 A 
HETATM   17  C   UNL     1     -40.316 -54.164  13.939  1.00  0.00     0.069 C 
HETATM   18  C   UNL     1     -42.549 -54.723  14.921  1.00  0.00     0.080 A 
HETATM   19  S   UNL     1     -44.250 -54.601  14.602  1.00  0.00    -0.039 SA
HETATM   20  C   UNL     1     -43.945 -53.794  13.061  1.00  0.00     0.290 A 
HETATM   21  O   UNL     1     -44.821 -53.409  12.300  1.00  0.00    -0.259 OA
ENDBRANCH  14  15
ENDBRANCH   1  14
TORSDOF 5
ENDMDL
MODEL 8
REMARK VINA RESULT:      -5.2      1.687      2.022
REMARK  5 active torsions:
REMARK  status: ('A' for Active; 'I' for Inactive)
REMARK    1  A    between atoms: N_7  and  C_8 
REMARK    2  A    between atoms: C_8  and  C_9 
REMARK       I    between atoms: C_9  and  N_11 
REMARK    3  A    between atoms: N_11  and  C_12 
REMARK    4  A    between atoms: C_12  and  C_13 
REMARK    5  A    between atoms: C_13  and  C_14 
REMARK       I    between atoms: C_14  and  N_16 
ROOT
HETATM    1  C   UNL     1     -40.554 -52.076  13.427  1.00  0.00     0.235 C 
HETATM    2  O   UNL     1     -39.862 -52.623  12.567  1.00  0.00    -0.272 OA
HETATM    3  N   UNL     1     -41.453 -52.769  14.207  1.00  0.00    -0.359 N 
HETATM    4  H   UNL     1     -41.755 -52.365  15.095  1.00  0.00     0.162 HD
ENDROOT
BRANCH   3   5
HETATM    5  C   UNL     1     -41.762 -54.169  13.974  1.00  0.00     0.132 C 
BRANCH   5   6
HETATM    6  C   UNL     1     -43.250 -54.466  13.836  1.00  0.00     0.122 C 
BRANCH   6   7
HETATM    7  C   UNL     1     -44.062 -53.773  14.913  1.00  0.00     0.221 C 
HETATM    8  O   UNL     1     -43.737 -53.808  16.100  1.00  0.00    -0.273 OA
HETATM    9  N   UNL     1     -45.157 -53.056  14.486  1.00  0.00    -0.352 N 
HETATM   10  C   UNL     1     -45.947 -52.282  15.422  1.00  0.00     0.126 C 
HETATM   11  C   UNL     1     -45.750 -53.022  13.164  1.00  0.00     0.126 C 
HETATM   12  C   UNL     1     -46.822 -51.377  14.560  1.00  0.00     0.021 C 
HETATM   13  C   UNL     1     -46.398 -51.649  13.117  1.00  0.00     0.021 C 
ENDBRANCH   6   7
ENDBRANCH   5   6
ENDBRANCH   3   5
BRANCH   1  14
HETATM   14  C   UNL     1     -40.480 -50.570  13.687  1.00  0.00     0.235 C 
BRANCH  14  15
HETATM   15  N   UNL     1     -41.204 -49.761  12.728  1.00  0.00    -0.303 N 
HETATM   16  C   UNL     1     -42.509 -49.305  12.869  1.00  0.00     0.018 A 
HETATM   17  C   UNL     1     -43.390 -49.706  14.006  1.00  0.00     0.069 C 
HETATM   18  C   UNL     1     -42.883 -48.471  11.890  1.00  0.00     0.080 A 
HETATM   19  S   UNL     1     -41.625 -48.223  10.721  1.00  0.00    -0.039 SA
HETATM   20  C   UNL     1     -40.539 -49.302  11.601  1.00  0.00     0.290 A 
HETATM   21  O   UNL     1     -39.392 -49.555  11.258  1.00  0.00    -0.259 OA
ENDBRANCH  14  15
ENDBRANCH   1  14
TORSDOF 5
ENDMDL
MODEL 9
REMARK VINA RESULT:      -5.2      2.948      3.922
REMARK  5 active torsions:
REMARK  status: ('A' for Active; 'I' for Inactive)
REMARK    1  A    between atoms: N_7  and  C_8 
REMARK    2  A    between atoms: C_8  and  C_9 
REMARK       I    between atoms: C_9  and  N_11 
REMARK    3  A    between atoms: N_11  and  C_12 
REMARK    4  A    between atoms: C_12  and  C_13 
REMARK    5  A    between atoms: C_13  and  C_14 
REMARK       I    between atoms: C_14  and  N_16 
ROOT
HETATM    1  C   UNL     1     -40.847 -49.493  11.236  1.00  0.00     0.235 C 
HETATM    2  O   UNL     1     -39.620 -49.568  11.314  1.00  0.00    -0.272 OA
HETATM    3  N   UNL     1     -41.678 -50.531  11.596  1.00  0.00    -0.359 N 
HETATM    4  H   UNL     1     -42.653 -50.330  11.824  1.00  0.00     0.162 HD
ENDROOT
BRANCH   3   5
HETATM    5  C   UNL     1     -41.168 -51.843  11.952  1.00  0.00     0.132 C 
BRANCH   5   6
HETATM    6  C   UNL     1     -42.187 -52.745  12.636  1.00  0.00     0.122 C 
BRANCH   6   7
HETATM    7  C   UNL     1     -42.993 -51.992  13.676  1.00  0.00     0.221 C 
HETATM    8  O   UNL     1     -42.457 -51.304  14.545  1.00  0.00    -0.273 OA
HETATM    9  N   UNL     1     -44.363 -52.077  13.566  1.00  0.00    -0.352 N 
HETATM   10  C   UNL     1     -45.226 -51.323  14.452  1.00  0.00     0.126 C 
HETATM   11  C   UNL     1     -45.144 -52.939  12.701  1.00  0.00     0.126 C 
HETATM   12  C   UNL     1     -46.613 -51.392  13.820  1.00  0.00     0.021 C 
HETATM   13  C   UNL     1     -46.428 -52.152  12.507  1.00  0.00     0.021 C 
ENDBRANCH   6   7
ENDBRANCH   5   6
ENDBRANCH   3   5
BRANCH   1  14
HETATM   14  C   UNL     1     -41.549 -48.237  10.715  1.00  0.00     0.235 C 
BRANCH  14  15
HETATM   15  N   UNL     1     -41.667 -47.171  11.687  1.00  0.00    -0.303 N 
HETATM   16  C   UNL     1     -41.011 -45.947  11.636  1.00  0.00     0.018 A 
HETATM   17  C   UNL     1     -39.982 -45.621  10.604  1.00  0.00     0.069 C 
HETATM   18  C   UNL     1     -41.403 -45.099  12.596  1.00  0.00     0.080 A 
HETATM   19  S   UNL     1     -42.607 -45.794  13.634  1.00  0.00    -0.039 SA
HETATM   20  C   UNL     1     -42.578 -47.307  12.724  1.00  0.00     0.290 A 
HETATM   21  O   UNL     1     -43.277 -48.278  12.979  1.00  0.00    -0.259 OA
ENDBRANCH  14  15
ENDBRANCH   1  14
TORSDOF 5
ENDMDL
