MODEL 1
REMARK VINA RESULT:      -5.1      0.000      0.000
REMARK  5 active torsions:
REMARK  status: ('A' for Active; 'I' for Inactive)
REMARK    1  A    between atoms: C_2  and  N_4 
REMARK    2  A    between atoms: C_7  and  N_10 
REMARK    3  A    between atoms: N_10  and  C_11 
REMARK    4  A    between atoms: C_11  and  C_12 
REMARK    5  A    between atoms: C_12  and  C_13 
ROOT
HETATM    1  N   UNL     1     -44.358 -52.797  12.535  1.00  0.00     0.088 N 
HETATM    2  H   UNL     1     -44.180 -52.570  11.555  1.00  0.00     0.316 HD
ENDROOT
BRANCH   1   3
HETATM    3  C   UNL     1     -43.697 -54.071  12.882  1.00  0.00     0.223 C 
HETATM    4  C   UNL     1     -44.333 -54.679  14.145  1.00  0.00     0.066 C 
HETATM    5  C   UNL     1     -43.847 -54.029  15.444  1.00  0.00     0.275 C 
HETATM    6  N   UNL     1     -42.377 -53.949  15.572  1.00  0.00     0.092 N 
HETATM    7  C   UNL     1     -41.850 -53.237  14.395  1.00  0.00     0.275 C 
HETATM    8  C   UNL     1     -42.180 -53.946  13.081  1.00  0.00     0.066 C 
BRANCH   6   9
HETATM    9  C   UNL     1     -41.708 -55.251  15.825  1.00  0.00     0.215 C 
HETATM   10  C   UNL     1     -40.187 -55.083  16.008  1.00  0.00     0.042 C 
HETATM   11  C   UNL     1     -42.231 -55.954  17.087  1.00  0.00     0.042 C 
ENDBRANCH   6   9
ENDBRANCH   1   3
BRANCH   1  12
HETATM   12  C   UNL     1     -45.812 -52.778  12.765  1.00  0.00     0.274 C 
BRANCH  12  13
HETATM   13  C   UNL     1     -46.334 -51.436  13.305  1.00  0.00     0.069 C 
BRANCH  13  14
HETATM   14  C   UNL     1     -46.227 -51.334  14.807  1.00  0.00    -0.048 A 
HETATM   15  C   UNL     1     -47.271 -51.847  15.590  1.00  0.00     0.024 A 
HETATM   16  C   UNL     1     -47.172 -51.779  16.970  1.00  0.00     0.088 A 
HETATM   17  N   UNL     1     -46.120 -51.236  17.616  1.00  0.00    -0.375 N 
HETATM   18  C   UNL     1     -45.129 -50.739  16.843  1.00  0.00     0.094 A 
ATOM     19  HN  UNL     1     -46.075 -51.202  18.634  1.00  0.00     0.164 HD
HETATM   20  C   UNL     1     -45.126 -50.748  15.450  1.00  0.00    -0.040 A 
HETATM   21  C   UNL     1     -43.962 -50.180  14.697  1.00  0.00     0.050 C 
ENDBRANCH  13  14
ENDBRANCH  12  13
ENDBRANCH   1  12
TORSDOF 5
ENDMDL
MODEL 2
REMARK VINA RESULT:      -5.1      4.097      6.498
REMARK  5 active torsions:
REMARK  status: ('A' for Active; 'I' for Inactive)
REMARK    1  A    between atoms: C_2  and  N_4 
REMARK    2  A    between atoms: C_7  and  N_10 
REMARK    3  A    between atoms: N_10  and  C_11 
REMARK    4  A    between atoms: C_11  and  C_12 
REMARK    5  A    between atoms: C_12  and  C_13 
ROOT
HETATM    1  N   UNL     1     -42.294 -50.523  12.031  1.00  0.00     0.088 N 
HETATM    2  H   UNL     1     -41.313 -50.756  11.868  1.00  0.00     0.316 HD
ENDROOT
BRANCH   1   3
HETATM    3  C   UNL     1     -42.404 -49.138  12.532  1.00  0.00     0.223 C 
HETATM    4  C   UNL     1     -43.156 -48.258  11.517  1.00  0.00     0.066 C 
HETATM    5  C   UNL     1     -42.284 -47.804  10.342  1.00  0.00     0.275 C 
HETATM    6  N   UNL     1     -41.002 -47.185  10.740  1.00  0.00     0.092 N 
HETATM    7  C   UNL     1     -40.277 -48.137  11.599  1.00  0.00     0.275 C 
HETATM    8  C   UNL     1     -41.052 -48.493  12.868  1.00  0.00     0.066 C 
BRANCH   6   9
HETATM    9  C   UNL     1     -41.128 -45.830  11.333  1.00  0.00     0.215 C 
HETATM   10  C   UNL     1     -39.865 -44.981  11.090  1.00  0.00     0.042 C 
HETATM   11  C   UNL     1     -42.313 -45.036  10.760  1.00  0.00     0.042 C 
ENDBRANCH   6   9
ENDBRANCH   1   3
BRANCH   1  12
HETATM   12  C   UNL     1     -42.878 -51.544  12.917  1.00  0.00     0.274 C 
BRANCH  12  13
HETATM   13  C   UNL     1     -44.344 -51.272  13.290  1.00  0.00     0.069 C 
BRANCH  13  14
HETATM   14  C   UNL     1     -45.095 -52.531  13.651  1.00  0.00    -0.048 A 
HETATM   15  C   UNL     1     -44.603 -53.761  13.190  1.00  0.00     0.024 A 
HETATM   16  C   UNL     1     -45.271 -54.924  13.537  1.00  0.00     0.088 A 
HETATM   17  N   UNL     1     -46.386 -54.946  14.294  1.00  0.00    -0.375 N 
HETATM   18  C   UNL     1     -46.849 -53.750  14.721  1.00  0.00     0.094 A 
ATOM     19  HN  UNL     1     -46.855 -55.819  14.534  1.00  0.00     0.164 HD
HETATM   20  C   UNL     1     -46.262 -52.520  14.429  1.00  0.00    -0.040 A 
HETATM   21  C   UNL     1     -46.858 -51.256  14.970  1.00  0.00     0.050 C 
ENDBRANCH  13  14
ENDBRANCH  12  13
ENDBRANCH   1  12
TORSDOF 5
ENDMDL
MODEL 3
REMARK VINA RESULT:      -5.1      4.153      5.751
REMARK  5 active torsions:
REMARK  status: ('A' for Active; 'I' for Inactive)
REMARK    1  A    between atoms: C_2  and  N_4 
REMARK    2  A    between atoms: C_7  and  N_10 
REMARK    3  A    between atoms: N_10  and  C_11 
REMARK    4  A    between atoms: C_11  and  C_12 
REMARK    5  A    between atoms: C_12  and  C_13 
ROOT
HETATM    1  N   UNL     1     -40.899 -51.121  11.390  1.00  0.00     0.088 N 
HETATM    2  H   UNL     1     -41.692 -51.174  10.748  1.00  0.00     0.316 HD
ENDROOT
BRANCH   1   3
HETATM    3  C   UNL     1     -41.363 -51.313  12.778  1.00  0.00     0.223 C 
HETATM    4  C   UNL     1     -40.590 -52.463  13.449  1.00  0.00     0.066 C 
HETATM    5  C   UNL     1     -41.096 -53.852  13.046  1.00  0.00     0.275 C 
HETATM    6  N   UNL     1     -42.556 -54.033  13.192  1.00  0.00     0.092 N 
HETATM    7  C   UNL     1     -43.231 -52.980  12.415  1.00  0.00     0.275 C 
HETATM    8  C   UNL     1     -42.873 -51.573  12.894  1.00  0.00     0.066 C 
BRANCH   6   9
HETATM    9  C   UNL     1     -43.030 -54.129  14.596  1.00  0.00     0.215 C 
HETATM   10  C   UNL     1     -44.513 -54.542  14.670  1.00  0.00     0.042 C 
HETATM   11  C   UNL     1     -42.241 -55.158  15.422  1.00  0.00     0.042 C 
ENDBRANCH   6   9
ENDBRANCH   1   3
BRANCH   1  12
HETATM   12  C   UNL     1     -40.186 -49.854  11.152  1.00  0.00     0.274 C 
BRANCH  12  13
HETATM   13  C   UNL     1     -40.686 -48.692  12.025  1.00  0.00     0.069 C 
BRANCH  13  14
HETATM   14  C   UNL     1     -41.672 -47.806  11.303  1.00  0.00    -0.048 A 
HETATM   15  C   UNL     1     -43.004 -48.233  11.196  1.00  0.00     0.024 A 
HETATM   16  C   UNL     1     -43.922 -47.416  10.556  1.00  0.00     0.088 A 
HETATM   17  N   UNL     1     -43.607 -46.221  10.016  1.00  0.00    -0.375 N 
HETATM   18  C   UNL     1     -42.318 -45.832  10.121  1.00  0.00     0.094 A 
ATOM     19  HN  UNL     1     -44.306 -45.642   9.552  1.00  0.00     0.164 HD
HETATM   20  C   UNL     1     -41.311 -46.574  10.737  1.00  0.00    -0.040 A 
HETATM   21  C   UNL     1     -39.915 -46.034  10.807  1.00  0.00     0.050 C 
ENDBRANCH  13  14
ENDBRANCH  12  13
ENDBRANCH   1  12
TORSDOF 5
ENDMDL
MODEL 4
REMARK VINA RESULT:      -5.0      4.302      6.212
REMARK  5 active torsions:
REMARK  status: ('A' for Active; 'I' for Inactive)
REMARK    1  A    between atoms: C_2  and  N_4 
REMARK    2  A    between atoms: C_7  and  N_10 
REMARK    3  A    between atoms: N_10  and  C_11 
REMARK    4  A    between atoms: C_11  and  C_12 
REMARK    5  A    between atoms: C_12  and  C_13 
ROOT
HETATM    1  N   UNL     1     -42.239 -50.758  11.965  1.00  0.00     0.088 N 
HETATM    2  H   UNL     1     -42.970 -50.886  11.263  1.00  0.00     0.316 HD
ENDROOT
BRANCH   1   3
HETATM    3  C   UNL     1     -42.601 -51.477  13.203  1.00  0.00     0.223 C 
HETATM    4  C   UNL     1     -42.791 -52.977  12.917  1.00  0.00     0.066 C 
HETATM    5  C   UNL     1     -44.146 -53.309  12.282  1.00  0.00     0.275 C 
HETATM    6  N   UNL     1     -45.308 -52.752  13.004  1.00  0.00     0.092 N 
HETATM    7  C   UNL     1     -45.123 -51.295  13.122  1.00  0.00     0.275 C 
HETATM    8  C   UNL     1     -43.856 -50.923  13.893  1.00  0.00     0.066 C 
BRANCH   6   9
HETATM    9  C   UNL     1     -45.610 -53.416  14.297  1.00  0.00     0.215 C 
HETATM   10  C   UNL     1     -46.928 -52.903  14.909  1.00  0.00     0.042 C 
HETATM   11  C   UNL     1     -45.746 -54.941  14.165  1.00  0.00     0.042 C 
ENDBRANCH   6   9
ENDBRANCH   1   3
BRANCH   1  12
HETATM   12  C   UNL     1     -42.004 -49.315  12.139  1.00  0.00     0.274 C 
BRANCH  12  13
HETATM   13  C   UNL     1     -41.390 -48.636  10.904  1.00  0.00     0.069 C 
BRANCH  13  14
HETATM   14  C   UNL     1     -42.180 -47.433  10.451  1.00  0.00    -0.048 A 
HETATM   15  C   UNL     1     -43.248 -47.626   9.562  1.00  0.00     0.024 A 
HETATM   16  C   UNL     1     -43.994 -46.531   9.159  1.00  0.00     0.088 A 
HETATM   17  N   UNL     1     -43.748 -45.270   9.569  1.00  0.00    -0.375 N 
HETATM   18  C   UNL     1     -42.710 -45.103  10.418  1.00  0.00     0.094 A 
ATOM     19  HN  UNL     1     -44.316 -44.484   9.255  1.00  0.00     0.164 HD
HETATM   20  C   UNL     1     -41.891 -46.130  10.884  1.00  0.00    -0.040 A 
HETATM   21  C   UNL     1     -40.775 -45.827  11.837  1.00  0.00     0.050 C 
ENDBRANCH  13  14
ENDBRANCH  12  13
ENDBRANCH   1  12
TORSDOF 5
ENDMDL
MODEL 5
REMARK VINA RESULT:      -4.9      2.821      4.089
REMARK  5 active torsions:
REMARK  status: ('A' for Active; 'I' for Inactive)
REMARK    1  A    between atoms: C_2  and  N_4 
REMARK    2  A    between atoms: C_7  and  N_10 
REMARK    3  A    between atoms: N_10  and  C_11 
REMARK    4  A    between atoms: C_11  and  C_12 
REMARK    5  A    between atoms: C_12  and  C_13 
ROOT
HETATM    1  N   UNL     1     -43.060 -52.590  12.193  1.00  0.00     0.088 N 
HETATM    2  H   UNL     1     -42.376 -52.819  11.470  1.00  0.00     0.316 HD
ENDROOT
BRANCH   1   3
HETATM    3  C   UNL     1     -42.525 -51.531  13.072  1.00  0.00     0.223 C 
HETATM    4  C   UNL     1     -41.978 -50.362  12.233  1.00  0.00     0.066 C 
HETATM    5  C   UNL     1     -40.589 -50.631  11.647  1.00  0.00     0.275 C 
HETATM    6  N   UNL     1     -39.591 -51.091  12.636  1.00  0.00     0.092 N 
HETATM    7  C   UNL     1     -40.124 -52.291  13.305  1.00  0.00     0.275 C 
HETATM    8  C   UNL     1     -41.438 -52.021  14.039  1.00  0.00     0.066 C 
BRANCH   6   9
HETATM    9  C   UNL     1     -39.128 -50.043  13.581  1.00  0.00     0.215 C 
HETATM   10  C   UNL     1     -37.969 -50.544  14.465  1.00  0.00     0.042 C 
HETATM   11  C   UNL     1     -38.628 -48.777  12.868  1.00  0.00     0.042 C 
ENDBRANCH   6   9
ENDBRANCH   1   3
BRANCH   1  12
HETATM   12  C   UNL     1     -43.441 -53.831  12.889  1.00  0.00     0.274 C 
BRANCH  12  13
HETATM   13  C   UNL     1     -44.960 -54.053  12.967  1.00  0.00     0.069 C 
BRANCH  13  14
HETATM   14  C   UNL     1     -45.606 -53.259  14.076  1.00  0.00    -0.048 A 
HETATM   15  C   UNL     1     -45.438 -53.694  15.399  1.00  0.00     0.024 A 
HETATM   16  C   UNL     1     -46.008 -52.959  16.425  1.00  0.00     0.088 A 
HETATM   17  N   UNL     1     -46.731 -51.838  16.227  1.00  0.00    -0.375 N 
HETATM   18  C   UNL     1     -46.889 -51.441  14.945  1.00  0.00     0.094 A 
ATOM     19  HN  UNL     1     -47.137 -51.318  17.004  1.00  0.00     0.164 HD
HETATM   20  C   UNL     1     -46.366 -52.104  13.837  1.00  0.00    -0.040 A 
HETATM   21  C   UNL     1     -46.595 -51.561  12.459  1.00  0.00     0.050 C 
ENDBRANCH  13  14
ENDBRANCH  12  13
ENDBRANCH   1  12
TORSDOF 5
ENDMDL
MODEL 6
REMARK VINA RESULT:      -4.8      3.762      6.347
REMARK  5 active torsions:
REMARK  status: ('A' for Active; 'I' for Inactive)
REMARK    1  A    between atoms: C_2  and  N_4 
REMARK    2  A    between atoms: C_7  and  N_10 
REMARK    3  A    between atoms: N_10  and  C_11 
REMARK    4  A    between atoms: C_11  and  C_12 
REMARK    5  A    between atoms: C_12  and  C_13 
ROOT
HETATM    1  N   UNL     1     -40.237 -51.594  12.520  1.00  0.00     0.088 N 
HETATM    2  H   UNL     1     -39.610 -52.044  13.189  1.00  0.00     0.316 HD
ENDROOT
BRANCH   1   3
HETATM    3  C   UNL     1     -40.836 -50.388  13.127  1.00  0.00     0.223 C 
HETATM    4  C   UNL     1     -41.872 -49.765  12.174  1.00  0.00     0.066 C 
HETATM    5  C   UNL     1     -41.243 -48.935  11.051  1.00  0.00     0.275 C 
HETATM    6  N   UNL     1     -40.268 -47.925  11.514  1.00  0.00     0.092 N 
HETATM    7  C   UNL     1     -39.233 -48.612  12.305  1.00  0.00     0.275 C 
HETATM    8  C   UNL     1     -39.806 -49.324  13.532  1.00  0.00     0.066 C 
BRANCH   6   9
HETATM    9  C   UNL     1     -40.869 -46.759  12.210  1.00  0.00     0.215 C 
HETATM   10  C   UNL     1     -39.826 -45.659  12.485  1.00  0.00     0.042 C 
HETATM   11  C   UNL     1     -42.003 -46.104  11.405  1.00  0.00     0.042 C 
ENDBRANCH   6   9
ENDBRANCH   1   3
BRANCH   1  12
HETATM   12  C   UNL     1     -41.212 -52.591  12.046  1.00  0.00     0.274 C 
BRANCH  12  13
HETATM   13  C   UNL     1     -41.597 -53.631  13.110  1.00  0.00     0.069 C 
BRANCH  13  14
HETATM   14  C   UNL     1     -43.091 -53.748  13.294  1.00  0.00    -0.048 A 
HETATM   15  C   UNL     1     -43.932 -53.035  12.427  1.00  0.00     0.024 A 
HETATM   16  C   UNL     1     -45.304 -53.155  12.573  1.00  0.00     0.088 A 
HETATM   17  N   UNL     1     -45.890 -53.921  13.515  1.00  0.00    -0.375 N 
HETATM   18  C   UNL     1     -45.063 -54.593  14.346  1.00  0.00     0.094 A 
ATOM     19  HN  UNL     1     -46.904 -53.990  13.596  1.00  0.00     0.164 HD
HETATM   20  C   UNL     1     -43.671 -54.542  14.295  1.00  0.00    -0.040 A 
HETATM   21  C   UNL     1     -42.854 -55.344  15.262  1.00  0.00     0.050 C 
ENDBRANCH  13  14
ENDBRANCH  12  13
ENDBRANCH   1  12
TORSDOF 5
ENDMDL
MODEL 7
REMARK VINA RESULT:      -4.8      3.635      5.012
REMARK  5 active torsions:
REMARK  status: ('A' for Active; 'I' for Inactive)
REMARK    1  A    between atoms: C_2  and  N_4 
REMARK    2  A    between atoms: C_7  and  N_10 
REMARK    3  A    between atoms: N_10  and  C_11 
REMARK    4  A    between atoms: C_11  and  C_12 
REMARK    5  A    between atoms: C_12  and  C_13 
ROOT
HETATM    1  N   UNL     1     -42.624 -49.746  13.703  1.00  0.00     0.088 N 
HETATM    2  H   UNL     1     -42.947 -49.131  12.955  1.00  0.00     0.316 HD
ENDROOT
BRANCH   1   3
HETATM    3  C   UNL     1     -41.654 -50.721  13.167  1.00  0.00     0.223 C 
HETATM    4  C   UNL     1     -40.456 -50.868  14.123  1.00  0.00     0.066 C 
HETATM    5  C   UNL     1     -39.437 -49.730  14.001  1.00  0.00     0.275 C 
HETATM    6  N   UNL     1     -38.988 -49.462  12.619  1.00  0.00     0.092 N 
HETATM    7  C   UNL     1     -40.177 -49.197  11.791  1.00  0.00     0.275 C 
HETATM    8  C   UNL     1     -41.147 -50.378  11.758  1.00  0.00     0.066 C 
BRANCH   6   9
HETATM    9  C   UNL     1     -38.088 -50.497  12.050  1.00  0.00     0.215 C 
HETATM   10  C   UNL     1     -37.240 -49.940  10.890  1.00  0.00     0.042 C 
HETATM   11  C   UNL     1     -37.105 -51.066  13.085  1.00  0.00     0.042 C 
ENDBRANCH   6   9
ENDBRANCH   1   3
BRANCH   1  12
HETATM   12  C   UNL     1     -43.799 -50.345  14.358  1.00  0.00     0.274 C 
BRANCH  12  13
HETATM   13  C   UNL     1     -44.873 -50.832  13.372  1.00  0.00     0.069 C 
BRANCH  13  14
HETATM   14  C   UNL     1     -45.326 -52.243  13.658  1.00  0.00    -0.048 A 
HETATM   15  C   UNL     1     -44.680 -53.302  13.003  1.00  0.00     0.024 A 
HETATM   16  C   UNL     1     -45.074 -54.602  13.277  1.00  0.00     0.088 A 
HETATM   17  N   UNL     1     -46.058 -54.916  14.142  1.00  0.00    -0.375 N 
HETATM   18  C   UNL     1     -46.674 -53.882  14.756  1.00  0.00     0.094 A 
ATOM     19  HN  UNL     1     -46.325 -55.883  14.324  1.00  0.00     0.164 HD
HETATM   20  C   UNL     1     -46.366 -52.538  14.553  1.00  0.00    -0.040 A 
HETATM   21  C   UNL     1     -47.109 -51.475  15.303  1.00  0.00     0.050 C 
ENDBRANCH  13  14
ENDBRANCH  12  13
ENDBRANCH   1  12
TORSDOF 5
ENDMDL
MODEL 8
REMARK VINA RESULT:      -4.8      1.577      5.419
REMARK  5 active torsions:
REMARK  status: ('A' for Active; 'I' for Inactive)
REMARK    1  A    between atoms: C_2  and  N_4 
REMARK    2  A    between atoms: C_7  and  N_10 
REMARK    3  A    between atoms: N_10  and  C_11 
REMARK    4  A    between atoms: C_11  and  C_12 
REMARK    5  A    between atoms: C_12  and  C_13 
ROOT
HETATM    1  N   UNL     1     -46.811 -53.164  14.386  1.00  0.00     0.088 N 
HETATM    2  H   UNL     1     -47.749 -53.522  14.199  1.00  0.00     0.316 HD
ENDROOT
BRANCH   1   3
HETATM    3  C   UNL     1     -46.883 -51.735  14.751  1.00  0.00     0.223 C 
HETATM    4  C   UNL     1     -45.488 -51.090  14.673  1.00  0.00     0.066 C 
HETATM    5  C   UNL     1     -44.608 -51.396  15.890  1.00  0.00     0.275 C 
HETATM    6  N   UNL     1     -45.253 -51.120  17.191  1.00  0.00     0.092 N 
HETATM    7  C   UNL     1     -46.516 -51.875  17.249  1.00  0.00     0.275 C 
HETATM    8  C   UNL     1     -47.490 -51.481  16.138  1.00  0.00     0.066 C 
BRANCH   6   9
HETATM    9  C   UNL     1     -45.411 -49.678  17.509  1.00  0.00     0.215 C 
HETATM   10  C   UNL     1     -45.917 -49.464  18.949  1.00  0.00     0.042 C 
HETATM   11  C   UNL     1     -44.096 -48.892  17.380  1.00  0.00     0.042 C 
ENDBRANCH   6   9
ENDBRANCH   1   3
BRANCH   1  12
HETATM   12  C   UNL     1     -45.956 -53.458  13.224  1.00  0.00     0.274 C 
BRANCH  12  13
HETATM   13  C   UNL     1     -44.893 -54.534  13.497  1.00  0.00     0.069 C 
BRANCH  13  14
HETATM   14  C   UNL     1     -43.486 -53.993  13.416  1.00  0.00    -0.048 A 
HETATM   15  C   UNL     1     -43.179 -53.068  12.406  1.00  0.00     0.024 A 
HETATM   16  C   UNL     1     -41.897 -52.548  12.339  1.00  0.00     0.088 A 
HETATM   17  N   UNL     1     -40.910 -52.886  13.193  1.00  0.00    -0.375 N 
HETATM   18  C   UNL     1     -41.223 -53.784  14.152  1.00  0.00     0.094 A 
ATOM     19  HN  UNL     1     -39.975 -52.484  13.118  1.00  0.00     0.164 HD
HETATM   20  C   UNL     1     -42.475 -54.375  14.310  1.00  0.00    -0.040 A 
HETATM   21  C   UNL     1     -42.710 -55.350  15.423  1.00  0.00     0.050 C 
ENDBRANCH  13  14
ENDBRANCH  12  13
ENDBRANCH   1  12
TORSDOF 5
ENDMDL
MODEL 9
REMARK VINA RESULT:      -4.7      1.575      2.424
REMARK  5 active torsions:
REMARK  status: ('A' for Active; 'I' for Inactive)
REMARK    1  A    between atoms: C_2  and  N_4 
REMARK    2  A    between atoms: C_7  and  N_10 
REMARK    3  A    between atoms: N_10  and  C_11 
REMARK    4  A    between atoms: C_11  and  C_12 
REMARK    5  A    between atoms: C_12  and  C_13 
ROOT
HETATM    1  N   UNL     1     -41.750 -52.498  13.321  1.00  0.00     0.088 N 
HETATM    2  H   UNL     1     -41.100 -52.036  12.683  1.00  0.00     0.316 HD
ENDROOT
BRANCH   1   3
HETATM    3  C   UNL     1     -41.355 -53.908  13.507  1.00  0.00     0.223 C 
HETATM    4  C   UNL     1     -42.138 -54.537  14.674  1.00  0.00     0.066 C 
HETATM    5  C   UNL     1     -41.585 -54.160  16.052  1.00  0.00     0.275 C 
HETATM    6  N   UNL     1     -40.132 -54.380  16.204  1.00  0.00     0.092 N 
HETATM    7  C   UNL     1     -39.438 -53.641  15.136  1.00  0.00     0.275 C 
HETATM    8  C   UNL     1     -39.849 -54.102  13.737  1.00  0.00     0.066 C 
BRANCH   6   9
HETATM    9  C   UNL     1     -39.729 -55.807  16.294  1.00  0.00     0.215 C 
HETATM   10  C   UNL     1     -38.241 -55.957  16.664  1.00  0.00     0.042 C 
HETATM   11  C   UNL     1     -40.530 -56.587  17.348  1.00  0.00     0.042 C 
ENDBRANCH   6   9
ENDBRANCH   1   3
BRANCH   1  12
HETATM   12  C   UNL     1     -43.120 -52.307  12.815  1.00  0.00     0.274 C 
BRANCH  12  13
HETATM   13  C   UNL     1     -43.729 -50.944  13.183  1.00  0.00     0.069 C 
BRANCH  13  14
HETATM   14  C   UNL     1     -44.783 -51.051  14.258  1.00  0.00    -0.048 A 
HETATM   15  C   UNL     1     -44.414 -50.801  15.588  1.00  0.00     0.024 A 
HETATM   16  C   UNL     1     -45.379 -50.873  16.578  1.00  0.00     0.088 A 
HETATM   17  N   UNL     1     -46.670 -51.182  16.340  1.00  0.00    -0.375 N 
HETATM   18  C   UNL     1     -47.004 -51.428  15.054  1.00  0.00     0.094 A 
ATOM     19  HN  UNL     1     -47.359 -51.226  17.091  1.00  0.00     0.164 HD
HETATM   20  C   UNL     1     -46.116 -51.390  13.981  1.00  0.00    -0.040 A 
HETATM   21  C   UNL     1     -46.604 -51.668  12.591  1.00  0.00     0.050 C 
ENDBRANCH  13  14
ENDBRANCH  12  13
ENDBRANCH   1  12
TORSDOF 5
ENDMDL
