MODEL 1
REMARK VINA RESULT:      -6.5      0.000      0.000
REMARK  8 active torsions:
REMARK  status: ('A' for Active; 'I' for Inactive)
REMARK    1  A    between atoms: C_2  and  C_3 
REMARK       I    between atoms: C_2  and  N_20 
REMARK    2  A    between atoms: C_3  and  N_4 
REMARK    3  A    between atoms: C_8  and  C_9 
REMARK    4  A    between atoms: C_9  and  N_10 
REMARK    5  A    between atoms: N_10  and  C_11 
REMARK    6  A    between atoms: N_20  and  C_21 
REMARK    7  A    between atoms: C_21  and  C_22 
REMARK    8  A    between atoms: C_22  and  N_23 
ROOT
HETATM    1  N   UNL     1     -41.010 -48.959  12.195  1.00  0.00     0.101 N 
HETATM    2  C   UNL     1     -39.593 -49.079  12.641  1.00  0.00     0.299 C 
HETATM    3  C   UNL     1     -38.855 -50.321  12.099  1.00  0.00     0.198 C 
HETATM    4  O   UNL     1     -39.554 -51.525  12.431  1.00  0.00    -0.381 OA
HETATM    5  C   UNL     1     -40.908 -51.492  11.927  1.00  0.00     0.163 C 
HETATM    6  C   UNL     1     -41.664 -50.263  12.481  1.00  0.00     0.306 C 
ENDROOT
BRANCH   5   7
HETATM    7  C   UNL     1     -41.608 -52.791  12.362  1.00  0.00     0.127 C 
BRANCH   7   8
HETATM    8  N   UNL     1     -42.896 -52.889  11.667  1.00  0.00    -0.275 NA
HETATM    9  H   UNL     1     -42.820 -53.525  10.874  1.00  0.00     0.129 HD
BRANCH   8  10
HETATM   10  C   UNL     1     -43.960 -53.293  12.494  1.00  0.00     0.094 A 
HETATM   11  C   UNL     1     -43.722 -54.288  13.432  1.00  0.00     0.045 A 
HETATM   12  C   UNL     1     -44.762 -54.736  14.238  1.00  0.00     0.022 A 
HETATM   13  C   UNL     1     -46.003 -54.164  14.071  1.00  0.00     0.107 A 
HETATM   14  N   UNL     1     -46.233 -53.202  13.159  1.00  0.00    -0.311 N 
HETATM   15  N   UNL     1     -45.202 -52.778  12.358  1.00  0.00    -0.290 N 
ATOM     16  HN  UNL     1     -47.162 -52.792  13.065  1.00  0.00     0.186 HD
ATOM     17  HN  UNL     1     -45.376 -52.064  11.651  1.00  0.00     0.188 HD
ENDBRANCH   8  10
ENDBRANCH   7   8
ENDBRANCH   5   7
BRANCH   1  18
HETATM   18  C   UNL     1     -41.051 -48.603  10.756  1.00  0.00     0.374 C 
BRANCH  18  19
HETATM   19  C   UNL     1     -42.257 -47.737  10.380  1.00  0.00     0.246 C 
HETATM   20  O   UNL     1     -42.849 -47.052  11.212  1.00  0.00    -0.272 OA
HETATM   21  N   UNL     1     -42.675 -47.824   9.072  1.00  0.00    -0.348 N 
HETATM   22  H   UNL     1     -41.979 -48.131   8.396  1.00  0.00     0.163 HD
BRANCH  21  23
HETATM   23  C   UNL     1     -43.831 -47.051   8.643  1.00  0.00     0.227 C 
BRANCH  23  24
HETATM   24  C   UNL     1     -45.120 -47.857   8.675  1.00  0.00    -0.058 C 
BRANCH  24  25
HETATM   25  N   UNL     1     -46.189 -48.525   8.701  1.00  0.00    -0.368 N 
ATOM     26  HN2 UNL     1     -45.328 -47.979   8.675  1.00  0.00     0.165 HD
ATOM     27  HN1 UNL     1     -47.053 -49.066   8.722  1.00  0.00     0.165 HD
ENDBRANCH  24  25
ENDBRANCH  23  24
ENDBRANCH  21  23
ENDBRANCH  18  19
ENDBRANCH   1  18
TORSDOF 8
ENDMDL
MODEL 2
REMARK VINA RESULT:      -6.5      2.344      5.964
REMARK  8 active torsions:
REMARK  status: ('A' for Active; 'I' for Inactive)
REMARK    1  A    between atoms: C_2  and  C_3 
REMARK       I    between atoms: C_2  and  N_20 
REMARK    2  A    between atoms: C_3  and  N_4 
REMARK    3  A    between atoms: C_8  and  C_9 
REMARK    4  A    between atoms: C_9  and  N_10 
REMARK    5  A    between atoms: N_10  and  C_11 
REMARK    6  A    between atoms: N_20  and  C_21 
REMARK    7  A    between atoms: C_21  and  C_22 
REMARK    8  A    between atoms: C_22  and  N_23 
ROOT
HETATM    1  N   UNL     1     -41.756 -53.456  12.600  1.00  0.00     0.101 N 
HETATM    2  C   UNL     1     -40.621 -54.173  13.247  1.00  0.00     0.299 C 
HETATM    3  C   UNL     1     -39.668 -53.265  14.053  1.00  0.00     0.198 C 
HETATM    4  O   UNL     1     -39.151 -52.207  13.240  1.00  0.00    -0.381 OA
HETATM    5  C   UNL     1     -40.222 -51.421  12.672  1.00  0.00     0.163 C 
HETATM    6  C   UNL     1     -41.172 -52.317  11.844  1.00  0.00     0.306 C 
ENDROOT
BRANCH   5   7
HETATM    7  C   UNL     1     -39.594 -50.338  11.778  1.00  0.00     0.127 C 
BRANCH   7   8
HETATM    8  N   UNL     1     -40.493 -50.078  10.649  1.00  0.00    -0.275 NA
HETATM    9  H   UNL     1     -41.295 -50.707  10.686  1.00  0.00     0.129 HD
BRANCH   8  10
HETATM   10  C   UNL     1     -40.944 -48.747  10.575  1.00  0.00     0.094 A 
HETATM   11  C   UNL     1     -40.468 -47.839  11.511  1.00  0.00     0.045 A 
HETATM   12  C   UNL     1     -40.924 -46.526  11.487  1.00  0.00     0.022 A 
HETATM   13  C   UNL     1     -41.839 -46.175  10.519  1.00  0.00     0.107 A 
HETATM   14  N   UNL     1     -42.300 -47.057   9.615  1.00  0.00    -0.311 N 
HETATM   15  N   UNL     1     -41.856 -48.355   9.657  1.00  0.00    -0.290 N 
ATOM     16  HN  UNL     1     -42.972 -46.764   8.906  1.00  0.00     0.186 HD
ATOM     17  HN  UNL     1     -42.219 -49.032   8.987  1.00  0.00     0.188 HD
ENDBRANCH   8  10
ENDBRANCH   7   8
ENDBRANCH   5   7
BRANCH   1  18
HETATM   18  C   UNL     1     -42.724 -53.018  13.635  1.00  0.00     0.374 C 
BRANCH  18  19
HETATM   19  C   UNL     1     -44.184 -53.263  13.242  1.00  0.00     0.246 C 
HETATM   20  O   UNL     1     -44.515 -54.216  12.539  1.00  0.00    -0.272 OA
HETATM   21  N   UNL     1     -45.088 -52.316  13.666  1.00  0.00    -0.348 N 
HETATM   22  H   UNL     1     -44.816 -51.766  14.478  1.00  0.00     0.163 HD
BRANCH  21  23
HETATM   23  C   UNL     1     -46.491 -52.464  13.310  1.00  0.00     0.227 C 
BRANCH  23  24
HETATM   24  C   UNL     1     -46.835 -51.794  11.990  1.00  0.00    -0.058 C 
BRANCH  24  25
HETATM   25  N   UNL     1     -47.120 -51.238  10.894  1.00  0.00    -0.368 N 
ATOM     26  HN2 UNL     1     -46.897 -51.689  11.781  1.00  0.00     0.165 HD
ATOM     27  HN1 UNL     1     -47.350 -50.788  10.008  1.00  0.00     0.165 HD
ENDBRANCH  24  25
ENDBRANCH  23  24
ENDBRANCH  21  23
ENDBRANCH  18  19
ENDBRANCH   1  18
TORSDOF 8
ENDMDL
MODEL 3
REMARK VINA RESULT:      -6.4      2.925      3.560
REMARK  8 active torsions:
REMARK  status: ('A' for Active; 'I' for Inactive)
REMARK    1  A    between atoms: C_2  and  C_3 
REMARK       I    between atoms: C_2  and  N_20 
REMARK    2  A    between atoms: C_3  and  N_4 
REMARK    3  A    between atoms: C_8  and  C_9 
REMARK    4  A    between atoms: C_9  and  N_10 
REMARK    5  A    between atoms: N_10  and  C_11 
REMARK    6  A    between atoms: N_20  and  C_21 
REMARK    7  A    between atoms: C_21  and  C_22 
REMARK    8  A    between atoms: C_22  and  N_23 
ROOT
HETATM    1  N   UNL     1     -42.731 -47.341  11.558  1.00  0.00     0.101 N 
HETATM    2  C   UNL     1     -42.211 -46.509  12.680  1.00  0.00     0.299 C 
HETATM    3  C   UNL     1     -40.676 -46.355  12.703  1.00  0.00     0.198 C 
HETATM    4  O   UNL     1     -40.028 -47.630  12.727  1.00  0.00    -0.381 OA
HETATM    5  C   UNL     1     -40.428 -48.435  11.595  1.00  0.00     0.163 C 
HETATM    6  C   UNL     1     -41.964 -48.614  11.574  1.00  0.00     0.306 C 
ENDROOT
BRANCH   5   7
HETATM    7  C   UNL     1     -39.732 -49.801  11.714  1.00  0.00     0.127 C 
BRANCH   7   8
HETATM    8  N   UNL     1     -40.656 -50.843  11.255  1.00  0.00    -0.275 NA
HETATM    9  H   UNL     1     -40.488 -51.055  10.272  1.00  0.00     0.129 HD
BRANCH   8  10
HETATM   10  C   UNL     1     -40.596 -52.030  12.007  1.00  0.00     0.094 A 
HETATM   11  C   UNL     1     -40.049 -51.974  13.282  1.00  0.00     0.045 A 
HETATM   12  C   UNL     1     -39.941 -53.137  14.035  1.00  0.00     0.022 A 
HETATM   13  C   UNL     1     -40.390 -54.314  13.479  1.00  0.00     0.107 A 
HETATM   14  N   UNL     1     -40.916 -54.367  12.242  1.00  0.00    -0.311 N 
HETATM   15  N   UNL     1     -41.004 -53.215  11.500  1.00  0.00    -0.290 N 
ATOM     16  HN  UNL     1     -41.247 -55.253  11.860  1.00  0.00     0.186 HD
ATOM     17  HN  UNL     1     -41.383 -53.254  10.554  1.00  0.00     0.188 HD
ENDBRANCH   8  10
ENDBRANCH   7   8
ENDBRANCH   5   7
BRANCH   1  18
HETATM   18  C   UNL     1     -42.585 -46.602  10.281  1.00  0.00     0.374 C 
BRANCH  18  19
HETATM   19  C   UNL     1     -43.764 -46.806   9.325  1.00  0.00     0.246 C 
HETATM   20  O   UNL     1     -43.597 -47.034   8.128  1.00  0.00    -0.272 OA
HETATM   21  N   UNL     1     -45.016 -46.652   9.874  1.00  0.00    -0.348 N 
HETATM   22  H   UNL     1     -45.088 -46.787  10.879  1.00  0.00     0.163 HD
BRANCH  21  23
HETATM   23  C   UNL     1     -46.188 -46.803   9.023  1.00  0.00     0.227 C 
BRANCH  23  24
HETATM   24  C   UNL     1     -46.500 -48.256   8.707  1.00  0.00    -0.058 C 
BRANCH  24  25
HETATM   25  N   UNL     1     -46.758 -49.462   8.444  1.00  0.00    -0.368 N 
ATOM     26  HN2 UNL     1     -46.556 -48.485   8.653  1.00  0.00     0.165 HD
ATOM     27  HN1 UNL     1     -46.967 -50.438   8.232  1.00  0.00     0.165 HD
ENDBRANCH  24  25
ENDBRANCH  23  24
ENDBRANCH  21  23
ENDBRANCH  18  19
ENDBRANCH   1  18
TORSDOF 8
ENDMDL
MODEL 4
REMARK VINA RESULT:      -6.3      2.379      3.175
REMARK  8 active torsions:
REMARK  status: ('A' for Active; 'I' for Inactive)
REMARK    1  A    between atoms: C_2  and  C_3 
REMARK       I    between atoms: C_2  and  N_20 
REMARK    2  A    between atoms: C_3  and  N_4 
REMARK    3  A    between atoms: C_8  and  C_9 
REMARK    4  A    between atoms: C_9  and  N_10 
REMARK    5  A    between atoms: N_10  and  C_11 
REMARK    6  A    between atoms: N_20  and  C_21 
REMARK    7  A    between atoms: C_21  and  C_22 
REMARK    8  A    between atoms: C_22  and  N_23 
ROOT
HETATM    1  N   UNL     1     -41.041 -48.918  12.110  1.00  0.00     0.101 N 
HETATM    2  C   UNL     1     -39.621 -48.991  12.558  1.00  0.00     0.299 C 
HETATM    3  C   UNL     1     -38.850 -50.223  12.040  1.00  0.00     0.198 C 
HETATM    4  O   UNL     1     -39.515 -51.438  12.398  1.00  0.00    -0.381 OA
HETATM    5  C   UNL     1     -40.870 -51.453  11.894  1.00  0.00     0.163 C 
HETATM    6  C   UNL     1     -41.659 -50.234  12.423  1.00  0.00     0.306 C 
ENDROOT
BRANCH   5   7
HETATM    7  C   UNL     1     -41.534 -52.761  12.355  1.00  0.00     0.127 C 
BRANCH   7   8
HETATM    8  N   UNL     1     -40.555 -53.849  12.256  1.00  0.00    -0.275 NA
HETATM    9  H   UNL     1     -39.733 -53.536  11.740  1.00  0.00     0.129 HD
BRANCH   8  10
HETATM   10  C   UNL     1     -40.157 -54.372  13.500  1.00  0.00     0.094 A 
HETATM   11  C   UNL     1     -41.074 -54.360  14.542  1.00  0.00     0.045 A 
HETATM   12  C   UNL     1     -40.698 -54.835  15.793  1.00  0.00     0.022 A 
HETATM   13  C   UNL     1     -39.415 -55.308  15.948  1.00  0.00     0.107 A 
HETATM   14  N   UNL     1     -38.527 -55.317  14.938  1.00  0.00    -0.311 N 
HETATM   15  N   UNL     1     -38.903 -54.831  13.711  1.00  0.00    -0.290 N 
ATOM     16  HN  UNL     1     -37.585 -55.681  15.082  1.00  0.00     0.186 HD
ATOM     17  HN  UNL     1     -38.227 -54.815  12.947  1.00  0.00     0.188 HD
ENDBRANCH   8  10
ENDBRANCH   7   8
ENDBRANCH   5   7
BRANCH   1  18
HETATM   18  C   UNL     1     -41.091 -48.593  10.664  1.00  0.00     0.374 C 
BRANCH  18  19
HETATM   19  C   UNL     1     -42.292 -47.724  10.280  1.00  0.00     0.246 C 
HETATM   20  O   UNL     1     -42.842 -46.983  11.092  1.00  0.00    -0.272 OA
HETATM   21  N   UNL     1     -42.756 -47.874   8.993  1.00  0.00    -0.348 N 
HETATM   22  H   UNL     1     -42.089 -48.232   8.313  1.00  0.00     0.163 HD
BRANCH  21  23
HETATM   23  C   UNL     1     -43.912 -47.102   8.560  1.00  0.00     0.227 C 
BRANCH  23  24
HETATM   24  C   UNL     1     -45.206 -47.895   8.630  1.00  0.00    -0.058 C 
BRANCH  24  25
HETATM   25  N   UNL     1     -46.280 -48.553   8.688  1.00  0.00    -0.368 N 
ATOM     26  HN2 UNL     1     -45.408 -48.028   8.639  1.00  0.00     0.165 HD
ATOM     27  HN1 UNL     1     -47.150 -49.085   8.735  1.00  0.00     0.165 HD
ENDBRANCH  24  25
ENDBRANCH  23  24
ENDBRANCH  21  23
ENDBRANCH  18  19
ENDBRANCH   1  18
TORSDOF 8
ENDMDL
MODEL 5
REMARK VINA RESULT:      -6.1      1.610      2.032
REMARK  8 active torsions:
REMARK  status: ('A' for Active; 'I' for Inactive)
REMARK    1  A    between atoms: C_2  and  C_3 
REMARK       I    between atoms: C_2  and  N_20 
REMARK    2  A    between atoms: C_3  and  N_4 
REMARK    3  A    between atoms: C_8  and  C_9 
REMARK    4  A    between atoms: C_9  and  N_10 
REMARK    5  A    between atoms: N_10  and  C_11 
REMARK    6  A    between atoms: N_20  and  C_21 
REMARK    7  A    between atoms: C_21  and  C_22 
REMARK    8  A    between atoms: C_22  and  N_23 
ROOT
HETATM    1  N   UNL     1     -40.173 -49.204  13.041  1.00  0.00     0.101 N 
HETATM    2  C   UNL     1     -38.863 -48.782  13.613  1.00  0.00     0.299 C 
HETATM    3  C   UNL     1     -37.715 -49.787  13.389  1.00  0.00     0.198 C 
HETATM    4  O   UNL     1     -38.052 -51.081  13.898  1.00  0.00    -0.381 OA
HETATM    5  C   UNL     1     -39.268 -51.574  13.292  1.00  0.00     0.163 C 
HETATM    6  C   UNL     1     -40.432 -50.584  13.529  1.00  0.00     0.306 C 
ENDROOT
BRANCH   5   7
HETATM    7  C   UNL     1     -39.593 -52.940  13.921  1.00  0.00     0.127 C 
BRANCH   7   8
HETATM    8  N   UNL     1     -40.230 -53.787  12.907  1.00  0.00    -0.275 NA
HETATM    9  H   UNL     1     -39.914 -54.752  13.006  1.00  0.00     0.129 HD
BRANCH   8  10
HETATM   10  C   UNL     1     -41.635 -53.748  12.933  1.00  0.00     0.094 A 
HETATM   11  C   UNL     1     -42.291 -54.381  13.981  1.00  0.00     0.045 A 
HETATM   12  C   UNL     1     -43.681 -54.393  14.014  1.00  0.00     0.022 A 
HETATM   13  C   UNL     1     -44.359 -53.764  12.994  1.00  0.00     0.107 A 
HETATM   14  N   UNL     1     -43.722 -53.154  11.979  1.00  0.00    -0.311 N 
HETATM   15  N   UNL     1     -42.350 -53.162  11.947  1.00  0.00    -0.290 N 
ATOM     16  HN  UNL     1     -44.253 -52.691  11.242  1.00  0.00     0.186 HD
ATOM     17  HN  UNL     1     -41.863 -52.719  11.168  1.00  0.00     0.188 HD
ENDBRANCH   8  10
ENDBRANCH   7   8
ENDBRANCH   5   7
BRANCH   1  18
HETATM   18  C   UNL     1     -40.121 -49.121  11.561  1.00  0.00     0.374 C 
BRANCH  18  19
HETATM   19  C   UNL     1     -41.025 -48.029  10.983  1.00  0.00     0.246 C 
HETATM   20  O   UNL     1     -40.743 -46.836  11.077  1.00  0.00    -0.272 OA
HETATM   21  N   UNL     1     -42.201 -48.461  10.414  1.00  0.00    -0.348 N 
HETATM   22  H   UNL     1     -42.217 -49.425  10.088  1.00  0.00     0.163 HD
BRANCH  21  23
HETATM   23  C   UNL     1     -43.127 -47.481   9.866  1.00  0.00     0.227 C 
BRANCH  23  24
HETATM   24  C   UNL     1     -43.547 -47.802   8.441  1.00  0.00    -0.058 C 
BRANCH  24  25
HETATM   25  N   UNL     1     -43.896 -48.070   7.259  1.00  0.00    -0.368 N 
ATOM     26  HN2 UNL     1     -43.622 -47.853   8.217  1.00  0.00     0.165 HD
ATOM     27  HN1 UNL     1     -44.178 -48.285   6.303  1.00  0.00     0.165 HD
ENDBRANCH  24  25
ENDBRANCH  23  24
ENDBRANCH  21  23
ENDBRANCH  18  19
ENDBRANCH   1  18
TORSDOF 8
ENDMDL
MODEL 6
REMARK VINA RESULT:      -5.9      2.420      6.497
REMARK  8 active torsions:
REMARK  status: ('A' for Active; 'I' for Inactive)
REMARK    1  A    between atoms: C_2  and  C_3 
REMARK       I    between atoms: C_2  and  N_20 
REMARK    2  A    between atoms: C_3  and  N_4 
REMARK    3  A    between atoms: C_8  and  C_9 
REMARK    4  A    between atoms: C_9  and  N_10 
REMARK    5  A    between atoms: N_10  and  C_11 
REMARK    6  A    between atoms: N_20  and  C_21 
REMARK    7  A    between atoms: C_21  and  C_22 
REMARK    8  A    between atoms: C_22  and  N_23 
ROOT
HETATM    1  N   UNL     1     -42.156 -53.648  12.715  1.00  0.00     0.101 N 
HETATM    2  C   UNL     1     -40.842 -54.242  13.093  1.00  0.00     0.299 C 
HETATM    3  C   UNL     1     -39.853 -53.248  13.736  1.00  0.00     0.198 C 
HETATM    4  O   UNL     1     -39.628 -52.119  12.886  1.00  0.00    -0.381 OA
HETATM    5  C   UNL     1     -40.871 -51.451  12.575  1.00  0.00     0.163 C 
HETATM    6  C   UNL     1     -41.864 -52.432  11.911  1.00  0.00     0.306 C 
ENDROOT
BRANCH   5   7
HETATM    7  C   UNL     1     -40.558 -50.283  11.624  1.00  0.00     0.127 C 
BRANCH   7   8
HETATM    8  N   UNL     1     -41.819 -49.655  11.216  1.00  0.00    -0.275 NA
HETATM    9  H   UNL     1     -42.528 -49.789  11.936  1.00  0.00     0.129 HD
BRANCH   8  10
HETATM   10  C   UNL     1     -41.704 -48.285  10.920  1.00  0.00     0.094 A 
HETATM   11  C   UNL     1     -42.867 -47.531  10.836  1.00  0.00     0.045 A 
HETATM   12  C   UNL     1     -42.789 -46.182  10.508  1.00  0.00     0.022 A 
HETATM   13  C   UNL     1     -41.543 -45.641  10.280  1.00  0.00     0.107 A 
HETATM   14  N   UNL     1     -40.419 -46.374  10.358  1.00  0.00    -0.311 N 
HETATM   15  N   UNL     1     -40.507 -47.709  10.667  1.00  0.00    -0.290 N 
ATOM     16  HN  UNL     1     -39.509 -45.943  10.190  1.00  0.00     0.186 HD
ATOM     17  HN  UNL     1     -39.659 -48.273  10.707  1.00  0.00     0.188 HD
ENDBRANCH   8  10
ENDBRANCH   7   8
ENDBRANCH   5   7
BRANCH   1  18
HETATM   18  C   UNL     1     -42.939 -53.349  13.939  1.00  0.00     0.374 C 
BRANCH  18  19
HETATM   19  C   UNL     1     -44.417 -53.063  13.658  1.00  0.00     0.246 C 
HETATM   20  O   UNL     1     -45.048 -53.686  12.806  1.00  0.00    -0.272 OA
HETATM   21  N   UNL     1     -44.973 -52.025  14.368  1.00  0.00    -0.348 N 
HETATM   22  H   UNL     1     -44.519 -51.784  15.246  1.00  0.00     0.163 HD
BRANCH  21  23
HETATM   23  C   UNL     1     -46.367 -51.673  14.138  1.00  0.00     0.227 C 
BRANCH  23  24
HETATM   24  C   UNL     1     -47.139 -51.455  15.428  1.00  0.00    -0.058 C 
BRANCH  24  25
HETATM   25  N   UNL     1     -47.779 -51.273  16.500  1.00  0.00    -0.368 N 
ATOM     26  HN2 UNL     1     -47.258 -51.427  15.637  1.00  0.00     0.165 HD
ATOM     27  HN1 UNL     1     -48.296 -51.126  17.367  1.00  0.00     0.165 HD
ENDBRANCH  24  25
ENDBRANCH  23  24
ENDBRANCH  21  23
ENDBRANCH  18  19
ENDBRANCH   1  18
TORSDOF 8
ENDMDL
MODEL 7
REMARK VINA RESULT:      -5.8      1.763      2.116
REMARK  8 active torsions:
REMARK  status: ('A' for Active; 'I' for Inactive)
REMARK    1  A    between atoms: C_2  and  C_3 
REMARK       I    between atoms: C_2  and  N_20 
REMARK    2  A    between atoms: C_3  and  N_4 
REMARK    3  A    between atoms: C_8  and  C_9 
REMARK    4  A    between atoms: C_9  and  N_10 
REMARK    5  A    between atoms: N_10  and  C_11 
REMARK    6  A    between atoms: N_20  and  C_21 
REMARK    7  A    between atoms: C_21  and  C_22 
REMARK    8  A    between atoms: C_22  and  N_23 
ROOT
HETATM    1  N   UNL     1     -42.352 -47.525  11.664  1.00  0.00     0.101 N 
HETATM    2  C   UNL     1     -40.997 -47.245  12.219  1.00  0.00     0.299 C 
HETATM    3  C   UNL     1     -40.062 -48.471  12.270  1.00  0.00     0.198 C 
HETATM    4  O   UNL     1     -40.655 -49.546  13.005  1.00  0.00    -0.381 OA
HETATM    5  C   UNL     1     -41.930 -49.918  12.436  1.00  0.00     0.163 C 
HETATM    6  C   UNL     1     -42.885 -48.702  12.400  1.00  0.00     0.306 C 
ENDROOT
BRANCH   5   7
HETATM    7  C   UNL     1     -42.527 -51.041  13.302  1.00  0.00     0.127 C 
BRANCH   7   8
HETATM    8  N   UNL     1     -43.421 -51.854  12.471  1.00  0.00    -0.275 NA
HETATM    9  H   UNL     1     -42.938 -52.695  12.154  1.00  0.00     0.129 HD
BRANCH   8  10
HETATM   10  C   UNL     1     -44.621 -52.215  13.108  1.00  0.00     0.094 A 
HETATM   11  C   UNL     1     -45.307 -51.240  13.818  1.00  0.00     0.045 A 
HETATM   12  C   UNL     1     -46.478 -51.574  14.490  1.00  0.00     0.022 A 
HETATM   13  C   UNL     1     -46.915 -52.877  14.420  1.00  0.00     0.107 A 
HETATM   14  N   UNL     1     -46.248 -53.822  13.733  1.00  0.00    -0.311 N 
HETATM   15  N   UNL     1     -45.085 -53.485  13.086  1.00  0.00    -0.290 N 
ATOM     16  HN  UNL     1     -46.602 -54.778  13.694  1.00  0.00     0.186 HD
ATOM     17  HN  UNL     1     -44.565 -54.202  12.582  1.00  0.00     0.188 HD
ENDBRANCH   8  10
ENDBRANCH   7   8
ENDBRANCH   5   7
BRANCH   1  18
HETATM   18  C   UNL     1     -42.253 -47.762  10.203  1.00  0.00     0.374 C 
BRANCH  18  19
HETATM   19  C   UNL     1     -43.520 -47.367   9.438  1.00  0.00     0.246 C 
HETATM   20  O   UNL     1     -43.498 -46.538   8.532  1.00  0.00    -0.272 OA
HETATM   21  N   UNL     1     -44.689 -47.948   9.873  1.00  0.00    -0.348 N 
HETATM   22  H   UNL     1     -44.596 -48.827  10.377  1.00  0.00     0.163 HD
BRANCH  21  23
HETATM   23  C   UNL     1     -45.941 -47.604   9.214  1.00  0.00     0.227 C 
BRANCH  23  24
HETATM   24  C   UNL     1     -46.343 -48.614   8.153  1.00  0.00    -0.058 C 
BRANCH  24  25
HETATM   25  N   UNL     1     -46.677 -49.452   7.272  1.00  0.00    -0.368 N 
ATOM     26  HN2 UNL     1     -46.401 -48.772   7.979  1.00  0.00     0.165 HD
ATOM     27  HN1 UNL     1     -46.947 -50.131   6.560  1.00  0.00     0.165 HD
ENDBRANCH  24  25
ENDBRANCH  23  24
ENDBRANCH  21  23
ENDBRANCH  18  19
ENDBRANCH   1  18
TORSDOF 8
ENDMDL
MODEL 8
REMARK VINA RESULT:      -5.7      2.490      2.661
REMARK  8 active torsions:
REMARK  status: ('A' for Active; 'I' for Inactive)
REMARK    1  A    between atoms: C_2  and  C_3 
REMARK       I    between atoms: C_2  and  N_20 
REMARK    2  A    between atoms: C_3  and  N_4 
REMARK    3  A    between atoms: C_8  and  C_9 
REMARK    4  A    between atoms: C_9  and  N_10 
REMARK    5  A    between atoms: N_10  and  C_11 
REMARK    6  A    between atoms: N_20  and  C_21 
REMARK    7  A    between atoms: C_21  and  C_22 
REMARK    8  A    between atoms: C_22  and  N_23 
ROOT
HETATM    1  N   UNL     1     -39.446 -49.175  13.245  1.00  0.00     0.101 N 
HETATM    2  C   UNL     1     -38.042 -49.618  13.481  1.00  0.00     0.299 C 
HETATM    3  C   UNL     1     -37.644 -50.906  12.730  1.00  0.00     0.198 C 
HETATM    4  O   UNL     1     -38.534 -51.983  13.042  1.00  0.00    -0.381 OA
HETATM    5  C   UNL     1     -39.901 -51.630  12.732  1.00  0.00     0.163 C 
HETATM    6  C   UNL     1     -40.318 -50.352  13.495  1.00  0.00     0.306 C 
ENDROOT
BRANCH   5   7
HETATM    7  C   UNL     1     -40.800 -52.812  13.135  1.00  0.00     0.127 C 
BRANCH   7   8
HETATM    8  N   UNL     1     -41.785 -53.039  12.073  1.00  0.00    -0.275 NA
HETATM    9  H   UNL     1     -41.719 -53.998  11.732  1.00  0.00     0.129 HD
BRANCH   8  10
HETATM   10  C   UNL     1     -43.111 -52.768  12.458  1.00  0.00     0.094 A 
HETATM   11  C   UNL     1     -43.942 -53.841  12.751  1.00  0.00     0.045 A 
HETATM   12  C   UNL     1     -45.268 -53.607  13.098  1.00  0.00     0.022 A 
HETATM   13  C   UNL     1     -45.707 -52.303  13.140  1.00  0.00     0.107 A 
HETATM   14  N   UNL     1     -44.901 -51.266  12.853  1.00  0.00    -0.311 N 
HETATM   15  N   UNL     1     -43.597 -51.508  12.497  1.00  0.00    -0.290 N 
ATOM     16  HN  UNL     1     -45.253 -50.310  12.901  1.00  0.00     0.186 HD
ATOM     17  HN  UNL     1     -42.988 -50.726  12.258  1.00  0.00     0.188 HD
ENDBRANCH   8  10
ENDBRANCH   7   8
ENDBRANCH   5   7
BRANCH   1  18
HETATM   18  C   UNL     1     -39.577 -48.650  11.864  1.00  0.00     0.374 C 
BRANCH  18  19
HETATM   19  C   UNL     1     -39.777 -47.133  11.809  1.00  0.00     0.246 C 
HETATM   20  O   UNL     1     -39.671 -46.428  12.811  1.00  0.00    -0.272 OA
HETATM   21  N   UNL     1     -40.148 -46.620  10.588  1.00  0.00    -0.348 N 
HETATM   22  H   UNL     1     -39.906 -47.177   9.772  1.00  0.00     0.163 HD
BRANCH  21  23
HETATM   23  C   UNL     1     -40.384 -45.189  10.461  1.00  0.00     0.227 C 
BRANCH  23  24
HETATM   24  C   UNL     1     -41.798 -44.791  10.850  1.00  0.00    -0.058 C 
BRANCH  24  25
HETATM   25  N   UNL     1     -42.972 -44.460  11.173  1.00  0.00    -0.368 N 
ATOM     26  HN2 UNL     1     -42.023 -44.723  10.905  1.00  0.00     0.165 HD
ATOM     27  HN1 UNL     1     -43.921 -44.194  11.435  1.00  0.00     0.165 HD
ENDBRANCH  24  25
ENDBRANCH  23  24
ENDBRANCH  21  23
ENDBRANCH  18  19
ENDBRANCH   1  18
TORSDOF 8
ENDMDL
MODEL 9
REMARK VINA RESULT:      -5.6      2.957      6.675
REMARK  8 active torsions:
REMARK  status: ('A' for Active; 'I' for Inactive)
REMARK    1  A    between atoms: C_2  and  C_3 
REMARK       I    between atoms: C_2  and  N_20 
REMARK    2  A    between atoms: C_3  and  N_4 
REMARK    3  A    between atoms: C_8  and  C_9 
REMARK    4  A    between atoms: C_9  and  N_10 
REMARK    5  A    between atoms: N_10  and  C_11 
REMARK    6  A    between atoms: N_20  and  C_21 
REMARK    7  A    between atoms: C_21  and  C_22 
REMARK    8  A    between atoms: C_22  and  N_23 
ROOT
HETATM    1  N   UNL     1     -40.066 -53.813  14.803  1.00  0.00     0.101 N 
HETATM    2  C   UNL     1     -39.259 -53.784  16.056  1.00  0.00     0.299 C 
HETATM    3  C   UNL     1     -38.900 -52.367  16.552  1.00  0.00     0.198 C 
HETATM    4  O   UNL     1     -38.217 -51.622  15.538  1.00  0.00    -0.381 OA
HETATM    5  C   UNL     1     -39.012 -51.539  14.334  1.00  0.00     0.163 C 
HETATM    6  C   UNL     1     -39.361 -52.954  13.816  1.00  0.00     0.306 C 
ENDROOT
BRANCH   5   7
HETATM    7  C   UNL     1     -38.198 -50.770  13.280  1.00  0.00     0.127 C 
BRANCH   7   8
HETATM    8  N   UNL     1     -38.813 -50.977  11.965  1.00  0.00    -0.275 NA
HETATM    9  H   UNL     1     -39.372 -51.830  11.968  1.00  0.00     0.129 HD
BRANCH   8  10
HETATM   10  C   UNL     1     -39.605 -49.899  11.529  1.00  0.00     0.094 A 
HETATM   11  C   UNL     1     -39.496 -48.690  12.202  1.00  0.00     0.045 A 
HETATM   12  C   UNL     1     -40.293 -47.617  11.819  1.00  0.00     0.022 A 
HETATM   13  C   UNL     1     -41.168 -47.800  10.772  1.00  0.00     0.107 A 
HETATM   14  N   UNL     1     -41.273 -48.973  10.123  1.00  0.00    -0.311 N 
HETATM   15  N   UNL     1     -40.493 -50.031  10.519  1.00  0.00    -0.290 N 
ATOM     16  HN  UNL     1     -41.925 -49.076   9.345  1.00  0.00     0.186 HD
ATOM     17  HN  UNL     1     -40.585 -50.929  10.043  1.00  0.00     0.188 HD
ENDBRANCH   8  10
ENDBRANCH   7   8
ENDBRANCH   5   7
BRANCH   1  18
HETATM   18  C   UNL     1     -41.444 -53.344  15.087  1.00  0.00     0.374 C 
BRANCH  18  19
HETATM   19  C   UNL     1     -42.508 -54.034  14.228  1.00  0.00     0.246 C 
HETATM   20  O   UNL     1     -42.373 -54.169  13.013  1.00  0.00    -0.272 OA
HETATM   21  N   UNL     1     -43.648 -54.431  14.888  1.00  0.00    -0.348 N 
HETATM   22  H   UNL     1     -43.560 -54.583  15.890  1.00  0.00     0.163 HD
BRANCH  21  23
HETATM   23  C   UNL     1     -44.718 -55.070  14.135  1.00  0.00     0.227 C 
BRANCH  23  24
HETATM   24  C   UNL     1     -46.033 -54.315  14.228  1.00  0.00    -0.058 C 
BRANCH  24  25
HETATM   25  N   UNL     1     -47.124 -53.688  14.305  1.00  0.00    -0.368 N 
ATOM     26  HN2 UNL     1     -46.239 -54.190  14.237  1.00  0.00     0.165 HD
ATOM     27  HN1 UNL     1     -48.007 -53.181  14.367  1.00  0.00     0.165 HD
ENDBRANCH  24  25
ENDBRANCH  23  24
ENDBRANCH  21  23
ENDBRANCH  18  19
ENDBRANCH   1  18
TORSDOF 8
ENDMDL
