MODEL 1
REMARK VINA RESULT:      -6.0      0.000      0.000
REMARK  9 active torsions:
REMARK  status: ('A' for Active; 'I' for Inactive)
REMARK    1  A    between atoms: O_2  and  C_3 
REMARK    2  A    between atoms: C_3  and  C_4 
REMARK    3  A    between atoms: C_4  and  N_5 
REMARK    4  A    between atoms: C_6  and  S_7 
REMARK    5  A    between atoms: S_7  and  C_8 
REMARK    6  A    between atoms: C_8  and  C_9 
REMARK       I    between atoms: C_9  and  N_11 
REMARK    7  A    between atoms: N_11  and  C_12 
REMARK    8  A    between atoms: C_12  and  C_13 
REMARK    9  A    between atoms: C_13  and  N_14 
ROOT
HETATM    1  N   UNL     1     -41.233 -51.767  13.583  1.00  0.00    -0.324 N 
HETATM    2  C   UNL     1     -41.553 -51.219  12.362  1.00  0.00     0.148 A 
HETATM    3  N   UNL     1     -42.658 -51.734  11.866  1.00  0.00    -0.335 N 
ATOM      4  HN  UNL     1     -43.115 -51.487  10.988  1.00  0.00     0.168 HD
HETATM    5  C   UNL     1     -43.063 -52.676  12.783  1.00  0.00     0.062 A 
HETATM    6  C   UNL     1     -44.153 -53.562  12.735  1.00  0.00     0.055 A 
HETATM    7  C   UNL     1     -44.339 -54.450  13.799  1.00  0.00     0.036 A 
HETATM    8 CL   UNL     1     -45.646 -55.576  13.744  1.00  0.00    -0.084 Cl
HETATM    9  C   UNL     1     -43.487 -54.454  14.902  1.00  0.00     0.026 A 
HETATM   10  C   UNL     1     -42.402 -53.573  14.968  1.00  0.00     0.034 A 
HETATM   11  C   UNL     1     -42.207 -52.705  13.883  1.00  0.00     0.063 A 
ENDROOT
BRANCH   2  12
HETATM   12  S   UNL     1     -40.560 -50.037  11.567  1.00  0.00    -0.084 SA
BRANCH  12  13
HETATM   13  C   UNL     1     -41.360 -48.473  12.029  1.00  0.00     0.185 C 
BRANCH  13  14
HETATM   14  C   UNL     1     -41.765 -47.664  10.795  1.00  0.00     0.228 C 
HETATM   15  O   UNL     1     -41.156 -46.649  10.458  1.00  0.00    -0.273 OA
HETATM   16  N   UNL     1     -42.794 -48.168  10.022  1.00  0.00    -0.349 N 
HETATM   17  H   UNL     1     -43.362 -48.910  10.417  1.00  0.00     0.163 HD
BRANCH  16  18
HETATM   18  C   UNL     1     -43.275 -47.430   8.862  1.00  0.00     0.227 C 
BRANCH  18  19
HETATM   19  C   UNL     1     -44.706 -47.780   8.490  1.00  0.00    -0.058 C 
BRANCH  19  20
HETATM   20  N   UNL     1     -45.894 -48.071   8.183  1.00  0.00    -0.368 N 
ATOM     21  HN2 UNL     1     -44.942 -47.841   8.466  1.00  0.00     0.165 HD
ATOM     22  HN1 UNL     1     -46.854 -48.306   7.934  1.00  0.00     0.165 HD
ENDBRANCH  19  20
ENDBRANCH  18  19
ENDBRANCH  16  18
ENDBRANCH  13  14
ENDBRANCH  12  13
ENDBRANCH   2  12
BRANCH   1  23
HETATM   23  C   UNL     1     -40.022 -51.562  14.361  1.00  0.00     0.157 C 
BRANCH  23  24
HETATM   24  C   UNL     1     -38.899 -52.564  14.109  1.00  0.00     0.187 C 
BRANCH  24  25
HETATM   25  O   UNL     1     -38.051 -52.108  13.057  1.00  0.00    -0.394 OA
HETATM   26  C   UNL     1     -37.428 -50.873  13.394  1.00  0.00     0.201 C 
ENDBRANCH  24  25
ENDBRANCH  23  24
ENDBRANCH   1  23
TORSDOF 9
ENDMDL
MODEL 2
REMARK VINA RESULT:      -5.9      3.924      5.616
REMARK  9 active torsions:
REMARK  status: ('A' for Active; 'I' for Inactive)
REMARK    1  A    between atoms: O_2  and  C_3 
REMARK    2  A    between atoms: C_3  and  C_4 
REMARK    3  A    between atoms: C_4  and  N_5 
REMARK    4  A    between atoms: C_6  and  S_7 
REMARK    5  A    between atoms: S_7  and  C_8 
REMARK    6  A    between atoms: C_8  and  C_9 
REMARK       I    between atoms: C_9  and  N_11 
REMARK    7  A    between atoms: N_11  and  C_12 
REMARK    8  A    between atoms: C_12  and  C_13 
REMARK    9  A    between atoms: C_13  and  N_14 
ROOT
HETATM    1  N   UNL     1     -42.109 -53.915  13.999  1.00  0.00    -0.324 N 
HETATM    2  C   UNL     1     -41.055 -53.432  13.257  1.00  0.00     0.148 A 
HETATM    3  N   UNL     1     -39.898 -53.883  13.692  1.00  0.00    -0.335 N 
ATOM      4  HN  UNL     1     -38.974 -53.690  13.306  1.00  0.00     0.168 HD
HETATM    5  C   UNL     1     -40.202 -54.672  14.778  1.00  0.00     0.062 A 
HETATM    6  C   UNL     1     -39.343 -55.358  15.654  1.00  0.00     0.055 A 
HETATM    7  C   UNL     1     -39.906 -56.082  16.710  1.00  0.00     0.036 A 
HETATM    8 CL   UNL     1     -38.871 -56.901  17.822  1.00  0.00    -0.084 Cl
HETATM    9  C   UNL     1     -41.286 -56.153  16.890  1.00  0.00     0.026 A 
HETATM   10  C   UNL     1     -42.154 -55.480  16.023  1.00  0.00     0.034 A 
HETATM   11  C   UNL     1     -41.579 -54.734  14.983  1.00  0.00     0.063 A 
ENDROOT
BRANCH   2  12
HETATM   12  S   UNL     1     -41.257 -52.307  11.949  1.00  0.00    -0.084 SA
BRANCH  12  13
HETATM   13  C   UNL     1     -40.456 -50.807  12.590  1.00  0.00     0.185 C 
BRANCH  13  14
HETATM   14  C   UNL     1     -38.954 -50.805  12.295  1.00  0.00     0.228 C 
HETATM   15  O   UNL     1     -38.175 -51.543  12.897  1.00  0.00    -0.273 OA
HETATM   16  N   UNL     1     -38.517 -49.998  11.262  1.00  0.00    -0.349 N 
HETATM   17  H   UNL     1     -39.160 -49.300  10.903  1.00  0.00     0.163 HD
BRANCH  16  18
HETATM   18  C   UNL     1     -37.097 -49.898  10.954  1.00  0.00     0.227 C 
BRANCH  18  19
HETATM   19  C   UNL     1     -36.798 -50.079   9.476  1.00  0.00    -0.058 C 
BRANCH  19  20
HETATM   20  N   UNL     1     -36.551 -50.230   8.249  1.00  0.00    -0.368 N 
ATOM     21  HN2 UNL     1     -36.750 -50.144   9.245  1.00  0.00     0.165 HD
ATOM     22  HN1 UNL     1     -36.351 -50.351   7.256  1.00  0.00     0.165 HD
ENDBRANCH  19  20
ENDBRANCH  18  19
ENDBRANCH  16  18
ENDBRANCH  13  14
ENDBRANCH  12  13
ENDBRANCH   2  12
BRANCH   1  23
HETATM   23  C   UNL     1     -43.508 -53.529  13.916  1.00  0.00     0.157 C 
BRANCH  23  24
HETATM   24  C   UNL     1     -44.291 -54.133  12.754  1.00  0.00     0.187 C 
BRANCH  24  25
HETATM   25  O   UNL     1     -45.512 -54.702  13.219  1.00  0.00    -0.394 OA
HETATM   26  C   UNL     1     -45.709 -54.441  14.605  1.00  0.00     0.201 C 
ENDBRANCH  24  25
ENDBRANCH  23  24
ENDBRANCH   1  23
TORSDOF 9
ENDMDL
MODEL 3
REMARK VINA RESULT:      -5.8      2.114      2.720
REMARK  9 active torsions:
REMARK  status: ('A' for Active; 'I' for Inactive)
REMARK    1  A    between atoms: O_2  and  C_3 
REMARK    2  A    between atoms: C_3  and  C_4 
REMARK    3  A    between atoms: C_4  and  N_5 
REMARK    4  A    between atoms: C_6  and  S_7 
REMARK    5  A    between atoms: S_7  and  C_8 
REMARK    6  A    between atoms: C_8  and  C_9 
REMARK       I    between atoms: C_9  and  N_11 
REMARK    7  A    between atoms: N_11  and  C_12 
REMARK    8  A    between atoms: C_12  and  C_13 
REMARK    9  A    between atoms: C_13  and  N_14 
ROOT
HETATM    1  N   UNL     1     -40.602 -52.104  13.254  1.00  0.00    -0.324 N 
HETATM    2  C   UNL     1     -41.045 -51.306  12.224  1.00  0.00     0.148 A 
HETATM    3  N   UNL     1     -42.287 -51.581  11.887  1.00  0.00    -0.335 N 
ATOM      4  HN  UNL     1     -42.849 -51.123  11.170  1.00  0.00     0.168 HD
HETATM    5  C   UNL     1     -42.664 -52.618  12.709  1.00  0.00     0.062 A 
HETATM    6  C   UNL     1     -43.870 -53.339  12.744  1.00  0.00     0.055 A 
HETATM    7  C   UNL     1     -44.001 -54.377  13.672  1.00  0.00     0.036 A 
HETATM    8 CL   UNL     1     -45.456 -55.303  13.708  1.00  0.00    -0.084 Cl
HETATM    9  C   UNL     1     -42.977 -54.688  14.566  1.00  0.00     0.026 A 
HETATM   10  C   UNL     1     -41.773 -53.976  14.547  1.00  0.00     0.034 A 
HETATM   11  C   UNL     1     -41.642 -52.953  13.595  1.00  0.00     0.063 A 
ENDROOT
BRANCH   2  12
HETATM   12  S   UNL     1     -40.037 -50.130  11.438  1.00  0.00    -0.084 SA
BRANCH  12  13
HETATM   13  C   UNL     1     -41.168 -48.727  11.213  1.00  0.00     0.185 C 
BRANCH  13  14
HETATM   14  C   UNL     1     -40.433 -47.390  11.324  1.00  0.00     0.228 C 
HETATM   15  O   UNL     1     -39.565 -47.197  12.175  1.00  0.00    -0.273 OA
HETATM   16  N   UNL     1     -40.722 -46.432  10.371  1.00  0.00    -0.349 N 
HETATM   17  H   UNL     1     -41.543 -46.573   9.793  1.00  0.00     0.163 HD
BRANCH  16  18
HETATM   18  C   UNL     1     -40.104 -45.113  10.439  1.00  0.00     0.227 C 
BRANCH  18  19
HETATM   19  C   UNL     1     -39.086 -44.881   9.336  1.00  0.00    -0.058 C 
BRANCH  19  20
HETATM   20  N   UNL     1     -38.241 -44.687   8.420  1.00  0.00    -0.368 N 
ATOM     21  HN2 UNL     1     -38.904 -44.823   9.183  1.00  0.00     0.165 HD
ATOM     22  HN1 UNL     1     -37.559 -44.530   7.679  1.00  0.00     0.165 HD
ENDBRANCH  19  20
ENDBRANCH  18  19
ENDBRANCH  16  18
ENDBRANCH  13  14
ENDBRANCH  12  13
ENDBRANCH   2  12
BRANCH   1  23
HETATM   23  C   UNL     1     -39.254 -52.196  13.793  1.00  0.00     0.157 C 
BRANCH  23  24
HETATM   24  C   UNL     1     -38.955 -51.285  14.979  1.00  0.00     0.187 C 
BRANCH  24  25
HETATM   25  O   UNL     1     -38.135 -50.191  14.573  1.00  0.00    -0.394 OA
HETATM   26  C   UNL     1     -36.971 -50.088  15.385  1.00  0.00     0.201 C 
ENDBRANCH  24  25
ENDBRANCH  23  24
ENDBRANCH   1  23
TORSDOF 9
ENDMDL
MODEL 4
REMARK VINA RESULT:      -5.8      1.414      1.663
REMARK  9 active torsions:
REMARK  status: ('A' for Active; 'I' for Inactive)
REMARK    1  A    between atoms: O_2  and  C_3 
REMARK    2  A    between atoms: C_3  and  C_4 
REMARK    3  A    between atoms: C_4  and  N_5 
REMARK    4  A    between atoms: C_6  and  S_7 
REMARK    5  A    between atoms: S_7  and  C_8 
REMARK    6  A    between atoms: C_8  and  C_9 
REMARK       I    between atoms: C_9  and  N_11 
REMARK    7  A    between atoms: N_11  and  C_12 
REMARK    8  A    between atoms: C_12  and  C_13 
REMARK    9  A    between atoms: C_13  and  N_14 
ROOT
HETATM    1  N   UNL     1     -41.943 -52.032  12.894  1.00  0.00    -0.324 N 
HETATM    2  C   UNL     1     -42.543 -50.829  12.599  1.00  0.00     0.148 A 
HETATM    3  N   UNL     1     -43.823 -50.829  12.905  1.00  0.00    -0.335 N 
ATOM      4  HN  UNL     1     -44.484 -50.059  12.801  1.00  0.00     0.168 HD
HETATM    5  C   UNL     1     -44.079 -52.089  13.394  1.00  0.00     0.062 A 
HETATM    6  C   UNL     1     -45.293 -52.656  13.818  1.00  0.00     0.055 A 
HETATM    7  C   UNL     1     -45.294 -53.983  14.257  1.00  0.00     0.036 A 
HETATM    8 CL   UNL     1     -46.778 -54.714  14.746  1.00  0.00    -0.084 Cl
HETATM    9  C   UNL     1     -44.121 -54.736  14.302  1.00  0.00     0.026 A 
HETATM   10  C   UNL     1     -42.904 -54.184  13.889  1.00  0.00     0.034 A 
HETATM   11  C   UNL     1     -42.918 -52.860  13.424  1.00  0.00     0.063 A 
ENDROOT
BRANCH   2  12
HETATM   12  S   UNL     1     -41.698 -49.509  11.850  1.00  0.00    -0.084 SA
BRANCH  12  13
HETATM   13  C   UNL     1     -42.669 -48.067  12.380  1.00  0.00     0.185 C 
BRANCH  13  14
HETATM   14  C   UNL     1     -43.183 -47.266  11.181  1.00  0.00     0.228 C 
HETATM   15  O   UNL     1     -42.926 -46.071  11.043  1.00  0.00    -0.273 OA
HETATM   16  N   UNL     1     -43.880 -47.962  10.212  1.00  0.00    -0.349 N 
HETATM   17  H   UNL     1     -44.200 -48.898  10.440  1.00  0.00     0.163 HD
BRANCH  16  18
HETATM   18  C   UNL     1     -44.449 -47.263   9.067  1.00  0.00     0.227 C 
BRANCH  18  19
HETATM   19  C   UNL     1     -45.968 -47.215   9.100  1.00  0.00    -0.058 C 
BRANCH  19  20
HETATM   20  N   UNL     1     -47.227 -47.176   9.126  1.00  0.00    -0.368 N 
ATOM     21  HN2 UNL     1     -46.209 -47.235   9.128  1.00  0.00     0.165 HD
ATOM     22  HN1 UNL     1     -48.246 -47.143   9.146  1.00  0.00     0.165 HD
ENDBRANCH  19  20
ENDBRANCH  18  19
ENDBRANCH  16  18
ENDBRANCH  13  14
ENDBRANCH  12  13
ENDBRANCH   2  12
BRANCH   1  23
HETATM   23  C   UNL     1     -40.592 -52.457  12.565  1.00  0.00     0.157 C 
BRANCH  23  24
HETATM   24  C   UNL     1     -39.545 -52.223  13.650  1.00  0.00     0.187 C 
BRANCH  24  25
HETATM   25  O   UNL     1     -38.618 -53.305  13.688  1.00  0.00    -0.394 OA
HETATM   26  C   UNL     1     -39.255 -54.518  14.074  1.00  0.00     0.201 C 
ENDBRANCH  24  25
ENDBRANCH  23  24
ENDBRANCH   1  23
TORSDOF 9
ENDMDL
MODEL 5
REMARK VINA RESULT:      -5.5      3.162      7.252
REMARK  9 active torsions:
REMARK  status: ('A' for Active; 'I' for Inactive)
REMARK    1  A    between atoms: O_2  and  C_3 
REMARK    2  A    between atoms: C_3  and  C_4 
REMARK    3  A    between atoms: C_4  and  N_5 
REMARK    4  A    between atoms: C_6  and  S_7 
REMARK    5  A    between atoms: S_7  and  C_8 
REMARK    6  A    between atoms: C_8  and  C_9 
REMARK       I    between atoms: C_9  and  N_11 
REMARK    7  A    between atoms: N_11  and  C_12 
REMARK    8  A    between atoms: C_12  and  C_13 
REMARK    9  A    between atoms: C_13  and  N_14 
ROOT
HETATM    1  N   UNL     1     -41.437 -46.622  10.428  1.00  0.00    -0.324 N 
HETATM    2  C   UNL     1     -41.339 -47.838  11.065  1.00  0.00     0.148 A 
HETATM    3  N   UNL     1     -42.465 -48.516  11.009  1.00  0.00    -0.335 N 
ATOM      4  HN  UNL     1     -42.647 -49.447  11.386  1.00  0.00     0.168 HD
HETATM    5  C   UNL     1     -43.345 -47.703  10.332  1.00  0.00     0.062 A 
HETATM    6  C   UNL     1     -44.704 -47.904  10.035  1.00  0.00     0.055 A 
HETATM    7  C   UNL     1     -45.393 -46.902   9.345  1.00  0.00     0.036 A 
HETATM    8 CL   UNL     1     -47.071 -47.108   9.004  1.00  0.00    -0.084 Cl
HETATM    9  C   UNL     1     -44.755 -45.732   8.933  1.00  0.00     0.026 A 
HETATM   10  C   UNL     1     -43.402 -45.519   9.216  1.00  0.00     0.034 A 
HETATM   11  C   UNL     1     -42.726 -46.519   9.932  1.00  0.00     0.063 A 
ENDROOT
BRANCH   2  12
HETATM   12  S   UNL     1     -39.904 -48.358  11.894  1.00  0.00    -0.084 SA
BRANCH  12  13
HETATM   13  C   UNL     1     -39.736 -50.083  11.349  1.00  0.00     0.185 C 
BRANCH  13  14
HETATM   14  C   UNL     1     -40.269 -51.058  12.401  1.00  0.00     0.228 C 
HETATM   15  O   UNL     1     -40.556 -50.689  13.540  1.00  0.00    -0.273 OA
HETATM   16  N   UNL     1     -40.498 -52.359  11.995  1.00  0.00    -0.349 N 
HETATM   17  H   UNL     1     -40.106 -52.653  11.107  1.00  0.00     0.163 HD
BRANCH  16  18
HETATM   18  C   UNL     1     -40.954 -53.361  12.950  1.00  0.00     0.227 C 
BRANCH  18  19
HETATM   19  C   UNL     1     -39.819 -54.203  13.509  1.00  0.00    -0.058 C 
BRANCH  19  20
HETATM   20  N   UNL     1     -38.878 -54.901  13.973  1.00  0.00    -0.368 N 
ATOM     21  HN2 UNL     1     -39.652 -54.333  13.632  1.00  0.00     0.165 HD
ATOM     22  HN1 UNL     1     -38.116 -55.466  14.347  1.00  0.00     0.165 HD
ENDBRANCH  19  20
ENDBRANCH  18  19
ENDBRANCH  16  18
ENDBRANCH  13  14
ENDBRANCH  12  13
ENDBRANCH   2  12
BRANCH   1  23
HETATM   23  C   UNL     1     -40.460 -45.546  10.408  1.00  0.00     0.157 C 
BRANCH  23  24
HETATM   24  C   UNL     1     -40.692 -44.427  11.419  1.00  0.00     0.187 C 
BRANCH  24  25
HETATM   25  O   UNL     1     -40.673 -44.943  12.747  1.00  0.00    -0.394 OA
HETATM   26  C   UNL     1     -39.453 -44.626  13.408  1.00  0.00     0.201 C 
ENDBRANCH  24  25
ENDBRANCH  23  24
ENDBRANCH   1  23
TORSDOF 9
ENDMDL
MODEL 6
REMARK VINA RESULT:      -5.5      3.523      6.320
REMARK  9 active torsions:
REMARK  status: ('A' for Active; 'I' for Inactive)
REMARK    1  A    between atoms: O_2  and  C_3 
REMARK    2  A    between atoms: C_3  and  C_4 
REMARK    3  A    between atoms: C_4  and  N_5 
REMARK    4  A    between atoms: C_6  and  S_7 
REMARK    5  A    between atoms: S_7  and  C_8 
REMARK    6  A    between atoms: C_8  and  C_9 
REMARK       I    between atoms: C_9  and  N_11 
REMARK    7  A    between atoms: N_11  and  C_12 
REMARK    8  A    between atoms: C_12  and  C_13 
REMARK    9  A    between atoms: C_13  and  N_14 
ROOT
HETATM    1  N   UNL     1     -40.007 -48.750  11.988  1.00  0.00    -0.324 N 
HETATM    2  C   UNL     1     -40.766 -49.898  12.021  1.00  0.00     0.148 A 
HETATM    3  N   UNL     1     -41.911 -49.749  11.390  1.00  0.00    -0.335 N 
ATOM      4  HN  UNL     1     -42.640 -50.451  11.256  1.00  0.00     0.168 HD
HETATM    5  C   UNL     1     -41.916 -48.445  10.949  1.00  0.00     0.062 A 
HETATM    6  C   UNL     1     -42.918 -47.735  10.265  1.00  0.00     0.055 A 
HETATM    7  C   UNL     1     -42.685 -46.394   9.945  1.00  0.00     0.036 A 
HETATM    8 CL   UNL     1     -43.914 -45.489   9.140  1.00  0.00    -0.084 Cl
HETATM    9  C   UNL     1     -41.483 -45.766  10.268  1.00  0.00     0.026 A 
HETATM   10  C   UNL     1     -40.474 -46.461  10.944  1.00  0.00     0.034 A 
HETATM   11  C   UNL     1     -40.728 -47.799  11.285  1.00  0.00     0.063 A 
ENDROOT
BRANCH   2  12
HETATM   12  S   UNL     1     -40.272 -51.334  12.861  1.00  0.00    -0.084 SA
BRANCH  12  13
HETATM   13  C   UNL     1     -41.205 -52.636  12.003  1.00  0.00     0.185 C 
BRANCH  13  14
HETATM   14  C   UNL     1     -42.428 -53.074  12.810  1.00  0.00     0.228 C 
HETATM   15  O   UNL     1     -42.365 -53.281  14.022  1.00  0.00    -0.273 OA
HETATM   16  N   UNL     1     -43.633 -53.148  12.137  1.00  0.00    -0.349 N 
HETATM   17  H   UNL     1     -43.610 -53.123  11.123  1.00  0.00     0.163 HD
BRANCH  16  18
HETATM   18  C   UNL     1     -44.834 -53.609  12.821  1.00  0.00     0.227 C 
BRANCH  18  19
HETATM   19  C   UNL     1     -45.851 -52.502  13.040  1.00  0.00    -0.058 C 
BRANCH  19  20
HETATM   20  N   UNL     1     -46.695 -51.583  13.221  1.00  0.00    -0.368 N 
ATOM     21  HN2 UNL     1     -46.039 -52.347  13.061  1.00  0.00     0.165 HD
ATOM     22  HN1 UNL     1     -47.377 -50.839  13.368  1.00  0.00     0.165 HD
ENDBRANCH  19  20
ENDBRANCH  18  19
ENDBRANCH  16  18
ENDBRANCH  13  14
ENDBRANCH  12  13
ENDBRANCH   2  12
BRANCH   1  23
HETATM   23  C   UNL     1     -38.764 -48.485  12.693  1.00  0.00     0.157 C 
BRANCH  23  24
HETATM   24  C   UNL     1     -38.912 -47.891  14.091  1.00  0.00     0.187 C 
BRANCH  24  25
HETATM   25  O   UNL     1     -38.329 -46.591  14.144  1.00  0.00    -0.394 OA
HETATM   26  C   UNL     1     -39.316 -45.592  14.377  1.00  0.00     0.201 C 
ENDBRANCH  24  25
ENDBRANCH  23  24
ENDBRANCH   1  23
TORSDOF 9
ENDMDL
MODEL 7
REMARK VINA RESULT:      -5.5      2.444      3.600
REMARK  9 active torsions:
REMARK  status: ('A' for Active; 'I' for Inactive)
REMARK    1  A    between atoms: O_2  and  C_3 
REMARK    2  A    between atoms: C_3  and  C_4 
REMARK    3  A    between atoms: C_4  and  N_5 
REMARK    4  A    between atoms: C_6  and  S_7 
REMARK    5  A    between atoms: S_7  and  C_8 
REMARK    6  A    between atoms: C_8  and  C_9 
REMARK       I    between atoms: C_9  and  N_11 
REMARK    7  A    between atoms: N_11  and  C_12 
REMARK    8  A    between atoms: C_12  and  C_13 
REMARK    9  A    between atoms: C_13  and  N_14 
ROOT
HETATM    1  N   UNL     1     -41.986 -51.437  14.144  1.00  0.00    -0.324 N 
HETATM    2  C   UNL     1     -42.691 -50.527  13.391  1.00  0.00     0.148 A 
HETATM    3  N   UNL     1     -43.857 -51.002  13.008  1.00  0.00    -0.335 N 
ATOM      4  HN  UNL     1     -44.571 -50.522  12.460  1.00  0.00     0.168 HD
HETATM    5  C   UNL     1     -43.907 -52.284  13.506  1.00  0.00     0.062 A 
HETATM    6  C   UNL     1     -44.901 -53.266  13.351  1.00  0.00     0.055 A 
HETATM    7  C   UNL     1     -44.702 -54.516  13.946  1.00  0.00     0.036 A 
HETATM    8 CL   UNL     1     -45.889 -55.751  13.738  1.00  0.00    -0.084 Cl
HETATM    9  C   UNL     1     -43.562 -54.791  14.699  1.00  0.00     0.026 A 
HETATM   10  C   UNL     1     -42.567 -53.822  14.866  1.00  0.00     0.034 A 
HETATM   11  C   UNL     1     -42.762 -52.580  14.243  1.00  0.00     0.063 A 
ENDROOT
BRANCH   2  12
HETATM   12  S   UNL     1     -42.061 -48.967  12.959  1.00  0.00    -0.084 SA
BRANCH  12  13
HETATM   13  C   UNL     1     -41.217 -49.304  11.386  1.00  0.00     0.185 C 
BRANCH  13  14
HETATM   14  C   UNL     1     -39.703 -49.114  11.510  1.00  0.00     0.228 C 
HETATM   15  O   UNL     1     -39.217 -48.126  12.060  1.00  0.00    -0.273 OA
HETATM   16  N   UNL     1     -38.901 -50.143  11.053  1.00  0.00    -0.349 N 
HETATM   17  H   UNL     1     -39.331 -50.856  10.474  1.00  0.00     0.163 HD
BRANCH  16  18
HETATM   18  C   UNL     1     -37.450 -50.017  11.086  1.00  0.00     0.227 C 
BRANCH  18  19
HETATM   19  C   UNL     1     -36.818 -50.106   9.707  1.00  0.00    -0.058 C 
BRANCH  19  20
HETATM   20  N   UNL     1     -36.292 -50.179   8.563  1.00  0.00    -0.368 N 
ATOM     21  HN2 UNL     1     -36.694 -50.145   9.500  1.00  0.00     0.165 HD
ATOM     22  HN1 UNL     1     -35.868 -50.238   7.638  1.00  0.00     0.165 HD
ENDBRANCH  19  20
ENDBRANCH  18  19
ENDBRANCH  16  18
ENDBRANCH  13  14
ENDBRANCH  12  13
ENDBRANCH   2  12
BRANCH   1  23
HETATM   23  C   UNL     1     -40.614 -51.332  14.614  1.00  0.00     0.157 C 
BRANCH  23  24
HETATM   24  C   UNL     1     -39.580 -52.116  13.812  1.00  0.00     0.187 C 
BRANCH  24  25
HETATM   25  O   UNL     1     -38.924 -53.070  14.643  1.00  0.00    -0.394 OA
HETATM   26  C   UNL     1     -39.091 -54.392  14.144  1.00  0.00     0.201 C 
ENDBRANCH  24  25
ENDBRANCH  23  24
ENDBRANCH   1  23
TORSDOF 9
ENDMDL
MODEL 8
REMARK VINA RESULT:      -5.4      2.080      2.274
REMARK  9 active torsions:
REMARK  status: ('A' for Active; 'I' for Inactive)
REMARK    1  A    between atoms: O_2  and  C_3 
REMARK    2  A    between atoms: C_3  and  C_4 
REMARK    3  A    between atoms: C_4  and  N_5 
REMARK    4  A    between atoms: C_6  and  S_7 
REMARK    5  A    between atoms: S_7  and  C_8 
REMARK    6  A    between atoms: C_8  and  C_9 
REMARK       I    between atoms: C_9  and  N_11 
REMARK    7  A    between atoms: N_11  and  C_12 
REMARK    8  A    between atoms: C_12  and  C_13 
REMARK    9  A    between atoms: C_13  and  N_14 
ROOT
HETATM    1  N   UNL     1     -41.206 -50.800  13.678  1.00  0.00    -0.324 N 
HETATM    2  C   UNL     1     -41.344 -50.294  12.406  1.00  0.00     0.148 A 
HETATM    3  N   UNL     1     -42.608 -50.167  12.062  1.00  0.00    -0.335 N 
ATOM      4  HN  UNL     1     -42.976 -49.800  11.183  1.00  0.00     0.168 HD
HETATM    5  C   UNL     1     -43.326 -50.633  13.139  1.00  0.00     0.062 A 
HETATM    6  C   UNL     1     -44.716 -50.778  13.294  1.00  0.00     0.055 A 
HETATM    7  C   UNL     1     -45.203 -51.304  14.494  1.00  0.00     0.036 A 
HETATM    8 CL   UNL     1     -46.902 -51.528  14.693  1.00  0.00    -0.084 Cl
HETATM    9  C   UNL     1     -44.345 -51.662  15.533  1.00  0.00     0.026 A 
HETATM   10  C   UNL     1     -42.960 -51.519  15.396  1.00  0.00     0.034 A 
HETATM   11  C   UNL     1     -42.479 -51.015  14.178  1.00  0.00     0.063 A 
ENDROOT
BRANCH   2  12
HETATM   12  S   UNL     1     -39.991 -49.938  11.378  1.00  0.00    -0.084 SA
BRANCH  12  13
HETATM   13  C   UNL     1     -39.579 -48.231  11.844  1.00  0.00     0.185 C 
BRANCH  13  14
HETATM   14  C   UNL     1     -40.707 -47.262  11.482  1.00  0.00     0.228 C 
HETATM   15  O   UNL     1     -41.016 -46.325  12.217  1.00  0.00    -0.273 OA
HETATM   16  N   UNL     1     -41.312 -47.433  10.252  1.00  0.00    -0.349 N 
HETATM   17  H   UNL     1     -41.137 -48.300   9.755  1.00  0.00     0.163 HD
BRANCH  16  18
HETATM   18  C   UNL     1     -42.430 -46.587   9.856  1.00  0.00     0.227 C 
BRANCH  18  19
HETATM   19  C   UNL     1     -43.764 -47.315   9.892  1.00  0.00    -0.058 C 
BRANCH  19  20
HETATM   20  N   UNL     1     -44.870 -47.919   9.921  1.00  0.00    -0.368 N 
ATOM     21  HN2 UNL     1     -43.990 -47.403   9.916  1.00  0.00     0.165 HD
ATOM     22  HN1 UNL     1     -45.764 -48.408   9.944  1.00  0.00     0.165 HD
ENDBRANCH  19  20
ENDBRANCH  18  19
ENDBRANCH  16  18
ENDBRANCH  13  14
ENDBRANCH  12  13
ENDBRANCH   2  12
BRANCH   1  23
HETATM   23  C   UNL     1     -39.981 -51.215  14.343  1.00  0.00     0.157 C 
BRANCH  23  24
HETATM   24  C   UNL     1     -39.676 -52.709  14.291  1.00  0.00     0.187 C 
BRANCH  24  25
HETATM   25  O   UNL     1     -39.910 -53.220  12.981  1.00  0.00    -0.394 OA
HETATM   26  C   UNL     1     -40.928 -54.215  12.988  1.00  0.00     0.201 C 
ENDBRANCH  24  25
ENDBRANCH  23  24
ENDBRANCH   1  23
TORSDOF 9
ENDMDL
MODEL 9
REMARK VINA RESULT:      -5.4      3.483      6.537
REMARK  9 active torsions:
REMARK  status: ('A' for Active; 'I' for Inactive)
REMARK    1  A    between atoms: O_2  and  C_3 
REMARK    2  A    between atoms: C_3  and  C_4 
REMARK    3  A    between atoms: C_4  and  N_5 
REMARK    4  A    between atoms: C_6  and  S_7 
REMARK    5  A    between atoms: S_7  and  C_8 
REMARK    6  A    between atoms: C_8  and  C_9 
REMARK       I    between atoms: C_9  and  N_11 
REMARK    7  A    between atoms: N_11  and  C_12 
REMARK    8  A    between atoms: C_12  and  C_13 
REMARK    9  A    between atoms: C_13  and  N_14 
ROOT
HETATM    1  N   UNL     1     -39.952 -48.612  11.973  1.00  0.00    -0.324 N 
HETATM    2  C   UNL     1     -40.562 -49.837  11.822  1.00  0.00     0.148 A 
HETATM    3  N   UNL     1     -41.648 -49.758  11.083  1.00  0.00    -0.335 N 
ATOM      4  HN  UNL     1     -42.267 -50.521  10.808  1.00  0.00     0.168 HD
HETATM    5  C   UNL     1     -41.771 -48.426  10.759  1.00  0.00     0.062 A 
HETATM    6  C   UNL     1     -42.780 -47.770  10.033  1.00  0.00     0.055 A 
HETATM    7  C   UNL     1     -42.685 -46.386   9.858  1.00  0.00     0.036 A 
HETATM    8 CL   UNL     1     -43.930 -45.552   9.004  1.00  0.00    -0.084 Cl
HETATM    9  C   UNL     1     -41.608 -45.660  10.367  1.00  0.00     0.026 A 
HETATM   10  C   UNL     1     -40.594 -46.299  11.087  1.00  0.00     0.034 A 
HETATM   11  C   UNL     1     -40.712 -47.684  11.280  1.00  0.00     0.063 A 
ENDROOT
BRANCH   2  12
HETATM   12  S   UNL     1     -39.980 -51.284  12.584  1.00  0.00    -0.084 SA
BRANCH  12  13
HETATM   13  C   UNL     1     -41.182 -52.531  12.036  1.00  0.00     0.185 C 
BRANCH  13  14
HETATM   14  C   UNL     1     -42.364 -52.633  13.002  1.00  0.00     0.228 C 
HETATM   15  O   UNL     1     -43.207 -51.740  13.090  1.00  0.00    -0.273 OA
HETATM   16  N   UNL     1     -42.495 -53.810  13.715  1.00  0.00    -0.349 N 
HETATM   17  H   UNL     1     -41.704 -54.444  13.729  1.00  0.00     0.163 HD
BRANCH  16  18
HETATM   18  C   UNL     1     -43.562 -53.964  14.695  1.00  0.00     0.227 C 
BRANCH  18  19
HETATM   19  C   UNL     1     -44.754 -54.736  14.155  1.00  0.00    -0.058 C 
BRANCH  19  20
HETATM   20  N   UNL     1     -45.743 -55.376  13.706  1.00  0.00    -0.368 N 
ATOM     21  HN2 UNL     1     -44.958 -54.859  14.102  1.00  0.00     0.165 HD
ATOM     22  HN1 UNL     1     -46.543 -55.894  13.343  1.00  0.00     0.165 HD
ENDBRANCH  19  20
ENDBRANCH  18  19
ENDBRANCH  16  18
ENDBRANCH  13  14
ENDBRANCH  12  13
ENDBRANCH   2  12
BRANCH   1  23
HETATM   23  C   UNL     1     -38.828 -48.278  12.832  1.00  0.00     0.157 C 
BRANCH  23  24
HETATM   24  C   UNL     1     -39.190 -47.694  14.195  1.00  0.00     0.187 C 
BRANCH  24  25
HETATM   25  O   UNL     1     -38.509 -48.393  15.233  1.00  0.00    -0.394 OA
HETATM   26  C   UNL     1     -37.484 -49.229  14.707  1.00  0.00     0.201 C 
ENDBRANCH  24  25
ENDBRANCH  23  24
ENDBRANCH   1  23
TORSDOF 9
ENDMDL
