MODEL 1
REMARK VINA RESULT:      -6.8      0.000      0.000
REMARK  6 active torsions:
REMARK  status: ('A' for Active; 'I' for Inactive)
REMARK    1  A    between atoms: N_2  and  C_17 
REMARK    2  A    between atoms: N_4  and  C_7 
REMARK    3  A    between atoms: C_9  and  C_20 
REMARK    4  A    between atoms: C_14  and  C_20 
REMARK    5  A    between atoms: C_17  and  C_19 
REMARK    6  A    between atoms: C_19  and  O_27 
ROOT
HETATM    1  C   UNL     1     -41.824 -49.180  11.756  1.00  0.00     0.122 A 
HETATM    2  N   UNL     1     -42.019 -47.145  10.986  1.00  0.00    -0.324 N 
HETATM    3  C   UNL     1     -41.091 -48.061  11.406  1.00  0.00     0.140 A 
HETATM    4  N   UNL     1     -43.179 -48.942  11.596  1.00  0.00    -0.346 N 
ATOM      5  HN  UNL     1     -43.949 -49.577  11.804  1.00  0.00     0.167 HD
HETATM    6  C   UNL     1     -41.093 -50.306  12.176  1.00  0.00     0.135 A 
HETATM    7  C   UNL     1     -43.257 -47.720  11.116  1.00  0.00     0.185 A 
HETATM    8  N   UNL     1     -39.759 -47.905  11.442  1.00  0.00    -0.336 N 
ATOM      9  HN  UNL     1     -39.266 -47.051  11.179  1.00  0.00     0.168 HD
HETATM   10  N   UNL     1     -39.737 -50.203  12.228  1.00  0.00    -0.337 N 
ATOM     11  HN  UNL     1     -39.166 -50.993  12.527  1.00  0.00     0.168 HD
HETATM   12  C   UNL     1     -39.163 -49.033  11.874  1.00  0.00     0.183 A 
ENDROOT
BRANCH   6  13
HETATM   13  N   UNL     1     -41.710 -51.502  12.557  1.00  0.00    -0.364 N 
HETATM   14  C   UNL     1     -41.898 -52.709  11.830  1.00  0.00     0.135 C 
HETATM   15  C   UNL     1     -42.662 -53.227  13.084  1.00  0.00    -0.004 C 
HETATM   16  C   UNL     1     -42.823 -51.719  13.421  1.00  0.00     0.135 C 
HETATM   17  C   UNL     1     -41.732 -53.978  14.048  1.00  0.00     0.019 C 
BRANCH  15  18
HETATM   18  C   UNL     1     -43.951 -53.990  12.785  1.00  0.00     0.130 C 
BRANCH  18  19
HETATM   19  C   UNL     1     -44.589 -54.586  14.029  1.00  0.00     0.388 C 
HETATM   20  F   UNL     1     -44.749 -53.693  15.025  1.00  0.00    -0.171 F 
HETATM   21  F   UNL     1     -45.812 -55.084  13.740  1.00  0.00    -0.171 F 
HETATM   22  F   UNL     1     -43.840 -55.604  14.511  1.00  0.00    -0.171 F 
ENDBRANCH  18  19
ENDBRANCH  15  18
ENDBRANCH   6  13
BRANCH   2  23
HETATM   23  C   UNL     1     -41.732 -45.886  10.330  1.00  0.00     0.169 C 
BRANCH  23  24
HETATM   24  C   UNL     1     -42.026 -44.615  11.161  1.00  0.00     0.078 C 
HETATM   25  C   UNL     1     -40.811 -43.672  11.055  1.00  0.00     0.066 C 
HETATM   26  C   UNL     1     -39.680 -44.103  11.973  1.00  0.00     0.170 C 
HETATM   27  O   UNL     1     -40.138 -44.115  13.321  1.00  0.00    -0.391 OA
HETATM   28  C   UNL     1     -41.156 -45.087  13.537  1.00  0.00     0.170 C 
HETATM   29  C   UNL     1     -42.369 -44.843  12.645  1.00  0.00     0.066 C 
BRANCH  24  30
HETATM   30  O   UNL     1     -43.123 -43.930  10.527  1.00  0.00    -0.388 OA
HETATM   31  H   UNL     1     -43.897 -43.967  11.118  1.00  0.00     0.210 HD
ENDBRANCH  24  30
ENDBRANCH  23  24
ENDBRANCH   2  23
TORSDOF 6
ENDMDL
MODEL 2
REMARK VINA RESULT:      -6.8      2.109      2.792
REMARK  6 active torsions:
REMARK  status: ('A' for Active; 'I' for Inactive)
REMARK    1  A    between atoms: N_2  and  C_17 
REMARK    2  A    between atoms: N_4  and  C_7 
REMARK    3  A    between atoms: C_9  and  C_20 
REMARK    4  A    between atoms: C_14  and  C_20 
REMARK    5  A    between atoms: C_17  and  C_19 
REMARK    6  A    between atoms: C_19  and  O_27 
ROOT
HETATM    1  C   UNL     1     -41.732 -48.778  12.938  1.00  0.00     0.122 A 
HETATM    2  N   UNL     1     -40.669 -46.876  12.786  1.00  0.00    -0.324 N 
HETATM    3  C   UNL     1     -40.675 -48.156  12.298  1.00  0.00     0.140 A 
HETATM    4  N   UNL     1     -42.336 -47.911  13.833  1.00  0.00    -0.346 N 
ATOM      5  HN  UNL     1     -43.117 -48.109  14.458  1.00  0.00     0.167 HD
HETATM    6  C   UNL     1     -41.997 -50.110  12.568  1.00  0.00     0.135 A 
HETATM    7  C   UNL     1     -41.684 -46.776  13.702  1.00  0.00     0.185 A 
HETATM    8  N   UNL     1     -39.847 -48.677  11.380  1.00  0.00    -0.336 N 
ATOM      9  HN  UNL     1     -39.074 -48.175  10.942  1.00  0.00     0.168 HD
HETATM   10  N   UNL     1     -41.188 -50.685  11.637  1.00  0.00    -0.337 N 
ATOM     11  HN  UNL     1     -41.341 -51.649  11.340  1.00  0.00     0.168 HD
HETATM   12  C   UNL     1     -40.179 -49.956  11.116  1.00  0.00     0.183 A 
ENDROOT
BRANCH   6  13
HETATM   13  N   UNL     1     -43.036 -50.854  13.136  1.00  0.00    -0.364 N 
HETATM   14  C   UNL     1     -44.418 -50.549  13.265  1.00  0.00     0.135 C 
HETATM   15  C   UNL     1     -44.544 -51.906  14.017  1.00  0.00    -0.004 C 
HETATM   16  C   UNL     1     -43.016 -51.748  14.246  1.00  0.00     0.135 C 
HETATM   17  C   UNL     1     -44.909 -53.053  13.064  1.00  0.00     0.019 C 
BRANCH  15  18
HETATM   18  C   UNL     1     -45.419 -51.872  15.269  1.00  0.00     0.130 C 
BRANCH  18  19
HETATM   19  C   UNL     1     -46.903 -51.779  14.953  1.00  0.00     0.388 C 
HETATM   20  F   UNL     1     -47.164 -51.106  13.815  1.00  0.00    -0.171 F 
HETATM   21  F   UNL     1     -47.434 -53.015  14.816  1.00  0.00    -0.171 F 
HETATM   22  F   UNL     1     -47.568 -51.161  15.955  1.00  0.00    -0.171 F 
ENDBRANCH  18  19
ENDBRANCH  15  18
ENDBRANCH   6  13
BRANCH   2  23
HETATM   23  C   UNL     1     -39.875 -45.778  12.274  1.00  0.00     0.169 C 
BRANCH  23  24
HETATM   24  C   UNL     1     -40.244 -45.287  10.854  1.00  0.00     0.078 C 
HETATM   25  C   UNL     1     -39.863 -43.799  10.739  1.00  0.00     0.066 C 
HETATM   26  C   UNL     1     -40.894 -42.899  11.401  1.00  0.00     0.170 C 
HETATM   27  O   UNL     1     -42.164 -43.099  10.789  1.00  0.00    -0.391 OA
HETATM   28  C   UNL     1     -42.662 -44.417  10.997  1.00  0.00     0.170 C 
HETATM   29  C   UNL     1     -41.715 -45.474  10.437  1.00  0.00     0.066 C 
BRANCH  24  30
HETATM   30  O   UNL     1     -39.401 -45.992   9.923  1.00  0.00    -0.388 OA
HETATM   31  H   UNL     1     -39.931 -46.227   9.139  1.00  0.00     0.210 HD
ENDBRANCH  24  30
ENDBRANCH  23  24
ENDBRANCH   2  23
TORSDOF 6
ENDMDL
MODEL 3
REMARK VINA RESULT:      -6.7      1.514      2.109
REMARK  6 active torsions:
REMARK  status: ('A' for Active; 'I' for Inactive)
REMARK    1  A    between atoms: N_2  and  C_17 
REMARK    2  A    between atoms: N_4  and  C_7 
REMARK    3  A    between atoms: C_9  and  C_20 
REMARK    4  A    between atoms: C_14  and  C_20 
REMARK    5  A    between atoms: C_17  and  C_19 
REMARK    6  A    between atoms: C_19  and  O_27 
ROOT
HETATM    1  C   UNL     1     -40.735 -49.165  12.913  1.00  0.00     0.122 A 
HETATM    2  N   UNL     1     -40.334 -47.022  12.776  1.00  0.00    -0.324 N 
HETATM    3  C   UNL     1     -39.841 -48.244  12.399  1.00  0.00     0.140 A 
HETATM    4  N   UNL     1     -41.733 -48.525  13.629  1.00  0.00    -0.346 N 
ATOM      5  HN  UNL     1     -42.505 -48.956  14.137  1.00  0.00     0.167 HD
HETATM    6  C   UNL     1     -40.487 -50.518  12.616  1.00  0.00     0.135 A 
HETATM    7  C   UNL     1     -41.471 -47.242  13.510  1.00  0.00     0.185 A 
HETATM    8  N   UNL     1     -38.742 -48.482  11.668  1.00  0.00    -0.336 N 
ATOM      9  HN  UNL     1     -38.109 -47.763  11.318  1.00  0.00     0.168 HD
HETATM   10  N   UNL     1     -39.386 -50.815  11.873  1.00  0.00    -0.337 N 
ATOM     11  HN  UNL     1     -39.165 -51.782  11.634  1.00  0.00     0.168 HD
HETATM   12  C   UNL     1     -38.592 -49.805  11.459  1.00  0.00     0.183 A 
ENDROOT
BRANCH   6  13
HETATM   13  N   UNL     1     -41.313 -51.550  13.072  1.00  0.00    -0.364 N 
HETATM   14  C   UNL     1     -42.424 -52.179  12.448  1.00  0.00     0.135 C 
HETATM   15  C   UNL     1     -42.557 -53.013  13.756  1.00  0.00    -0.004 C 
HETATM   16  C   UNL     1     -41.740 -51.858  14.397  1.00  0.00     0.135 C 
HETATM   17  C   UNL     1     -41.786 -54.338  13.668  1.00  0.00     0.019 C 
BRANCH  15  18
HETATM   18  C   UNL     1     -43.987 -53.189  14.267  1.00  0.00     0.130 C 
BRANCH  18  19
HETATM   19  C   UNL     1     -44.711 -54.353  13.610  1.00  0.00     0.388 C 
HETATM   20  F   UNL     1     -44.392 -54.514  12.310  1.00  0.00    -0.171 F 
HETATM   21  F   UNL     1     -44.412 -55.511  14.240  1.00  0.00    -0.171 F 
HETATM   22  F   UNL     1     -46.051 -54.186  13.683  1.00  0.00    -0.171 F 
ENDBRANCH  18  19
ENDBRANCH  15  18
ENDBRANCH   6  13
BRANCH   2  23
HETATM   23  C   UNL     1     -39.860 -45.736  12.309  1.00  0.00     0.169 C 
BRANCH  23  24
HETATM   24  C   UNL     1     -40.245 -45.367  10.856  1.00  0.00     0.078 C 
HETATM   25  C   UNL     1     -40.053 -43.849  10.671  1.00  0.00     0.066 C 
HETATM   26  C   UNL     1     -41.209 -43.057  11.260  1.00  0.00     0.170 C 
HETATM   27  O   UNL     1     -42.424 -43.448  10.629  1.00  0.00    -0.391 OA
HETATM   28  C   UNL     1     -42.757 -44.807  10.894  1.00  0.00     0.170 C 
HETATM   29  C   UNL     1     -41.667 -45.760  10.414  1.00  0.00     0.066 C 
BRANCH  24  30
HETATM   30  O   UNL     1     -39.292 -46.002   9.984  1.00  0.00    -0.388 OA
HETATM   31  H   UNL     1     -38.899 -46.762  10.451  1.00  0.00     0.210 HD
ENDBRANCH  24  30
ENDBRANCH  23  24
ENDBRANCH   2  23
TORSDOF 6
ENDMDL
MODEL 4
REMARK VINA RESULT:      -6.5      1.912      2.978
REMARK  6 active torsions:
REMARK  status: ('A' for Active; 'I' for Inactive)
REMARK    1  A    between atoms: N_2  and  C_17 
REMARK    2  A    between atoms: N_4  and  C_7 
REMARK    3  A    between atoms: C_9  and  C_20 
REMARK    4  A    between atoms: C_14  and  C_20 
REMARK    5  A    between atoms: C_17  and  C_19 
REMARK    6  A    between atoms: C_19  and  O_27 
ROOT
HETATM    1  C   UNL     1     -40.973 -47.683  11.656  1.00  0.00     0.122 A 
HETATM    2  N   UNL     1     -40.170 -45.660  11.467  1.00  0.00    -0.324 N 
HETATM    3  C   UNL     1     -41.076 -46.524  10.909  1.00  0.00     0.140 A 
HETATM    4  N   UNL     1     -39.993 -47.550  12.625  1.00  0.00    -0.346 N 
ATOM      5  HN  UNL     1     -39.684 -48.254  13.296  1.00  0.00     0.167 HD
HETATM    6  C   UNL     1     -41.853 -48.729  11.321  1.00  0.00     0.135 A 
HETATM    7  C   UNL     1     -39.546 -46.320  12.493  1.00  0.00     0.185 A 
HETATM    8  N   UNL     1     -41.900 -46.279   9.879  1.00  0.00    -0.336 N 
ATOM      9  HN  UNL     1     -41.931 -45.404   9.354  1.00  0.00     0.168 HD
HETATM   10  N   UNL     1     -42.712 -48.531  10.284  1.00  0.00    -0.337 N 
ATOM     11  HN  UNL     1     -43.366 -49.262  10.005  1.00  0.00     0.168 HD
HETATM   12  C   UNL     1     -42.680 -47.349   9.634  1.00  0.00     0.183 A 
ENDROOT
BRANCH   6  13
HETATM   13  N   UNL     1     -41.854 -49.953  11.997  1.00  0.00    -0.364 N 
HETATM   14  C   UNL     1     -42.186 -50.257  13.345  1.00  0.00     0.135 C 
HETATM   15  C   UNL     1     -41.800 -51.725  13.004  1.00  0.00    -0.004 C 
HETATM   16  C   UNL     1     -41.002 -51.084  11.836  1.00  0.00     0.135 C 
HETATM   17  C   UNL     1     -43.017 -52.542  12.544  1.00  0.00     0.019 C 
BRANCH  15  18
HETATM   18  C   UNL     1     -40.973 -52.440  14.071  1.00  0.00     0.130 C 
BRANCH  18  19
HETATM   19  C   UNL     1     -40.727 -53.905  13.748  1.00  0.00     0.388 C 
HETATM   20  F   UNL     1     -39.541 -54.359  14.201  1.00  0.00    -0.171 F 
HETATM   21  F   UNL     1     -41.688 -54.678  14.302  1.00  0.00    -0.171 F 
HETATM   22  F   UNL     1     -40.760 -54.113  12.412  1.00  0.00    -0.171 F 
ENDBRANCH  18  19
ENDBRANCH  15  18
ENDBRANCH   6  13
BRANCH   2  23
HETATM   23  C   UNL     1     -40.046 -44.249  11.163  1.00  0.00     0.169 C 
BRANCH  23  24
HETATM   24  C   UNL     1     -41.178 -43.345  11.705  1.00  0.00     0.078 C 
HETATM   25  C   UNL     1     -40.648 -41.901  11.794  1.00  0.00     0.066 C 
HETATM   26  C   UNL     1     -39.786 -41.690  13.027  1.00  0.00     0.170 C 
HETATM   27  O   UNL     1     -40.548 -41.974  14.196  1.00  0.00    -0.391 OA
HETATM   28  C   UNL     1     -40.938 -43.342  14.267  1.00  0.00     0.170 C 
HETATM   29  C   UNL     1     -41.778 -43.755  13.064  1.00  0.00     0.066 C 
BRANCH  24  30
HETATM   30  O   UNL     1     -42.226 -43.329  10.717  1.00  0.00    -0.388 OA
HETATM   31  H   UNL     1     -43.086 -43.303  11.175  1.00  0.00     0.210 HD
ENDBRANCH  24  30
ENDBRANCH  23  24
ENDBRANCH   2  23
TORSDOF 6
ENDMDL
MODEL 5
REMARK VINA RESULT:      -6.3      1.539      2.006
REMARK  6 active torsions:
REMARK  status: ('A' for Active; 'I' for Inactive)
REMARK    1  A    between atoms: N_2  and  C_17 
REMARK    2  A    between atoms: N_4  and  C_7 
REMARK    3  A    between atoms: C_9  and  C_20 
REMARK    4  A    between atoms: C_14  and  C_20 
REMARK    5  A    between atoms: C_17  and  C_19 
REMARK    6  A    between atoms: C_19  and  O_27 
ROOT
HETATM    1  C   UNL     1     -42.253 -49.210  12.424  1.00  0.00     0.122 A 
HETATM    2  N   UNL     1     -42.046 -47.121  11.820  1.00  0.00    -0.324 N 
HETATM    3  C   UNL     1     -41.529 -48.370  11.597  1.00  0.00     0.140 A 
HETATM    4  N   UNL     1     -43.166 -48.486  13.171  1.00  0.00    -0.346 N 
ATOM      5  HN  UNL     1     -43.809 -48.841  13.879  1.00  0.00     0.167 HD
HETATM    6  C   UNL     1     -41.954 -50.583  12.345  1.00  0.00     0.135 A 
HETATM    7  C   UNL     1     -43.027 -47.242  12.771  1.00  0.00     0.185 A 
HETATM    8  N   UNL     1     -40.550 -48.701  10.742  1.00  0.00    -0.336 N 
ATOM      9  HN  UNL     1     -40.040 -48.038  10.157  1.00  0.00     0.168 HD
HETATM   10  N   UNL     1     -40.970 -50.973  11.490  1.00  0.00    -0.337 N 
ATOM     11  HN  UNL     1     -40.718 -51.957  11.401  1.00  0.00     0.168 HD
HETATM   12  C   UNL     1     -40.335 -50.030  10.761  1.00  0.00     0.183 A 
ENDROOT
BRANCH   6  13
HETATM   13  N   UNL     1     -42.611 -51.540  13.125  1.00  0.00    -0.364 N 
HETATM   14  C   UNL     1     -42.089 -52.625  13.879  1.00  0.00     0.135 C 
HETATM   15  C   UNL     1     -43.568 -52.974  14.214  1.00  0.00    -0.004 C 
HETATM   16  C   UNL     1     -43.893 -52.137  12.946  1.00  0.00     0.135 C 
HETATM   17  C   UNL     1     -44.027 -52.315  15.523  1.00  0.00     0.019 C 
BRANCH  15  18
HETATM   18  C   UNL     1     -43.913 -54.461  14.144  1.00  0.00     0.130 C 
BRANCH  18  19
HETATM   19  C   UNL     1     -45.409 -54.724  14.163  1.00  0.00     0.388 C 
HETATM   20  F   UNL     1     -45.743 -55.941  13.690  1.00  0.00    -0.171 F 
HETATM   21  F   UNL     1     -45.886 -54.643  15.426  1.00  0.00    -0.171 F 
HETATM   22  F   UNL     1     -46.067 -53.804  13.422  1.00  0.00    -0.171 F 
ENDBRANCH  18  19
ENDBRANCH  15  18
ENDBRANCH   6  13
BRANCH   2  23
HETATM   23  C   UNL     1     -41.756 -45.933  11.044  1.00  0.00     0.169 C 
BRANCH  23  24
HETATM   24  C   UNL     1     -40.318 -45.378  11.181  1.00  0.00     0.078 C 
HETATM   25  C   UNL     1     -39.820 -45.664  12.611  1.00  0.00     0.066 C 
HETATM   26  C   UNL     1     -40.381 -44.669  13.614  1.00  0.00     0.170 C 
HETATM   27  O   UNL     1     -39.992 -43.350  13.245  1.00  0.00    -0.391 OA
HETATM   28  C   UNL     1     -40.554 -42.950  11.999  1.00  0.00     0.170 C 
HETATM   29  C   UNL     1     -40.138 -43.881  10.865  1.00  0.00     0.066 C 
BRANCH  24  30
HETATM   30  O   UNL     1     -39.475 -46.146  10.301  1.00  0.00    -0.388 OA
HETATM   31  H   UNL     1     -39.972 -46.926   9.995  1.00  0.00     0.210 HD
ENDBRANCH  24  30
ENDBRANCH  23  24
ENDBRANCH   2  23
TORSDOF 6
ENDMDL
MODEL 6
REMARK VINA RESULT:      -6.2      5.216      8.460
REMARK  6 active torsions:
REMARK  status: ('A' for Active; 'I' for Inactive)
REMARK    1  A    between atoms: N_2  and  C_17 
REMARK    2  A    between atoms: N_4  and  C_7 
REMARK    3  A    between atoms: C_9  and  C_20 
REMARK    4  A    between atoms: C_14  and  C_20 
REMARK    5  A    between atoms: C_17  and  C_19 
REMARK    6  A    between atoms: C_19  and  O_27 
ROOT
HETATM    1  C   UNL     1     -42.016 -49.084  12.592  1.00  0.00     0.122 A 
HETATM    2  N   UNL     1     -43.037 -50.811  13.457  1.00  0.00    -0.324 N 
HETATM    3  C   UNL     1     -42.067 -50.466  12.553  1.00  0.00     0.140 A 
HETATM    4  N   UNL     1     -42.966 -48.589  13.469  1.00  0.00    -0.346 N 
ATOM      5  HN  UNL     1     -43.170 -47.611  13.674  1.00  0.00     0.167 HD
HETATM    6  C   UNL     1     -41.045 -48.467  11.782  1.00  0.00     0.135 A 
HETATM    7  C   UNL     1     -43.546 -49.651  13.982  1.00  0.00     0.185 A 
HETATM    8  N   UNL     1     -41.317 -51.297  11.814  1.00  0.00    -0.336 N 
ATOM      9  HN  UNL     1     -41.400 -52.314  11.817  1.00  0.00     0.168 HD
HETATM   10  N   UNL     1     -40.254 -49.265  11.015  1.00  0.00    -0.337 N 
ATOM     11  HN  UNL     1     -39.537 -48.861  10.411  1.00  0.00     0.168 HD
HETATM   12  C   UNL     1     -40.437 -50.601  11.068  1.00  0.00     0.183 A 
ENDROOT
BRANCH   6  13
HETATM   13  N   UNL     1     -40.886 -47.078  11.728  1.00  0.00    -0.364 N 
HETATM   14  C   UNL     1     -40.207 -46.198  12.613  1.00  0.00     0.135 C 
HETATM   15  C   UNL     1     -40.702 -45.048  11.688  1.00  0.00    -0.004 C 
HETATM   16  C   UNL     1     -41.774 -46.078  11.237  1.00  0.00     0.135 C 
HETATM   17  C   UNL     1     -39.674 -44.710  10.599  1.00  0.00     0.019 C 
BRANCH  15  18
HETATM   18  C   UNL     1     -41.223 -43.811  12.418  1.00  0.00     0.130 C 
BRANCH  18  19
HETATM   19  C   UNL     1     -40.121 -42.830  12.783  1.00  0.00     0.388 C 
HETATM   20  F   UNL     1     -40.334 -42.201  13.956  1.00  0.00    -0.171 F 
HETATM   21  F   UNL     1     -38.934 -43.469  12.882  1.00  0.00    -0.171 F 
HETATM   22  F   UNL     1     -39.991 -41.880  11.829  1.00  0.00    -0.171 F 
ENDBRANCH  18  19
ENDBRANCH  15  18
ENDBRANCH   6  13
BRANCH   2  23
HETATM   23  C   UNL     1     -43.323 -52.152  13.923  1.00  0.00     0.169 C 
BRANCH  23  24
HETATM   24  C   UNL     1     -44.360 -52.944  13.093  1.00  0.00     0.078 C 
HETATM   25  C   UNL     1     -45.602 -52.054  12.889  1.00  0.00     0.066 C 
HETATM   26  C   UNL     1     -46.491 -52.035  14.122  1.00  0.00     0.170 C 
HETATM   27  O   UNL     1     -46.917 -53.359  14.423  1.00  0.00    -0.391 OA
HETATM   28  C   UNL     1     -45.831 -54.206  14.785  1.00  0.00     0.170 C 
HETATM   29  C   UNL     1     -44.794 -54.304  13.672  1.00  0.00     0.066 C 
BRANCH  24  30
HETATM   30  O   UNL     1     -43.795 -53.152  11.784  1.00  0.00    -0.388 OA
HETATM   31  H   UNL     1     -44.250 -52.566  11.151  1.00  0.00     0.210 HD
ENDBRANCH  24  30
ENDBRANCH  23  24
ENDBRANCH   2  23
TORSDOF 6
ENDMDL
MODEL 7
REMARK VINA RESULT:      -6.1      5.022      6.858
REMARK  6 active torsions:
REMARK  status: ('A' for Active; 'I' for Inactive)
REMARK    1  A    between atoms: N_2  and  C_17 
REMARK    2  A    between atoms: N_4  and  C_7 
REMARK    3  A    between atoms: C_9  and  C_20 
REMARK    4  A    between atoms: C_14  and  C_20 
REMARK    5  A    between atoms: C_17  and  C_19 
REMARK    6  A    between atoms: C_19  and  O_27 
ROOT
HETATM    1  C   UNL     1     -39.645 -47.754  12.866  1.00  0.00     0.122 A 
HETATM    2  N   UNL     1     -38.047 -47.577  14.345  1.00  0.00    -0.324 N 
HETATM    3  C   UNL     1     -38.461 -48.336  13.282  1.00  0.00     0.140 A 
HETATM    4  N   UNL     1     -39.975 -46.687  13.685  1.00  0.00    -0.346 N 
ATOM      5  HN  UNL     1     -40.804 -46.097  13.630  1.00  0.00     0.167 HD
HETATM    6  C   UNL     1     -40.259 -48.317  11.732  1.00  0.00     0.135 A 
HETATM    7  C   UNL     1     -38.987 -46.600  14.548  1.00  0.00     0.185 A 
HETATM    8  N   UNL     1     -37.833 -49.395  12.750  1.00  0.00    -0.336 N 
ATOM      9  HN  UNL     1     -36.961 -49.791  13.101  1.00  0.00     0.168 HD
HETATM   10  N   UNL     1     -39.661 -49.392  11.151  1.00  0.00    -0.337 N 
ATOM     11  HN  UNL     1     -40.071 -49.834  10.328  1.00  0.00     0.168 HD
HETATM   12  C   UNL     1     -38.515 -49.863  11.686  1.00  0.00     0.183 A 
ENDROOT
BRANCH   6  13
HETATM   13  N   UNL     1     -41.458 -47.825  11.207  1.00  0.00    -0.364 N 
HETATM   14  C   UNL     1     -42.657 -47.438  11.865  1.00  0.00     0.135 C 
HETATM   15  C   UNL     1     -43.230 -47.165  10.443  1.00  0.00    -0.004 C 
HETATM   16  C   UNL     1     -42.102 -48.122   9.970  1.00  0.00     0.135 C 
HETATM   17  C   UNL     1     -43.020 -45.705  10.016  1.00  0.00     0.019 C 
BRANCH  15  18
HETATM   18  C   UNL     1     -44.661 -47.650  10.219  1.00  0.00     0.130 C 
BRANCH  18  19
HETATM   19  C   UNL     1     -45.156 -47.402   8.804  1.00  0.00     0.388 C 
HETATM   20  F   UNL     1     -44.182 -47.482   7.877  1.00  0.00    -0.171 F 
HETATM   21  F   UNL     1     -46.101 -48.310   8.468  1.00  0.00    -0.171 F 
HETATM   22  F   UNL     1     -45.719 -46.176   8.701  1.00  0.00    -0.171 F 
ENDBRANCH  18  19
ENDBRANCH  15  18
ENDBRANCH   6  13
BRANCH   2  23
HETATM   23  C   UNL     1     -36.757 -47.664  14.997  1.00  0.00     0.169 C 
BRANCH  23  24
HETATM   24  C   UNL     1     -36.623 -48.768  16.074  1.00  0.00     0.078 C 
HETATM   25  C   UNL     1     -37.894 -48.756  16.945  1.00  0.00     0.066 C 
HETATM   26  C   UNL     1     -37.862 -47.639  17.976  1.00  0.00     0.170 C 
HETATM   27  O   UNL     1     -36.727 -47.803  18.819  1.00  0.00    -0.391 OA
HETATM   28  C   UNL     1     -35.501 -47.661  18.108  1.00  0.00     0.170 C 
HETATM   29  C   UNL     1     -35.380 -48.680  16.980  1.00  0.00     0.066 C 
BRANCH  24  30
HETATM   30  O   UNL     1     -36.615 -50.036  15.391  1.00  0.00    -0.388 OA
HETATM   31  H   UNL     1     -37.045 -50.700  15.961  1.00  0.00     0.210 HD
ENDBRANCH  24  30
ENDBRANCH  23  24
ENDBRANCH   2  23
TORSDOF 6
ENDMDL
MODEL 8
REMARK VINA RESULT:      -6.1      3.289      4.772
REMARK  6 active torsions:
REMARK  status: ('A' for Active; 'I' for Inactive)
REMARK    1  A    between atoms: N_2  and  C_17 
REMARK    2  A    between atoms: N_4  and  C_7 
REMARK    3  A    between atoms: C_9  and  C_20 
REMARK    4  A    between atoms: C_14  and  C_20 
REMARK    5  A    between atoms: C_17  and  C_19 
REMARK    6  A    between atoms: C_19  and  O_27 
ROOT
HETATM    1  C   UNL     1     -40.913 -51.428  13.769  1.00  0.00     0.122 A 
HETATM    2  N   UNL     1     -41.411 -49.517  12.838  1.00  0.00    -0.324 N 
HETATM    3  C   UNL     1     -41.730 -50.849  12.817  1.00  0.00     0.140 A 
HETATM    4  N   UNL     1     -40.077 -50.479  14.334  1.00  0.00    -0.346 N 
ATOM      5  HN  UNL     1     -39.355 -50.629  15.039  1.00  0.00     0.167 HD
HETATM    6  C   UNL     1     -41.083 -52.807  13.991  1.00  0.00     0.135 A 
HETATM    7  C   UNL     1     -40.415 -49.343  13.764  1.00  0.00     0.185 A 
HETATM    8  N   UNL     1     -42.656 -51.447  12.052  1.00  0.00    -0.336 N 
ATOM      9  HN  UNL     1     -43.230 -50.973  11.355  1.00  0.00     0.168 HD
HETATM   10  N   UNL     1     -42.012 -53.463  13.244  1.00  0.00    -0.337 N 
ATOM     11  HN  UNL     1     -42.169 -54.463  13.369  1.00  0.00     0.168 HD
HETATM   12  C   UNL     1     -42.722 -52.763  12.334  1.00  0.00     0.183 A 
ENDROOT
BRANCH   6  13
HETATM   13  N   UNL     1     -40.323 -53.516  14.927  1.00  0.00    -0.364 N 
HETATM   14  C   UNL     1     -38.947 -53.876  14.907  1.00  0.00     0.135 C 
HETATM   15  C   UNL     1     -39.222 -54.601  16.257  1.00  0.00    -0.004 C 
HETATM   16  C   UNL     1     -40.704 -54.584  15.791  1.00  0.00     0.135 C 
HETATM   17  C   UNL     1     -38.943 -53.689  17.461  1.00  0.00     0.019 C 
BRANCH  15  18
HETATM   18  C   UNL     1     -38.576 -55.979  16.392  1.00  0.00     0.130 C 
BRANCH  18  19
HETATM   19  C   UNL     1     -38.942 -56.680  17.690  1.00  0.00     0.388 C 
HETATM   20  F   UNL     1     -40.150 -56.321  18.168  1.00  0.00    -0.171 F 
HETATM   21  F   UNL     1     -38.966 -58.020  17.512  1.00  0.00    -0.171 F 
HETATM   22  F   UNL     1     -38.028 -56.416  18.652  1.00  0.00    -0.171 F 
ENDBRANCH  18  19
ENDBRANCH  15  18
ENDBRANCH   6  13
BRANCH   2  23
HETATM   23  C   UNL     1     -42.135 -48.460  12.160  1.00  0.00     0.169 C 
BRANCH  23  24
HETATM   24  C   UNL     1     -41.640 -48.116  10.735  1.00  0.00     0.078 C 
HETATM   25  C   UNL     1     -40.601 -46.983  10.840  1.00  0.00     0.066 C 
HETATM   26  C   UNL     1     -41.261 -45.626  11.021  1.00  0.00     0.170 C 
HETATM   27  O   UNL     1     -42.120 -45.363   9.917  1.00  0.00    -0.391 OA
HETATM   28  C   UNL     1     -43.209 -46.279   9.849  1.00  0.00     0.170 C 
HETATM   29  C   UNL     1     -42.729 -47.720   9.719  1.00  0.00     0.066 C 
BRANCH  24  30
HETATM   30  O   UNL     1     -40.932 -49.267  10.236  1.00  0.00    -0.388 OA
HETATM   31  H   UNL     1     -40.320 -48.977   9.535  1.00  0.00     0.210 HD
ENDBRANCH  24  30
ENDBRANCH  23  24
ENDBRANCH   2  23
TORSDOF 6
ENDMDL
MODEL 9
REMARK VINA RESULT:      -5.9      4.706      7.976
REMARK  6 active torsions:
REMARK  status: ('A' for Active; 'I' for Inactive)
REMARK    1  A    between atoms: N_2  and  C_17 
REMARK    2  A    between atoms: N_4  and  C_7 
REMARK    3  A    between atoms: C_9  and  C_20 
REMARK    4  A    between atoms: C_14  and  C_20 
REMARK    5  A    between atoms: C_17  and  C_19 
REMARK    6  A    between atoms: C_19  and  O_27 
ROOT
HETATM    1  C   UNL     1     -40.896 -50.599  12.230  1.00  0.00     0.122 A 
HETATM    2  N   UNL     1     -40.606 -52.616  13.016  1.00  0.00    -0.324 N 
HETATM    3  C   UNL     1     -39.940 -51.447  12.761  1.00  0.00     0.140 A 
HETATM    4  N   UNL     1     -42.113 -51.249  12.121  1.00  0.00    -0.346 N 
ATOM      5  HN  UNL     1     -42.983 -50.878  11.738  1.00  0.00     0.167 HD
HETATM    6  C   UNL     1     -40.479 -49.290  11.928  1.00  0.00     0.135 A 
HETATM    7  C   UNL     1     -41.907 -52.450  12.617  1.00  0.00     0.185 A 
HETATM    8  N   UNL     1     -38.648 -51.181  13.002  1.00  0.00    -0.336 N 
ATOM      9  HN  UNL     1     -37.979 -51.848  13.389  1.00  0.00     0.168 HD
HETATM   10  N   UNL     1     -39.177 -48.967  12.157  1.00  0.00    -0.337 N 
ATOM     11  HN  UNL     1     -38.830 -48.030  11.951  1.00  0.00     0.168 HD
HETATM   12  C   UNL     1     -38.355 -49.912  12.660  1.00  0.00     0.183 A 
ENDROOT
BRANCH   6  13
HETATM   13  N   UNL     1     -41.344 -48.333  11.388  1.00  0.00    -0.364 N 
HETATM   14  C   UNL     1     -42.355 -47.553  12.013  1.00  0.00     0.135 C 
HETATM   15  C   UNL     1     -42.649 -46.981  10.596  1.00  0.00    -0.004 C 
HETATM   16  C   UNL     1     -41.939 -48.268  10.095  1.00  0.00     0.135 C 
HETATM   17  C   UNL     1     -41.856 -45.694  10.326  1.00  0.00     0.019 C 
BRANCH  15  18
HETATM   18  C   UNL     1     -44.131 -46.851  10.247  1.00  0.00     0.130 C 
BRANCH  18  19
HETATM   19  C   UNL     1     -44.376 -46.676   8.757  1.00  0.00     0.388 C 
HETATM   20  F   UNL     1     -44.599 -47.839   8.113  1.00  0.00    -0.171 F 
HETATM   21  F   UNL     1     -45.455 -45.889   8.546  1.00  0.00    -0.171 F 
HETATM   22  F   UNL     1     -43.317 -46.078   8.165  1.00  0.00    -0.171 F 
ENDBRANCH  18  19
ENDBRANCH  15  18
ENDBRANCH   6  13
BRANCH   2  23
HETATM   23  C   UNL     1     -40.083 -53.744  13.761  1.00  0.00     0.169 C 
BRANCH  23  24
HETATM   24  C   UNL     1     -40.126 -53.607  15.302  1.00  0.00     0.078 C 
HETATM   25  C   UNL     1     -38.815 -54.178  15.878  1.00  0.00     0.066 C 
HETATM   26  C   UNL     1     -38.838 -55.697  15.936  1.00  0.00     0.170 C 
HETATM   27  O   UNL     1     -39.925 -56.126  16.749  1.00  0.00    -0.391 OA
HETATM   28  C   UNL     1     -41.188 -55.776  16.191  1.00  0.00     0.170 C 
HETATM   29  C   UNL     1     -41.326 -54.268  16.006  1.00  0.00     0.066 C 
BRANCH  24  30
HETATM   30  O   UNL     1     -40.121 -52.200  15.609  1.00  0.00    -0.388 OA
HETATM   31  H   UNL     1     -39.706 -51.720  14.869  1.00  0.00     0.210 HD
ENDBRANCH  24  30
ENDBRANCH  23  24
ENDBRANCH   2  23
TORSDOF 6
ENDMDL
