MODEL 1
REMARK VINA RESULT:      -5.7      0.000      0.000
REMARK  3 active torsions:
REMARK  status: ('A' for Active; 'I' for Inactive)
REMARK       I    between atoms: C_2  and  N_3 
REMARK       I    between atoms: C_2  and  N_9 
REMARK    1  A    between atoms: N_3  and  C_4 
REMARK    2  A    between atoms: C_4  and  C_5 
REMARK    3  A    between atoms: N_9  and  C_10 
ROOT
HETATM    1  O   UNL     1     -41.339 -47.624  11.709  1.00  0.00    -0.247 OA
HETATM    2  C   UNL     1     -41.423 -48.369  10.741  1.00  0.00     0.320 C 
HETATM    3  N   UNL     1     -42.227 -48.079   9.659  1.00  0.00    -0.342 N 
HETATM    4  N   UNL     1     -40.774 -49.573  10.589  1.00  0.00    -0.308 N 
HETATM    5  H   UNL     1     -42.028 -48.546   8.786  1.00  0.00     0.164 HD
HETATM    6  H   UNL     1     -41.177 -50.218   9.924  1.00  0.00     0.170 HD
ENDROOT
BRANCH   3   7
HETATM    7  C   UNL     1     -42.929 -46.809   9.589  1.00  0.00     0.129 C 
BRANCH   7   8
HETATM    8  C   UNL     1     -44.241 -47.062   8.873  1.00  0.00     0.003 C 
HETATM    9  C   UNL     1     -45.247 -45.882   8.926  1.00  0.00     0.006 C 
HETATM   10  C   UNL     1     -46.370 -46.930   9.039  1.00  0.00     0.001 C 
HETATM   11  C   UNL     1     -45.317 -47.893   9.625  1.00  0.00     0.006 C 
ENDBRANCH   7   8
ENDBRANCH   3   7
BRANCH   4  12
HETATM   12  C   UNL     1     -39.787 -50.082  11.468  1.00  0.00     0.051 A 
HETATM   13  C   UNL     1     -38.454 -49.676  11.443  1.00  0.00     0.032 A 
HETATM   14  C   UNL     1     -37.543 -50.206  12.354  1.00  0.00     0.019 A 
HETATM   15  C   UNL     1     -37.993 -51.146  13.262  1.00  0.00     0.088 A 
HETATM   16  N   UNL     1     -39.267 -51.591  13.307  1.00  0.00    -0.373 N 
HETATM   17  C   UNL     1     -40.130 -51.052  12.409  1.00  0.00     0.117 A 
ATOM     18  HN  UNL     1     -39.566 -52.296  13.981  1.00  0.00     0.164 HD
ENDBRANCH   4  12
TORSDOF 3
ENDMDL
MODEL 2
REMARK VINA RESULT:      -5.4      3.826      6.612
REMARK  3 active torsions:
REMARK  status: ('A' for Active; 'I' for Inactive)
REMARK       I    between atoms: C_2  and  N_3 
REMARK       I    between atoms: C_2  and  N_9 
REMARK    1  A    between atoms: N_3  and  C_4 
REMARK    2  A    between atoms: C_4  and  C_5 
REMARK    3  A    between atoms: N_9  and  C_10 
ROOT
HETATM    1  O   UNL     1     -42.550 -50.638  12.761  1.00  0.00    -0.247 OA
HETATM    2  C   UNL     1     -41.935 -51.484  12.126  1.00  0.00     0.320 C 
HETATM    3  N   UNL     1     -40.827 -51.171  11.366  1.00  0.00    -0.342 N 
HETATM    4  N   UNL     1     -42.243 -52.824  12.053  1.00  0.00    -0.308 N 
HETATM    5  H   UNL     1     -40.193 -51.920  11.126  1.00  0.00     0.164 HD
HETATM    6  H   UNL     1     -41.873 -53.327  11.259  1.00  0.00     0.170 HD
ENDROOT
BRANCH   3   7
HETATM    7  C   UNL     1     -40.288 -49.823  11.381  1.00  0.00     0.129 C 
BRANCH   7   8
HETATM    8  C   UNL     1     -39.030 -49.854  12.226  1.00  0.00     0.003 C 
HETATM    9  C   UNL     1     -37.712 -50.018  11.422  1.00  0.00     0.006 C 
HETATM   10  C   UNL     1     -37.192 -50.892  12.579  1.00  0.00     0.001 C 
HETATM   11  C   UNL     1     -38.666 -51.196  12.919  1.00  0.00     0.006 C 
ENDBRANCH   7   8
ENDBRANCH   3   7
BRANCH   4  12
HETATM   12  C   UNL     1     -43.244 -53.471  12.818  1.00  0.00     0.051 A 
HETATM   13  C   UNL     1     -42.965 -54.287  13.912  1.00  0.00     0.032 A 
HETATM   14  C   UNL     1     -44.004 -54.875  14.632  1.00  0.00     0.019 A 
HETATM   15  C   UNL     1     -45.304 -54.636  14.223  1.00  0.00     0.088 A 
HETATM   16  N   UNL     1     -45.622 -53.876  13.154  1.00  0.00    -0.373 N 
HETATM   17  C   UNL     1     -44.587 -53.315  12.477  1.00  0.00     0.117 A 
ATOM     18  HN  UNL     1     -46.590 -53.730  12.869  1.00  0.00     0.164 HD
ENDBRANCH   4  12
TORSDOF 3
ENDMDL
MODEL 3
REMARK VINA RESULT:      -5.3      2.418      6.626
REMARK  3 active torsions:
REMARK  status: ('A' for Active; 'I' for Inactive)
REMARK       I    between atoms: C_2  and  N_3 
REMARK       I    between atoms: C_2  and  N_9 
REMARK    1  A    between atoms: N_3  and  C_4 
REMARK    2  A    between atoms: C_4  and  C_5 
REMARK    3  A    between atoms: N_9  and  C_10 
ROOT
HETATM    1  O   UNL     1     -41.889 -48.996  11.230  1.00  0.00    -0.247 OA
HETATM    2  C   UNL     1     -41.477 -47.975  10.696  1.00  0.00     0.320 C 
HETATM    3  N   UNL     1     -40.227 -47.459  10.966  1.00  0.00    -0.342 N 
HETATM    4  N   UNL     1     -42.167 -47.199   9.793  1.00  0.00    -0.308 N 
HETATM    5  H   UNL     1     -39.825 -46.821  10.293  1.00  0.00     0.164 HD
HETATM    6  H   UNL     1     -41.856 -46.243   9.693  1.00  0.00     0.170 HD
ENDROOT
BRANCH   3   7
HETATM    7  C   UNL     1     -39.308 -48.180  11.828  1.00  0.00     0.129 C 
BRANCH   7   8
HETATM    8  C   UNL     1     -39.465 -47.612  13.224  1.00  0.00     0.003 C 
HETATM    9  C   UNL     1     -39.587 -46.065  13.287  1.00  0.00     0.006 C 
HETATM   10  C   UNL     1     -38.766 -46.119  14.588  1.00  0.00     0.001 C 
HETATM   11  C   UNL     1     -38.179 -47.453  14.081  1.00  0.00     0.006 C 
ENDBRANCH   7   8
ENDBRANCH   3   7
BRANCH   4  12
HETATM   12  C   UNL     1     -43.420 -47.535   9.223  1.00  0.00     0.051 A 
HETATM   13  C   UNL     1     -44.625 -47.456   9.918  1.00  0.00     0.032 A 
HETATM   14  C   UNL     1     -45.822 -47.782   9.285  1.00  0.00     0.019 A 
HETATM   15  C   UNL     1     -45.776 -48.196   7.965  1.00  0.00     0.088 A 
HETATM   16  N   UNL     1     -44.632 -48.314   7.260  1.00  0.00    -0.373 N 
HETATM   17  C   UNL     1     -43.484 -47.985   7.905  1.00  0.00     0.117 A 
ATOM     18  HN  UNL     1     -44.630 -48.635   6.292  1.00  0.00     0.164 HD
ENDBRANCH   4  12
TORSDOF 3
ENDMDL
MODEL 4
REMARK VINA RESULT:      -5.2      3.837      4.736
REMARK  3 active torsions:
REMARK  status: ('A' for Active; 'I' for Inactive)
REMARK       I    between atoms: C_2  and  N_3 
REMARK       I    between atoms: C_2  and  N_9 
REMARK    1  A    between atoms: N_3  and  C_4 
REMARK    2  A    between atoms: C_4  and  C_5 
REMARK    3  A    between atoms: N_9  and  C_10 
ROOT
HETATM    1  O   UNL     1     -42.013 -52.016  13.628  1.00  0.00    -0.247 OA
HETATM    2  C   UNL     1     -42.078 -52.119  12.410  1.00  0.00     0.320 C 
HETATM    3  N   UNL     1     -43.122 -52.765  11.782  1.00  0.00    -0.342 N 
HETATM    4  N   UNL     1     -41.152 -51.647  11.508  1.00  0.00    -0.308 N 
HETATM    5  H   UNL     1     -43.287 -52.557  10.807  1.00  0.00     0.164 HD
HETATM    6  H   UNL     1     -41.155 -52.078  10.594  1.00  0.00     0.170 HD
ENDROOT
BRANCH   3   7
HETATM    7  C   UNL     1     -44.248 -53.258  12.555  1.00  0.00     0.129 C 
BRANCH   7   8
HETATM    8  C   UNL     1     -45.035 -52.049  13.020  1.00  0.00     0.003 C 
HETATM    9  C   UNL     1     -45.486 -52.100  14.505  1.00  0.00     0.006 C 
HETATM   10  C   UNL     1     -46.790 -51.409  14.064  1.00  0.00     0.001 C 
HETATM   11  C   UNL     1     -46.546 -51.997  12.659  1.00  0.00     0.006 C 
ENDBRANCH   7   8
ENDBRANCH   3   7
BRANCH   4  12
HETATM   12  C   UNL     1     -40.038 -50.835  11.835  1.00  0.00     0.051 A 
HETATM   13  C   UNL     1     -38.997 -51.256  12.660  1.00  0.00     0.032 A 
HETATM   14  C   UNL     1     -37.923 -50.409  12.921  1.00  0.00     0.019 A 
HETATM   15  C   UNL     1     -37.928 -49.147  12.354  1.00  0.00     0.088 A 
HETATM   16  N   UNL     1     -38.926 -48.685  11.572  1.00  0.00    -0.373 N 
HETATM   17  C   UNL     1     -39.956 -49.537  11.334  1.00  0.00     0.117 A 
ATOM     18  HN  UNL     1     -38.908 -47.744  11.179  1.00  0.00     0.164 HD
ENDBRANCH   4  12
TORSDOF 3
ENDMDL
MODEL 5
REMARK VINA RESULT:      -5.2      4.271      6.141
REMARK  3 active torsions:
REMARK  status: ('A' for Active; 'I' for Inactive)
REMARK       I    between atoms: C_2  and  N_3 
REMARK       I    between atoms: C_2  and  N_9 
REMARK    1  A    between atoms: N_3  and  C_4 
REMARK    2  A    between atoms: C_4  and  C_5 
REMARK    3  A    between atoms: N_9  and  C_10 
ROOT
HETATM    1  O   UNL     1     -41.818 -51.678  13.639  1.00  0.00    -0.247 OA
HETATM    2  C   UNL     1     -41.965 -51.972  12.460  1.00  0.00     0.320 C 
HETATM    3  N   UNL     1     -41.074 -51.570  11.487  1.00  0.00    -0.342 N 
HETATM    4  N   UNL     1     -43.005 -52.701  11.931  1.00  0.00    -0.308 N 
HETATM    5  H   UNL     1     -41.066 -52.081  10.615  1.00  0.00     0.164 HD
HETATM    6  H   UNL     1     -43.177 -52.587  10.942  1.00  0.00     0.170 HD
ENDROOT
BRANCH   3   7
HETATM    7  C   UNL     1     -39.860 -50.864  11.854  1.00  0.00     0.129 C 
BRANCH   7   8
HETATM    8  C   UNL     1     -39.896 -49.519  11.156  1.00  0.00     0.003 C 
HETATM    9  C   UNL     1     -39.422 -48.323  12.025  1.00  0.00     0.006 C 
HETATM   10  C   UNL     1     -40.509 -47.477  11.336  1.00  0.00     0.001 C 
HETATM   11  C   UNL     1     -41.267 -48.794  11.070  1.00  0.00     0.006 C 
ENDBRANCH   7   8
ENDBRANCH   3   7
BRANCH   4  12
HETATM   12  C   UNL     1     -44.007 -53.357  12.688  1.00  0.00     0.051 A 
HETATM   13  C   UNL     1     -43.764 -54.486  13.467  1.00  0.00     0.032 A 
HETATM   14  C   UNL     1     -44.795 -55.066  14.203  1.00  0.00     0.019 A 
HETATM   15  C   UNL     1     -46.055 -54.500  14.127  1.00  0.00     0.088 A 
HETATM   16  N   UNL     1     -46.345 -53.423  13.366  1.00  0.00    -0.373 N 
HETATM   17  C   UNL     1     -45.317 -52.881  12.664  1.00  0.00     0.117 A 
ATOM     18  HN  UNL     1     -47.288 -53.037  13.320  1.00  0.00     0.164 HD
ENDBRANCH   4  12
TORSDOF 3
ENDMDL
MODEL 6
REMARK VINA RESULT:      -5.1      2.933      6.204
REMARK  3 active torsions:
REMARK  status: ('A' for Active; 'I' for Inactive)
REMARK       I    between atoms: C_2  and  N_3 
REMARK       I    between atoms: C_2  and  N_9 
REMARK    1  A    between atoms: N_3  and  C_4 
REMARK    2  A    between atoms: C_4  and  C_5 
REMARK    3  A    between atoms: N_9  and  C_10 
ROOT
HETATM    1  O   UNL     1     -42.625 -50.408  13.056  1.00  0.00    -0.247 OA
HETATM    2  C   UNL     1     -42.062 -50.956  12.118  1.00  0.00     0.320 C 
HETATM    3  N   UNL     1     -42.207 -52.303  11.859  1.00  0.00    -0.342 N 
HETATM    4  N   UNL     1     -41.213 -50.352  11.218  1.00  0.00    -0.308 N 
HETATM    5  H   UNL     1     -41.986 -52.631  10.930  1.00  0.00     0.164 HD
HETATM    6  H   UNL     1     -40.578 -50.960  10.721  1.00  0.00     0.170 HD
ENDROOT
BRANCH   3   7
HETATM    7  C   UNL     1     -43.132 -53.102  12.644  1.00  0.00     0.129 C 
BRANCH   7   8
HETATM    8  C   UNL     1     -42.303 -54.082  13.450  1.00  0.00     0.003 C 
HETATM    9  C   UNL     1     -41.865 -53.567  14.847  1.00  0.00     0.006 C 
HETATM   10  C   UNL     1     -40.534 -54.311  14.631  1.00  0.00     0.001 C 
HETATM   11  C   UNL     1     -40.790 -54.185  13.115  1.00  0.00     0.006 C 
ENDBRANCH   7   8
ENDBRANCH   3   7
BRANCH   4  12
HETATM   12  C   UNL     1     -40.964 -48.959  11.145  1.00  0.00     0.051 A 
HETATM   13  C   UNL     1     -39.954 -48.321  11.861  1.00  0.00     0.032 A 
HETATM   14  C   UNL     1     -39.754 -46.949  11.722  1.00  0.00     0.019 A 
HETATM   15  C   UNL     1     -40.589 -46.247  10.872  1.00  0.00     0.088 A 
HETATM   16  N   UNL     1     -41.597 -46.816  10.178  1.00  0.00    -0.373 N 
HETATM   17  C   UNL     1     -41.762 -48.154  10.333  1.00  0.00     0.117 A 
ATOM     18  HN  UNL     1     -42.205 -46.268   9.569  1.00  0.00     0.164 HD
ENDBRANCH   4  12
TORSDOF 3
ENDMDL
MODEL 7
REMARK VINA RESULT:      -5.0      3.543      6.197
REMARK  3 active torsions:
REMARK  status: ('A' for Active; 'I' for Inactive)
REMARK       I    between atoms: C_2  and  N_3 
REMARK       I    between atoms: C_2  and  N_9 
REMARK    1  A    between atoms: N_3  and  C_4 
REMARK    2  A    between atoms: C_4  and  C_5 
REMARK    3  A    between atoms: N_9  and  C_10 
ROOT
HETATM    1  O   UNL     1     -41.094 -50.382  13.084  1.00  0.00    -0.247 OA
HETATM    2  C   UNL     1     -42.177 -50.532  12.533  1.00  0.00     0.320 C 
HETATM    3  N   UNL     1     -42.898 -51.702  12.639  1.00  0.00    -0.342 N 
HETATM    4  N   UNL     1     -42.815 -49.607  11.738  1.00  0.00    -0.308 N 
HETATM    5  H   UNL     1     -43.888 -51.666  12.438  1.00  0.00     0.164 HD
HETATM    6  H   UNL     1     -43.509 -49.968  11.099  1.00  0.00     0.170 HD
ENDROOT
BRANCH   3   7
HETATM    7  C   UNL     1     -42.435 -52.771  13.506  1.00  0.00     0.129 C 
BRANCH   7   8
HETATM    8  C   UNL     1     -43.303 -53.982  13.226  1.00  0.00     0.003 C 
HETATM    9  C   UNL     1     -44.789 -53.658  12.916  1.00  0.00     0.006 C 
HETATM   10  C   UNL     1     -45.160 -54.939  13.686  1.00  0.00     0.001 C 
HETATM   11  C   UNL     1     -43.829 -54.783  14.449  1.00  0.00     0.006 C 
ENDBRANCH   7   8
ENDBRANCH   3   7
BRANCH   4  12
HETATM   12  C   UNL     1     -42.389 -48.271  11.542  1.00  0.00     0.051 A 
HETATM   13  C   UNL     1     -42.861 -47.196  12.293  1.00  0.00     0.032 A 
HETATM   14  C   UNL     1     -42.380 -45.910  12.058  1.00  0.00     0.019 A 
HETATM   15  C   UNL     1     -41.440 -45.733  11.058  1.00  0.00     0.088 A 
HETATM   16  N   UNL     1     -40.973 -46.738  10.287  1.00  0.00    -0.373 N 
HETATM   17  C   UNL     1     -41.459 -47.978  10.545  1.00  0.00     0.117 A 
ATOM     18  HN  UNL     1     -40.289 -46.573   9.548  1.00  0.00     0.164 HD
ENDBRANCH   4  12
TORSDOF 3
ENDMDL
MODEL 8
REMARK VINA RESULT:      -5.0      4.118      5.754
REMARK  3 active torsions:
REMARK  status: ('A' for Active; 'I' for Inactive)
REMARK       I    between atoms: C_2  and  N_3 
REMARK       I    between atoms: C_2  and  N_9 
REMARK    1  A    between atoms: N_3  and  C_4 
REMARK    2  A    between atoms: C_4  and  C_5 
REMARK    3  A    between atoms: N_9  and  C_10 
ROOT
HETATM    1  O   UNL     1     -42.465 -49.312  13.743  1.00  0.00    -0.247 OA
HETATM    2  C   UNL     1     -43.049 -49.710  12.743  1.00  0.00     0.320 C 
HETATM    3  N   UNL     1     -43.872 -50.816  12.766  1.00  0.00    -0.342 N 
HETATM    4  N   UNL     1     -42.969 -49.158  11.485  1.00  0.00    -0.308 N 
HETATM    5  H   UNL     1     -44.551 -50.914  12.024  1.00  0.00     0.164 HD
HETATM    6  H   UNL     1     -43.220 -49.759  10.714  1.00  0.00     0.170 HD
ENDROOT
BRANCH   3   7
HETATM    7  C   UNL     1     -44.157 -51.490  14.020  1.00  0.00     0.129 C 
BRANCH   7   8
HETATM    8  C   UNL     1     -45.599 -51.184  14.375  1.00  0.00     0.003 C 
HETATM    9  C   UNL     1     -45.882 -51.063  15.896  1.00  0.00     0.006 C 
HETATM   10  C   UNL     1     -47.240 -51.737  15.631  1.00  0.00     0.001 C 
HETATM   11  C   UNL     1     -46.603 -52.369  14.376  1.00  0.00     0.006 C 
ENDBRANCH   7   8
ENDBRANCH   3   7
BRANCH   4  12
HETATM   12  C   UNL     1     -42.307 -47.946  11.170  1.00  0.00     0.051 A 
HETATM   13  C   UNL     1     -42.964 -46.725  11.032  1.00  0.00     0.032 A 
HETATM   14  C   UNL     1     -42.244 -45.569  10.741  1.00  0.00     0.019 A 
HETATM   15  C   UNL     1     -40.873 -45.672  10.581  1.00  0.00     0.088 A 
HETATM   16  N   UNL     1     -40.196 -46.835  10.678  1.00  0.00    -0.373 N 
HETATM   17  C   UNL     1     -40.927 -47.942  10.966  1.00  0.00     0.117 A 
ATOM     18  HN  UNL     1     -39.186 -46.881  10.541  1.00  0.00     0.164 HD
ENDBRANCH   4  12
TORSDOF 3
ENDMDL
MODEL 9
REMARK VINA RESULT:      -5.0      4.601      7.010
REMARK  3 active torsions:
REMARK  status: ('A' for Active; 'I' for Inactive)
REMARK       I    between atoms: C_2  and  N_3 
REMARK       I    between atoms: C_2  and  N_9 
REMARK    1  A    between atoms: N_3  and  C_4 
REMARK    2  A    between atoms: C_4  and  C_5 
REMARK    3  A    between atoms: N_9  and  C_10 
ROOT
HETATM    1  O   UNL     1     -42.211 -52.058  13.985  1.00  0.00    -0.247 OA
HETATM    2  C   UNL     1     -42.632 -51.763  12.875  1.00  0.00     0.320 C 
HETATM    3  N   UNL     1     -41.790 -51.418  11.838  1.00  0.00    -0.342 N 
HETATM    4  N   UNL     1     -43.955 -51.709  12.498  1.00  0.00    -0.308 N 
HETATM    5  H   UNL     1     -42.148 -51.487  10.896  1.00  0.00     0.164 HD
HETATM    6  H   UNL     1     -44.168 -51.147  11.687  1.00  0.00     0.170 HD
ENDROOT
BRANCH   3   7
HETATM    7  C   UNL     1     -40.350 -51.497  12.009  1.00  0.00     0.129 C 
BRANCH   7   8
HETATM    8  C   UNL     1     -39.835 -50.077  12.137  1.00  0.00     0.003 C 
HETATM    9  C   UNL     1     -38.352 -49.885  11.723  1.00  0.00     0.006 C 
HETATM   10  C   UNL     1     -38.233 -48.864  12.870  1.00  0.00     0.001 C 
HETATM   11  C   UNL     1     -39.407 -49.597  13.551  1.00  0.00     0.006 C 
ENDBRANCH   7   8
ENDBRANCH   3   7
BRANCH   4  12
HETATM   12  C   UNL     1     -45.045 -52.129  13.299  1.00  0.00     0.051 A 
HETATM   13  C   UNL     1     -45.750 -51.274  14.144  1.00  0.00     0.032 A 
HETATM   14  C   UNL     1     -46.827 -51.754  14.887  1.00  0.00     0.019 A 
HETATM   15  C   UNL     1     -47.161 -53.091  14.771  1.00  0.00     0.088 A 
HETATM   16  N   UNL     1     -46.492 -53.962  13.987  1.00  0.00    -0.373 N 
HETATM   17  C   UNL     1     -45.451 -53.462  13.274  1.00  0.00     0.117 A 
ATOM     18  HN  UNL     1     -46.755 -54.946  13.934  1.00  0.00     0.164 HD
ENDBRANCH   4  12
TORSDOF 3
ENDMDL
