MODEL 1
REMARK VINA RESULT:      -6.2      0.000      0.000
REMARK  7 active torsions:
REMARK  status: ('A' for Active; 'I' for Inactive)
REMARK    1  A    between atoms: C_2  and  C_3 
REMARK    2  A    between atoms: C_3  and  N_4 
REMARK    3  A    between atoms: N_4  and  C_6 
REMARK    4  A    between atoms: C_6  and  C_7 
REMARK    5  A    between atoms: C_7  and  O_8 
REMARK    6  A    between atoms: C_7  and  C_9 
REMARK    7  A    between atoms: C_9  and  N_10 
ROOT
HETATM    1  C   UNL     1     -45.001 -47.708   8.868  1.00  0.00     0.027 C 
HETATM    2  C   UNL     1     -44.163 -46.955   9.908  1.00  0.00     0.117 C 
HETATM    3  C   UNL     1     -43.986 -45.565   9.463  1.00  0.00     0.065 C 
HETATM    4  N   UNL     1     -43.897 -44.461   9.129  1.00  0.00    -0.197 NA
ENDROOT
BRANCH   2   5
HETATM    5  C   UNL     1     -42.802 -47.664  10.085  1.00  0.00     0.290 C 
BRANCH   5   6
HETATM    6  N   UNL     1     -41.912 -47.148  11.148  1.00  0.00     0.088 N 
HETATM    7  C   UNL     1     -42.640 -46.875  12.387  1.00  0.00     0.310 C 
BRANCH   6   8
HETATM    8  C   UNL     1     -40.752 -48.049  11.382  1.00  0.00     0.305 C 
BRANCH   8   9
HETATM    9  C   UNL     1     -41.152 -49.554  11.381  1.00  0.00     0.164 C 
BRANCH   9  10
HETATM   10  O   UNL     1     -40.479 -50.233  10.312  1.00  0.00    -0.392 OA
HETATM   11  H   UNL     1     -40.345 -51.162  10.562  1.00  0.00     0.210 HD
ENDBRANCH   9  10
BRANCH   9  12
HETATM   12  C   UNL     1     -40.849 -50.278  12.697  1.00  0.00     0.163 C 
BRANCH  12  13
HETATM   13  N   UNL     1     -41.452 -51.606  12.704  1.00  0.00    -0.339 N 
HETATM   14  C   UNL     1     -40.867 -52.712  12.138  1.00  0.00     0.184 A 
HETATM   15  N   UNL     1     -41.610 -53.784  12.277  1.00  0.00    -0.350 N 
HETATM   16  C   UNL     1     -42.744 -53.348  12.909  1.00  0.00     0.060 A 
ATOM     17  HN  UNL     1     -41.391 -54.734  11.979  1.00  0.00     0.166 HD
HETATM   18  C   UNL     1     -43.886 -54.077  13.272  1.00  0.00     0.039 A 
HETATM   19  C   UNL     1     -42.683 -51.983  13.186  1.00  0.00     0.062 A 
HETATM   20  C   UNL     1     -44.960 -53.430  13.910  1.00  0.00    -0.054 A 
HETATM   21  C   UNL     1     -46.155 -54.261  14.298  1.00  0.00     0.049 C 
HETATM   22  C   UNL     1     -44.891 -52.043  14.166  1.00  0.00    -0.054 A 
HETATM   23  C   UNL     1     -46.024 -51.287  14.808  1.00  0.00     0.049 C 
HETATM   24  C   UNL     1     -43.741 -51.301  13.804  1.00  0.00     0.039 A 
ENDBRANCH  12  13
ENDBRANCH   9  12
ENDBRANCH   8   9
ENDBRANCH   6   8
ENDBRANCH   5   6
ENDBRANCH   2   5
TORSDOF 7
ENDMDL
MODEL 2
REMARK VINA RESULT:      -6.0      3.619      5.505
REMARK  7 active torsions:
REMARK  status: ('A' for Active; 'I' for Inactive)
REMARK    1  A    between atoms: C_2  and  C_3 
REMARK    2  A    between atoms: C_3  and  N_4 
REMARK    3  A    between atoms: N_4  and  C_6 
REMARK    4  A    between atoms: C_6  and  C_7 
REMARK    5  A    between atoms: C_7  and  O_8 
REMARK    6  A    between atoms: C_7  and  C_9 
REMARK    7  A    between atoms: C_9  and  N_10 
ROOT
HETATM    1  C   UNL     1     -38.193 -47.473  16.835  1.00  0.00     0.027 C 
HETATM    2  C   UNL     1     -37.337 -48.277  15.850  1.00  0.00     0.117 C 
HETATM    3  C   UNL     1     -35.922 -48.143  16.226  1.00  0.00     0.065 C 
HETATM    4  N   UNL     1     -34.816 -48.072  16.561  1.00  0.00    -0.197 NA
ENDROOT
BRANCH   2   5
HETATM    5  C   UNL     1     -37.586 -47.767  14.414  1.00  0.00     0.290 C 
BRANCH   5   6
HETATM    6  N   UNL     1     -38.383 -48.638  13.522  1.00  0.00     0.088 N 
HETATM    7  C   UNL     1     -39.399 -47.884  12.786  1.00  0.00     0.310 C 
BRANCH   6   8
HETATM    8  C   UNL     1     -37.519 -49.429  12.607  1.00  0.00     0.305 C 
BRANCH   8   9
HETATM    9  C   UNL     1     -38.050 -50.876  12.383  1.00  0.00     0.164 C 
BRANCH   9  10
HETATM   10  O   UNL     1     -36.946 -51.777  12.226  1.00  0.00    -0.392 OA
HETATM   11  H   UNL     1     -36.115 -51.276  12.282  1.00  0.00     0.210 HD
ENDBRANCH   9  10
BRANCH   9  12
HETATM   12  C   UNL     1     -38.951 -51.389  13.512  1.00  0.00     0.163 C 
BRANCH  12  13
HETATM   13  N   UNL     1     -40.278 -51.716  13.002  1.00  0.00    -0.339 N 
HETATM   14  C   UNL     1     -40.874 -51.063  11.952  1.00  0.00     0.184 A 
HETATM   15  N   UNL     1     -42.065 -51.544  11.688  1.00  0.00    -0.350 N 
HETATM   16  C   UNL     1     -42.273 -52.511  12.636  1.00  0.00     0.060 A 
ATOM     17  HN  UNL     1     -42.698 -51.260  10.941  1.00  0.00     0.166 HD
HETATM   18  C   UNL     1     -43.401 -53.319  12.837  1.00  0.00     0.039 A 
HETATM   19  C   UNL     1     -41.173 -52.641  13.483  1.00  0.00     0.062 A 
HETATM   20  C   UNL     1     -43.419 -54.254  13.889  1.00  0.00    -0.054 A 
HETATM   21  C   UNL     1     -44.645 -55.112  14.050  1.00  0.00     0.049 C 
HETATM   22  C   UNL     1     -42.305 -54.360  14.750  1.00  0.00    -0.054 A 
HETATM   23  C   UNL     1     -42.280 -55.311  15.919  1.00  0.00     0.049 C 
HETATM   24  C   UNL     1     -41.162 -53.548  14.553  1.00  0.00     0.039 A 
ENDBRANCH  12  13
ENDBRANCH   9  12
ENDBRANCH   8   9
ENDBRANCH   6   8
ENDBRANCH   5   6
ENDBRANCH   2   5
TORSDOF 7
ENDMDL
MODEL 3
REMARK VINA RESULT:      -6.0      3.169      5.788
REMARK  7 active torsions:
REMARK  status: ('A' for Active; 'I' for Inactive)
REMARK    1  A    between atoms: C_2  and  C_3 
REMARK    2  A    between atoms: C_3  and  N_4 
REMARK    3  A    between atoms: N_4  and  C_6 
REMARK    4  A    between atoms: C_6  and  C_7 
REMARK    5  A    between atoms: C_7  and  O_8 
REMARK    6  A    between atoms: C_7  and  C_9 
REMARK    7  A    between atoms: C_9  and  N_10 
ROOT
HETATM    1  C   UNL     1     -42.597 -53.718  16.361  1.00  0.00     0.027 C 
HETATM    2  C   UNL     1     -42.859 -53.730  14.851  1.00  0.00     0.117 C 
HETATM    3  C   UNL     1     -43.968 -54.652  14.566  1.00  0.00     0.065 C 
HETATM    4  N   UNL     1     -44.876 -55.341  14.359  1.00  0.00    -0.197 NA
ENDROOT
BRANCH   2   5
HETATM    5  C   UNL     1     -41.574 -54.154  14.107  1.00  0.00     0.290 C 
BRANCH   5   6
HETATM    6  N   UNL     1     -40.556 -53.104  13.879  1.00  0.00     0.088 N 
HETATM    7  C   UNL     1     -39.194 -53.626  14.002  1.00  0.00     0.310 C 
BRANCH   6   8
HETATM    8  C   UNL     1     -40.760 -52.411  12.579  1.00  0.00     0.305 C 
BRANCH   8   9
HETATM    9  C   UNL     1     -40.224 -50.950  12.589  1.00  0.00     0.164 C 
BRANCH   9  10
HETATM   10  O   UNL     1     -39.371 -50.740  11.455  1.00  0.00    -0.392 OA
HETATM   11  H   UNL     1     -39.057 -49.821  11.459  1.00  0.00     0.210 HD
ENDBRANCH   9  10
BRANCH   9  12
HETATM   12  C   UNL     1     -41.324 -49.884  12.584  1.00  0.00     0.163 C 
BRANCH  12  13
HETATM   13  N   UNL     1     -42.101 -49.941  13.818  1.00  0.00    -0.339 N 
HETATM   14  C   UNL     1     -41.606 -49.586  15.048  1.00  0.00     0.184 A 
HETATM   15  N   UNL     1     -42.501 -49.728  15.995  1.00  0.00    -0.350 N 
HETATM   16  C   UNL     1     -43.602 -50.246  15.367  1.00  0.00     0.060 A 
ATOM     17  HN  UNL     1     -42.399 -49.503  16.985  1.00  0.00     0.166 HD
HETATM   18  C   UNL     1     -44.836 -50.621  15.917  1.00  0.00     0.039 A 
HETATM   19  C   UNL     1     -43.384 -50.400  13.998  1.00  0.00     0.062 A 
HETATM   20  C   UNL     1     -45.844 -51.151  15.090  1.00  0.00    -0.054 A 
HETATM   21  C   UNL     1     -47.158 -51.519  15.726  1.00  0.00     0.049 C 
HETATM   22  C   UNL     1     -45.601 -51.318  13.710  1.00  0.00    -0.054 A 
HETATM   23  C   UNL     1     -46.624 -51.918  12.780  1.00  0.00     0.049 C 
HETATM   24  C   UNL     1     -44.358 -50.940  13.146  1.00  0.00     0.039 A 
ENDBRANCH  12  13
ENDBRANCH   9  12
ENDBRANCH   8   9
ENDBRANCH   6   8
ENDBRANCH   5   6
ENDBRANCH   2   5
TORSDOF 7
ENDMDL
MODEL 4
REMARK VINA RESULT:      -5.9      2.653      3.973
REMARK  7 active torsions:
REMARK  status: ('A' for Active; 'I' for Inactive)
REMARK    1  A    between atoms: C_2  and  C_3 
REMARK    2  A    between atoms: C_3  and  N_4 
REMARK    3  A    between atoms: N_4  and  C_6 
REMARK    4  A    between atoms: C_6  and  C_7 
REMARK    5  A    between atoms: C_7  and  O_8 
REMARK    6  A    between atoms: C_7  and  C_9 
REMARK    7  A    between atoms: C_9  and  N_10 
ROOT
HETATM    1  C   UNL     1     -38.603 -48.468  13.293  1.00  0.00     0.027 C 
HETATM    2  C   UNL     1     -39.068 -48.608  11.839  1.00  0.00     0.117 C 
HETATM    3  C   UNL     1     -39.844 -47.416  11.468  1.00  0.00     0.065 C 
HETATM    4  N   UNL     1     -40.409 -46.451  11.171  1.00  0.00    -0.197 NA
ENDROOT
BRANCH   2   5
HETATM    5  C   UNL     1     -39.910 -49.894  11.689  1.00  0.00     0.290 C 
BRANCH   5   6
HETATM    6  N   UNL     1     -40.781 -50.261  12.828  1.00  0.00     0.088 N 
HETATM    7  C   UNL     1     -42.193 -50.005  12.542  1.00  0.00     0.310 C 
BRANCH   6   8
HETATM    8  C   UNL     1     -40.557 -51.665  13.264  1.00  0.00     0.305 C 
BRANCH   8   9
HETATM    9  C   UNL     1     -41.397 -52.688  12.446  1.00  0.00     0.164 C 
BRANCH   9  10
HETATM   10  O   UNL     1     -40.526 -53.507  11.654  1.00  0.00    -0.392 OA
HETATM   11  H   UNL     1     -40.992 -53.776  10.845  1.00  0.00     0.210 HD
ENDBRANCH   9  10
BRANCH   9  12
HETATM   12  C   UNL     1     -42.282 -53.595  13.308  1.00  0.00     0.163 C 
BRANCH  12  13
HETATM   13  N   UNL     1     -43.670 -53.147  13.269  1.00  0.00    -0.339 N 
HETATM   14  C   UNL     1     -44.417 -53.078  12.120  1.00  0.00     0.184 A 
HETATM   15  N   UNL     1     -45.633 -52.643  12.352  1.00  0.00    -0.350 N 
HETATM   16  C   UNL     1     -45.660 -52.370  13.694  1.00  0.00     0.060 A 
ATOM     17  HN  UNL     1     -46.392 -52.533  11.680  1.00  0.00     0.166 HD
HETATM   18  C   UNL     1     -46.708 -51.848  14.465  1.00  0.00     0.039 A 
HETATM   19  C   UNL     1     -44.441 -52.667  14.301  1.00  0.00     0.062 A 
HETATM   20  C   UNL     1     -46.526 -51.626  15.843  1.00  0.00    -0.054 A 
HETATM   21  C   UNL     1     -47.688 -51.083  16.631  1.00  0.00     0.049 C 
HETATM   22  C   UNL     1     -45.279 -51.914  16.439  1.00  0.00    -0.054 A 
HETATM   23  C   UNL     1     -45.008 -51.660  17.899  1.00  0.00     0.049 C 
HETATM   24  C   UNL     1     -44.216 -52.443  15.667  1.00  0.00     0.039 A 
ENDBRANCH  12  13
ENDBRANCH   9  12
ENDBRANCH   8   9
ENDBRANCH   6   8
ENDBRANCH   5   6
ENDBRANCH   2   5
TORSDOF 7
ENDMDL
MODEL 5
REMARK VINA RESULT:      -5.8      2.006      3.473
REMARK  7 active torsions:
REMARK  status: ('A' for Active; 'I' for Inactive)
REMARK    1  A    between atoms: C_2  and  C_3 
REMARK    2  A    between atoms: C_3  and  N_4 
REMARK    3  A    between atoms: N_4  and  C_6 
REMARK    4  A    between atoms: C_6  and  C_7 
REMARK    5  A    between atoms: C_7  and  O_8 
REMARK    6  A    between atoms: C_7  and  C_9 
REMARK    7  A    between atoms: C_9  and  N_10 
ROOT
HETATM    1  C   UNL     1     -41.321 -47.194  12.633  1.00  0.00     0.027 C 
HETATM    2  C   UNL     1     -41.025 -48.246  11.559  1.00  0.00     0.117 C 
HETATM    3  C   UNL     1     -41.936 -48.039  10.424  1.00  0.00     0.065 C 
HETATM    4  N   UNL     1     -42.623 -47.835   9.514  1.00  0.00    -0.197 NA
ENDROOT
BRANCH   2   5
HETATM    5  C   UNL     1     -41.192 -49.659  12.160  1.00  0.00     0.290 C 
BRANCH   5   6
HETATM    6  N   UNL     1     -40.081 -50.612  11.948  1.00  0.00     0.088 N 
HETATM    7  C   UNL     1     -38.775 -49.955  12.012  1.00  0.00     0.310 C 
BRANCH   6   8
HETATM    8  C   UNL     1     -40.158 -51.767  12.882  1.00  0.00     0.305 C 
BRANCH   8   9
HETATM    9  C   UNL     1     -41.107 -52.890  12.370  1.00  0.00     0.164 C 
BRANCH   9  10
HETATM   10  O   UNL     1     -40.590 -53.441  11.151  1.00  0.00    -0.392 OA
HETATM   11  H   UNL     1     -40.617 -54.410  11.205  1.00  0.00     0.210 HD
ENDBRANCH   9  10
BRANCH   9  12
HETATM   12  C   UNL     1     -41.323 -54.026  13.375  1.00  0.00     0.163 C 
BRANCH  12  13
HETATM   13  N   UNL     1     -42.154 -53.578  14.488  1.00  0.00    -0.339 N 
HETATM   14  C   UNL     1     -41.801 -53.717  15.807  1.00  0.00     0.184 A 
HETATM   15  N   UNL     1     -42.717 -53.236  16.612  1.00  0.00    -0.350 N 
HETATM   16  C   UNL     1     -43.728 -52.818  15.788  1.00  0.00     0.060 A 
ATOM     17  HN  UNL     1     -42.685 -53.185  17.630  1.00  0.00     0.166 HD
HETATM   18  C   UNL     1     -44.965 -52.253  16.127  1.00  0.00     0.039 A 
HETATM   19  C   UNL     1     -43.411 -53.024  14.445  1.00  0.00     0.062 A 
HETATM   20  C   UNL     1     -45.879 -51.900  15.117  1.00  0.00    -0.054 A 
HETATM   21  C   UNL     1     -47.186 -51.278  15.532  1.00  0.00     0.049 C 
HETATM   22  C   UNL     1     -45.551 -52.133  13.763  1.00  0.00    -0.054 A 
HETATM   23  C   UNL     1     -46.503 -51.816  12.640  1.00  0.00     0.049 C 
HETATM   24  C   UNL     1     -44.303 -52.702  13.413  1.00  0.00     0.039 A 
ENDBRANCH  12  13
ENDBRANCH   9  12
ENDBRANCH   8   9
ENDBRANCH   6   8
ENDBRANCH   5   6
ENDBRANCH   2   5
TORSDOF 7
ENDMDL
MODEL 6
REMARK VINA RESULT:      -5.8      2.383      7.097
REMARK  7 active torsions:
REMARK  status: ('A' for Active; 'I' for Inactive)
REMARK    1  A    between atoms: C_2  and  C_3 
REMARK    2  A    between atoms: C_3  and  N_4 
REMARK    3  A    between atoms: N_4  and  C_6 
REMARK    4  A    between atoms: C_6  and  C_7 
REMARK    5  A    between atoms: C_7  and  O_8 
REMARK    6  A    between atoms: C_7  and  C_9 
REMARK    7  A    between atoms: C_9  and  N_10 
ROOT
HETATM    1  C   UNL     1     -44.618 -53.129  12.512  1.00  0.00     0.027 C 
HETATM    2  C   UNL     1     -44.433 -54.462  13.248  1.00  0.00     0.117 C 
HETATM    3  C   UNL     1     -45.510 -54.615  14.237  1.00  0.00     0.065 C 
HETATM    4  N   UNL     1     -46.390 -54.748  14.977  1.00  0.00    -0.197 NA
ENDROOT
BRANCH   2   5
HETATM    5  C   UNL     1     -43.044 -54.490  13.922  1.00  0.00     0.290 C 
BRANCH   5   6
HETATM    6  N   UNL     1     -42.334 -53.198  14.046  1.00  0.00     0.088 N 
HETATM    7  C   UNL     1     -42.233 -52.761  15.439  1.00  0.00     0.310 C 
BRANCH   6   8
HETATM    8  C   UNL     1     -41.002 -53.235  13.387  1.00  0.00     0.305 C 
BRANCH   8   9
HETATM    9  C   UNL     1     -40.878 -52.201  12.230  1.00  0.00     0.164 C 
BRANCH   9  10
HETATM   10  O   UNL     1     -41.249 -52.816  10.989  1.00  0.00    -0.392 OA
HETATM   11  H   UNL     1     -41.514 -52.126  10.359  1.00  0.00     0.210 HD
ENDBRANCH   9  10
BRANCH   9  12
HETATM   12  C   UNL     1     -41.725 -50.939  12.429  1.00  0.00     0.163 C 
BRANCH  12  13
HETATM   13  N   UNL     1     -40.872 -49.763  12.563  1.00  0.00    -0.339 N 
HETATM   14  C   UNL     1     -39.809 -49.685  13.428  1.00  0.00     0.184 A 
HETATM   15  N   UNL     1     -39.205 -48.524  13.359  1.00  0.00    -0.350 N 
HETATM   16  C   UNL     1     -39.935 -47.799  12.454  1.00  0.00     0.060 A 
ATOM     17  HN  UNL     1     -38.374 -48.225  13.868  1.00  0.00     0.166 HD
HETATM   18  C   UNL     1     -39.748 -46.477  12.028  1.00  0.00     0.039 A 
HETATM   19  C   UNL     1     -40.995 -48.544  11.939  1.00  0.00     0.062 A 
HETATM   20  C   UNL     1     -40.628 -45.908  11.089  1.00  0.00    -0.054 A 
HETATM   21  C   UNL     1     -40.373 -44.491  10.649  1.00  0.00     0.049 C 
HETATM   22  C   UNL     1     -41.708 -46.669  10.591  1.00  0.00    -0.054 A 
HETATM   23  C   UNL     1     -42.708 -46.104   9.616  1.00  0.00     0.049 C 
HETATM   24  C   UNL     1     -41.902 -48.006  11.015  1.00  0.00     0.039 A 
ENDBRANCH  12  13
ENDBRANCH   9  12
ENDBRANCH   8   9
ENDBRANCH   6   8
ENDBRANCH   5   6
ENDBRANCH   2   5
TORSDOF 7
ENDMDL
MODEL 7
REMARK VINA RESULT:      -5.7      3.865      5.215
REMARK  7 active torsions:
REMARK  status: ('A' for Active; 'I' for Inactive)
REMARK    1  A    between atoms: C_2  and  C_3 
REMARK    2  A    between atoms: C_3  and  N_4 
REMARK    3  A    between atoms: N_4  and  C_6 
REMARK    4  A    between atoms: C_6  and  C_7 
REMARK    5  A    between atoms: C_7  and  O_8 
REMARK    6  A    between atoms: C_7  and  C_9 
REMARK    7  A    between atoms: C_9  and  N_10 
ROOT
HETATM    1  C   UNL     1     -37.846 -48.495  13.034  1.00  0.00     0.027 C 
HETATM    2  C   UNL     1     -38.320 -49.878  13.496  1.00  0.00     0.117 C 
HETATM    3  C   UNL     1     -37.549 -50.909  12.786  1.00  0.00     0.065 C 
HETATM    4  N   UNL     1     -36.901 -51.711  12.260  1.00  0.00    -0.197 NA
ENDROOT
BRANCH   2   5
HETATM    5  C   UNL     1     -39.833 -50.022  13.223  1.00  0.00     0.290 C 
BRANCH   5   6
HETATM    6  N   UNL     1     -40.473 -51.285  13.651  1.00  0.00     0.088 N 
HETATM    7  C   UNL     1     -40.589 -51.374  15.108  1.00  0.00     0.310 C 
BRANCH   6   8
HETATM    8  C   UNL     1     -41.786 -51.493  12.985  1.00  0.00     0.305 C 
BRANCH   8   9
HETATM    9  C   UNL     1     -42.037 -52.981  12.605  1.00  0.00     0.164 C 
BRANCH   9  10
HETATM   10  O   UNL     1     -40.845 -53.545  12.042  1.00  0.00    -0.392 OA
HETATM   11  H   UNL     1     -40.983 -53.697  11.093  1.00  0.00     0.210 HD
ENDBRANCH   9  10
BRANCH   9  12
HETATM   12  C   UNL     1     -42.491 -53.854  13.780  1.00  0.00     0.163 C 
BRANCH  12  13
HETATM   13  N   UNL     1     -43.939 -53.788  13.941  1.00  0.00    -0.339 N 
HETATM   14  C   UNL     1     -44.823 -54.552  13.220  1.00  0.00     0.184 A 
HETATM   15  N   UNL     1     -46.067 -54.305  13.550  1.00  0.00    -0.350 N 
HETATM   16  C   UNL     1     -45.993 -53.304  14.483  1.00  0.00     0.060 A 
ATOM     17  HN  UNL     1     -46.907 -54.758  13.191  1.00  0.00     0.166 HD
HETATM   18  C   UNL     1     -47.034 -52.638  15.145  1.00  0.00     0.039 A 
HETATM   19  C   UNL     1     -44.671 -52.949  14.747  1.00  0.00     0.062 A 
HETATM   20  C   UNL     1     -46.742 -51.618  16.069  1.00  0.00    -0.054 A 
HETATM   21  C   UNL     1     -47.894 -50.947  16.769  1.00  0.00     0.049 C 
HETATM   22  C   UNL     1     -45.398 -51.257  16.311  1.00  0.00    -0.054 A 
HETATM   23  C   UNL     1     -45.023 -50.145  17.257  1.00  0.00     0.049 C 
HETATM   24  C   UNL     1     -44.342 -51.926  15.648  1.00  0.00     0.039 A 
ENDBRANCH  12  13
ENDBRANCH   9  12
ENDBRANCH   8   9
ENDBRANCH   6   8
ENDBRANCH   5   6
ENDBRANCH   2   5
TORSDOF 7
ENDMDL
MODEL 8
REMARK VINA RESULT:      -5.7      1.027      1.915
REMARK  7 active torsions:
REMARK  status: ('A' for Active; 'I' for Inactive)
REMARK    1  A    between atoms: C_2  and  C_3 
REMARK    2  A    between atoms: C_3  and  N_4 
REMARK    3  A    between atoms: N_4  and  C_6 
REMARK    4  A    between atoms: C_6  and  C_7 
REMARK    5  A    between atoms: C_7  and  O_8 
REMARK    6  A    between atoms: C_7  and  C_9 
REMARK    7  A    between atoms: C_9  and  N_10 
ROOT
HETATM    1  C   UNL     1     -42.071 -44.901  13.797  1.00  0.00     0.027 C 
HETATM    2  C   UNL     1     -42.103 -45.521  12.395  1.00  0.00     0.117 C 
HETATM    3  C   UNL     1     -42.404 -44.468  11.414  1.00  0.00     0.065 C 
HETATM    4  N   UNL     1     -42.592 -43.623  10.646  1.00  0.00    -0.197 NA
ENDROOT
BRANCH   2   5
HETATM    5  C   UNL     1     -43.160 -46.645  12.353  1.00  0.00     0.290 C 
BRANCH   5   6
HETATM    6  N   UNL     1     -42.867 -47.808  11.486  1.00  0.00     0.088 N 
HETATM    7  C   UNL     1     -43.220 -47.551  10.089  1.00  0.00     0.310 C 
BRANCH   6   8
HETATM    8  C   UNL     1     -41.456 -48.255  11.620  1.00  0.00     0.305 C 
BRANCH   8   9
HETATM    9  C   UNL     1     -41.293 -49.791  11.432  1.00  0.00     0.164 C 
BRANCH   9  10
HETATM   10  O   UNL     1     -40.375 -50.053  10.361  1.00  0.00    -0.392 OA
HETATM   11  H   UNL     1     -39.842 -50.834  10.584  1.00  0.00     0.210 HD
ENDBRANCH   9  10
BRANCH   9  12
HETATM   12  C   UNL     1     -40.809 -50.524  12.688  1.00  0.00     0.163 C 
BRANCH  12  13
HETATM   13  N   UNL     1     -41.423 -51.844  12.782  1.00  0.00    -0.339 N 
HETATM   14  C   UNL     1     -40.823 -52.997  12.339  1.00  0.00     0.184 A 
HETATM   15  N   UNL     1     -41.580 -54.049  12.535  1.00  0.00    -0.350 N 
HETATM   16  C   UNL     1     -42.737 -53.556  13.077  1.00  0.00     0.060 A 
ATOM     17  HN  UNL     1     -41.356 -55.022  12.330  1.00  0.00     0.166 HD
HETATM   18  C   UNL     1     -43.899 -54.246  13.450  1.00  0.00     0.039 A 
HETATM   19  C   UNL     1     -42.677 -52.173  13.239  1.00  0.00     0.062 A 
HETATM   20  C   UNL     1     -44.996 -53.542  13.982  1.00  0.00    -0.054 A 
HETATM   21  C   UNL     1     -46.213 -54.332  14.386  1.00  0.00     0.049 C 
HETATM   22  C   UNL     1     -44.926 -52.139  14.122  1.00  0.00    -0.054 A 
HETATM   23  C   UNL     1     -46.081 -51.325  14.646  1.00  0.00     0.049 C 
HETATM   24  C   UNL     1     -43.755 -51.436  13.749  1.00  0.00     0.039 A 
ENDBRANCH  12  13
ENDBRANCH   9  12
ENDBRANCH   8   9
ENDBRANCH   6   8
ENDBRANCH   5   6
ENDBRANCH   2   5
TORSDOF 7
ENDMDL
MODEL 9
REMARK VINA RESULT:      -5.7      1.771      2.237
REMARK  7 active torsions:
REMARK  status: ('A' for Active; 'I' for Inactive)
REMARK    1  A    between atoms: C_2  and  C_3 
REMARK    2  A    between atoms: C_3  and  N_4 
REMARK    3  A    between atoms: N_4  and  C_6 
REMARK    4  A    between atoms: C_6  and  C_7 
REMARK    5  A    between atoms: C_7  and  O_8 
REMARK    6  A    between atoms: C_7  and  C_9 
REMARK    7  A    between atoms: C_9  and  N_10 
ROOT
HETATM    1  C   UNL     1     -43.882 -47.874   7.934  1.00  0.00     0.027 C 
HETATM    2  C   UNL     1     -43.643 -47.278   9.326  1.00  0.00     0.117 C 
HETATM    3  C   UNL     1     -43.715 -45.812   9.237  1.00  0.00     0.065 C 
HETATM    4  N   UNL     1     -43.824 -44.662   9.164  1.00  0.00    -0.197 NA
ENDROOT
BRANCH   2   5
HETATM    5  C   UNL     1     -42.268 -47.740   9.856  1.00  0.00     0.290 C 
BRANCH   5   6
HETATM    6  N   UNL     1     -42.106 -47.809  11.326  1.00  0.00     0.088 N 
HETATM    7  C   UNL     1     -43.108 -48.676  11.947  1.00  0.00     0.310 C 
BRANCH   6   8
HETATM    8  C   UNL     1     -40.726 -48.206  11.710  1.00  0.00     0.305 C 
BRANCH   8   9
HETATM    9  C   UNL     1     -40.464 -49.729  11.517  1.00  0.00     0.164 C 
BRANCH   9  10
HETATM   10  O   UNL     1     -40.460 -50.046  10.119  1.00  0.00    -0.392 OA
HETATM   11  H   UNL     1     -41.169 -49.549   9.678  1.00  0.00     0.210 HD
ENDBRANCH   9  10
BRANCH   9  12
HETATM   12  C   UNL     1     -39.152 -50.218  12.140  1.00  0.00     0.163 C 
BRANCH  12  13
HETATM   13  N   UNL     1     -39.412 -51.225  13.162  1.00  0.00    -0.339 N 
HETATM   14  C   UNL     1     -38.506 -51.582  14.130  1.00  0.00     0.184 A 
HETATM   15  N   UNL     1     -38.979 -52.509  14.926  1.00  0.00    -0.350 N 
HETATM   16  C   UNL     1     -40.219 -52.805  14.427  1.00  0.00     0.060 A 
ATOM     17  HN  UNL     1     -38.523 -52.921  15.740  1.00  0.00     0.166 HD
HETATM   18  C   UNL     1     -41.148 -53.753  14.878  1.00  0.00     0.039 A 
HETATM   19  C   UNL     1     -40.522 -52.022  13.313  1.00  0.00     0.062 A 
HETATM   20  C   UNL     1     -42.375 -53.912  14.208  1.00  0.00    -0.054 A 
HETATM   21  C   UNL     1     -43.347 -54.929  14.744  1.00  0.00     0.049 C 
HETATM   22  C   UNL     1     -42.658 -53.125  13.070  1.00  0.00    -0.054 A 
HETATM   23  C   UNL     1     -43.936 -53.276  12.286  1.00  0.00     0.049 C 
HETATM   24  C   UNL     1     -41.726 -52.164  12.609  1.00  0.00     0.039 A 
ENDBRANCH  12  13
ENDBRANCH   9  12
ENDBRANCH   8   9
ENDBRANCH   6   8
ENDBRANCH   5   6
ENDBRANCH   2   5
TORSDOF 7
ENDMDL
