MODEL 1
REMARK VINA RESULT:      -6.1      0.000      0.000
REMARK  6 active torsions:
REMARK  status: ('A' for Active; 'I' for Inactive)
REMARK    1  A    between atoms: C_4  and  N_5 
REMARK       I    between atoms: N_5  and  C_6 
REMARK       I    between atoms: C_6  and  N_8 
REMARK    2  A    between atoms: N_8  and  C_9 
REMARK    3  A    between atoms: C_9  and  C_10 
REMARK    4  A    between atoms: C_9  and  C_13 
REMARK    5  A    between atoms: C_10  and  C_11 
REMARK    6  A    between atoms: C_11  and  O_12 
ROOT
HETATM    1  N   UNL     1     -42.307 -49.855  11.523  1.00  0.00    -0.293 N 
HETATM    2  C   UNL     1     -42.583 -50.460  12.782  1.00  0.00     0.322 C 
HETATM    3  O   UNL     1     -41.998 -50.168  13.805  1.00  0.00    -0.247 OA
HETATM    4  N   UNL     1     -43.520 -51.430  12.622  1.00  0.00    -0.338 N 
HETATM    5  H   UNL     1     -42.676 -50.284  10.691  1.00  0.00     0.172 HD
HETATM    6  H   UNL     1     -44.081 -51.437  11.788  1.00  0.00     0.164 HD
ENDROOT
BRANCH   4   7
HETATM    7  C   UNL     1     -43.913 -52.330  13.703  1.00  0.00     0.092 C 
BRANCH   7   8
HETATM    8  C   UNL     1     -45.420 -52.125  13.943  1.00  0.00     0.051 C 
BRANCH   8   9
HETATM    9  C   UNL     1     -46.190 -51.604  12.740  1.00  0.00     0.166 C 
BRANCH   9  10
HETATM   10  O   UNL     1     -46.292 -52.641  11.773  1.00  0.00    -0.401 OA
HETATM   11  H   UNL     1     -47.004 -52.408  11.153  1.00  0.00     0.209 HD
ENDBRANCH   9  10
ENDBRANCH   8   9
ENDBRANCH   7   8
BRANCH   7  12
HETATM   12  C   UNL     1     -43.500 -53.815  13.443  1.00  0.00     0.008 C 
HETATM   13  C   UNL     1     -44.008 -54.813  14.501  1.00  0.00     0.007 C 
HETATM   14  C   UNL     1     -43.205 -54.832  15.798  1.00  0.00     0.000 C 
HETATM   15  C   UNL     1     -41.696 -54.904  15.581  1.00  0.00     0.000 C 
HETATM   16  C   UNL     1     -41.164 -53.987  14.485  1.00  0.00     0.000 C 
HETATM   17  C   UNL     1     -41.998 -54.052  13.211  1.00  0.00     0.007 C 
ENDBRANCH   7  12
ENDBRANCH   4   7
BRANCH   1  18
HETATM   18  C   UNL     1     -41.478 -48.747  11.382  1.00  0.00     0.127 A 
HETATM   19  C   UNL     1     -41.864 -47.445  11.162  1.00  0.00     0.076 A 
HETATM   20  C   UNL     1     -40.672 -46.703  11.053  1.00  0.00     0.025 A 
HETATM   21  C   UNL     1     -40.540 -45.248  10.806  1.00  0.00     0.070 C 
HETATM   22  N   UNL     1     -39.593 -47.481  11.194  1.00  0.00    -0.302 N 
HETATM   23  N   UNL     1     -40.100 -48.713  11.401  1.00  0.00    -0.281 N 
ATOM     24  HN  UNL     1     -38.612 -47.205  11.155  1.00  0.00     0.186 HD
HETATM   25  C   UNL     1     -39.177 -49.789  11.666  1.00  0.00     0.179 C 
ENDBRANCH   1  18
TORSDOF 6
ENDMDL
MODEL 2
REMARK VINA RESULT:      -6.0      1.365      1.798
REMARK  6 active torsions:
REMARK  status: ('A' for Active; 'I' for Inactive)
REMARK    1  A    between atoms: C_4  and  N_5 
REMARK       I    between atoms: N_5  and  C_6 
REMARK       I    between atoms: C_6  and  N_8 
REMARK    2  A    between atoms: N_8  and  C_9 
REMARK    3  A    between atoms: C_9  and  C_10 
REMARK    4  A    between atoms: C_9  and  C_13 
REMARK    5  A    between atoms: C_10  and  C_11 
REMARK    6  A    between atoms: C_11  and  O_12 
ROOT
HETATM    1  N   UNL     1     -41.610 -49.600  11.057  1.00  0.00    -0.293 N 
HETATM    2  C   UNL     1     -42.214 -50.088  12.252  1.00  0.00     0.322 C 
HETATM    3  O   UNL     1     -42.402 -49.398  13.233  1.00  0.00    -0.247 OA
HETATM    4  N   UNL     1     -42.456 -51.417  12.125  1.00  0.00    -0.338 N 
HETATM    5  H   UNL     1     -41.298 -50.264  10.370  1.00  0.00     0.172 HD
HETATM    6  H   UNL     1     -42.459 -51.831  11.208  1.00  0.00     0.164 HD
ENDROOT
BRANCH   4   7
HETATM    7  C   UNL     1     -42.939 -52.238  13.232  1.00  0.00     0.092 C 
BRANCH   7   8
HETATM    8  C   UNL     1     -44.472 -52.102  13.266  1.00  0.00     0.051 C 
BRANCH   8   9
HETATM    9  C   UNL     1     -45.225 -53.204  12.535  1.00  0.00     0.166 C 
BRANCH   9  10
HETATM   10  O   UNL     1     -46.250 -52.616  11.744  1.00  0.00    -0.401 OA
HETATM   11  H   UNL     1     -46.453 -53.223  11.012  1.00  0.00     0.209 HD
ENDBRANCH   9  10
ENDBRANCH   8   9
ENDBRANCH   7   8
BRANCH   7  12
HETATM   12  C   UNL     1     -42.426 -53.713  13.170  1.00  0.00     0.008 C 
HETATM   13  C   UNL     1     -42.649 -54.522  14.463  1.00  0.00     0.007 C 
HETATM   14  C   UNL     1     -41.646 -54.234  15.575  1.00  0.00     0.000 C 
HETATM   15  C   UNL     1     -40.193 -54.243  15.105  1.00  0.00     0.000 C 
HETATM   16  C   UNL     1     -39.945 -53.520  13.785  1.00  0.00     0.000 C 
HETATM   17  C   UNL     1     -40.967 -53.886  12.716  1.00  0.00     0.007 C 
ENDBRANCH   7  12
ENDBRANCH   4   7
BRANCH   1  18
HETATM   18  C   UNL     1     -41.353 -48.250  10.836  1.00  0.00     0.127 A 
HETATM   19  C   UNL     1     -40.338 -47.499  11.382  1.00  0.00     0.076 A 
HETATM   20  C   UNL     1     -40.519 -46.192  10.889  1.00  0.00     0.025 A 
HETATM   21  C   UNL     1     -39.691 -44.999  11.186  1.00  0.00     0.070 C 
HETATM   22  N   UNL     1     -41.581 -46.114  10.080  1.00  0.00    -0.302 N 
HETATM   23  N   UNL     1     -42.068 -47.371  10.053  1.00  0.00    -0.281 N 
ATOM     24  HN  UNL     1     -41.940 -45.292   9.595  1.00  0.00     0.186 HD
HETATM   25  C   UNL     1     -43.196 -47.641   9.195  1.00  0.00     0.179 C 
ENDBRANCH   1  18
TORSDOF 6
ENDMDL
MODEL 3
REMARK VINA RESULT:      -6.0      1.306      2.046
REMARK  6 active torsions:
REMARK  status: ('A' for Active; 'I' for Inactive)
REMARK    1  A    between atoms: C_4  and  N_5 
REMARK       I    between atoms: N_5  and  C_6 
REMARK       I    between atoms: C_6  and  N_8 
REMARK    2  A    between atoms: N_8  and  C_9 
REMARK    3  A    between atoms: C_9  and  C_10 
REMARK    4  A    between atoms: C_9  and  C_13 
REMARK    5  A    between atoms: C_10  and  C_11 
REMARK    6  A    between atoms: C_11  and  O_12 
ROOT
HETATM    1  N   UNL     1     -42.614 -49.721  11.685  1.00  0.00    -0.293 N 
HETATM    2  C   UNL     1     -43.330 -49.826  12.912  1.00  0.00     0.322 C 
HETATM    3  O   UNL     1     -43.066 -49.166  13.896  1.00  0.00    -0.247 OA
HETATM    4  N   UNL     1     -44.264 -50.806  12.808  1.00  0.00    -0.338 N 
HETATM    5  H   UNL     1     -42.747 -50.433  10.988  1.00  0.00     0.172 HD
HETATM    6  H   UNL     1     -44.534 -51.131  11.896  1.00  0.00     0.164 HD
ENDROOT
BRANCH   4   7
HETATM    7  C   UNL     1     -45.064 -51.253  13.945  1.00  0.00     0.092 C 
BRANCH   7   8
HETATM    8  C   UNL     1     -46.484 -51.537  13.420  1.00  0.00     0.051 C 
BRANCH   8   9
HETATM    9  C   UNL     1     -46.634 -51.444  11.909  1.00  0.00     0.166 C 
BRANCH   9  10
HETATM   10  O   UNL     1     -47.126 -52.685  11.419  1.00  0.00    -0.401 OA
HETATM   11  H   UNL     1     -47.899 -52.936  11.953  1.00  0.00     0.209 HD
ENDBRANCH   9  10
ENDBRANCH   8   9
ENDBRANCH   7   8
BRANCH   7  12
HETATM   12  C   UNL     1     -44.415 -52.447  14.717  1.00  0.00     0.008 C 
HETATM   13  C   UNL     1     -43.553 -53.379  13.844  1.00  0.00     0.007 C 
HETATM   14  C   UNL     1     -44.344 -54.373  12.999  1.00  0.00     0.000 C 
HETATM   15  C   UNL     1     -45.425 -55.114  13.780  1.00  0.00     0.000 C 
HETATM   16  C   UNL     1     -46.250 -54.238  14.718  1.00  0.00     0.000 C 
HETATM   17  C   UNL     1     -45.386 -53.300  15.552  1.00  0.00     0.007 C 
ENDBRANCH   7  12
ENDBRANCH   4   7
BRANCH   1  18
HETATM   18  C   UNL     1     -41.674 -48.725  11.441  1.00  0.00     0.127 A 
HETATM   19  C   UNL     1     -41.921 -47.425  11.066  1.00  0.00     0.076 A 
HETATM   20  C   UNL     1     -40.657 -46.823  10.904  1.00  0.00     0.025 A 
HETATM   21  C   UNL     1     -40.374 -45.427  10.498  1.00  0.00     0.070 C 
HETATM   22  N   UNL     1     -39.667 -47.684  11.161  1.00  0.00    -0.302 N 
HETATM   23  N   UNL     1     -40.300 -48.828  11.492  1.00  0.00    -0.281 N 
ATOM     24  HN  UNL     1     -38.662 -47.515  11.116  1.00  0.00     0.186 HD
HETATM   25  C   UNL     1     -39.496 -49.953  11.901  1.00  0.00     0.179 C 
ENDBRANCH   1  18
TORSDOF 6
ENDMDL
MODEL 4
REMARK VINA RESULT:      -6.0      1.939      7.230
REMARK  6 active torsions:
REMARK  status: ('A' for Active; 'I' for Inactive)
REMARK    1  A    between atoms: C_4  and  N_5 
REMARK       I    between atoms: N_5  and  C_6 
REMARK       I    between atoms: C_6  and  N_8 
REMARK    2  A    between atoms: N_8  and  C_9 
REMARK    3  A    between atoms: C_9  and  C_10 
REMARK    4  A    between atoms: C_9  and  C_13 
REMARK    5  A    between atoms: C_10  and  C_11 
REMARK    6  A    between atoms: C_11  and  O_12 
ROOT
HETATM    1  N   UNL     1     -42.304 -52.229  11.840  1.00  0.00    -0.293 N 
HETATM    2  C   UNL     1     -41.795 -51.016  12.387  1.00  0.00     0.322 C 
HETATM    3  O   UNL     1     -42.041 -50.640  13.514  1.00  0.00    -0.247 OA
HETATM    4  N   UNL     1     -41.085 -50.356  11.438  1.00  0.00    -0.338 N 
HETATM    5  H   UNL     1     -42.234 -52.377  10.848  1.00  0.00     0.172 HD
HETATM    6  H   UNL     1     -40.771 -50.855  10.623  1.00  0.00     0.164 HD
ENDROOT
BRANCH   4   7
HETATM    7  C   UNL     1     -40.555 -49.011  11.646  1.00  0.00     0.092 C 
BRANCH   7   8
HETATM    8  C   UNL     1     -39.034 -49.079  11.420  1.00  0.00     0.051 C 
BRANCH   8   9
HETATM    9  C   UNL     1     -38.283 -49.967  12.400  1.00  0.00     0.166 C 
BRANCH   9  10
HETATM   10  O   UNL     1     -38.190 -51.278  11.856  1.00  0.00    -0.401 OA
HETATM   11  H   UNL     1     -37.310 -51.632  12.071  1.00  0.00     0.209 HD
ENDBRANCH   9  10
ENDBRANCH   8   9
ENDBRANCH   7   8
BRANCH   7  12
HETATM   12  C   UNL     1     -41.284 -47.927  10.787  1.00  0.00     0.008 C 
HETATM   13  C   UNL     1     -40.618 -46.537  10.816  1.00  0.00     0.007 C 
HETATM   14  C   UNL     1     -40.907 -45.718  12.070  1.00  0.00     0.000 C 
HETATM   15  C   UNL     1     -42.384 -45.683  12.451  1.00  0.00     0.000 C 
HETATM   16  C   UNL     1     -43.099 -47.028  12.358  1.00  0.00     0.000 C 
HETATM   17  C   UNL     1     -42.788 -47.767  11.063  1.00  0.00     0.007 C 
ENDBRANCH   7  12
ENDBRANCH   4   7
BRANCH   1  18
HETATM   18  C   UNL     1     -42.971 -53.182  12.604  1.00  0.00     0.127 A 
HETATM   19  C   UNL     1     -44.312 -53.485  12.565  1.00  0.00     0.076 A 
HETATM   20  C   UNL     1     -44.511 -54.480  13.542  1.00  0.00     0.025 A 
HETATM   21  C   UNL     1     -45.787 -55.141  13.902  1.00  0.00     0.070 C 
HETATM   22  N   UNL     1     -43.370 -54.793  14.165  1.00  0.00    -0.302 N 
HETATM   23  N   UNL     1     -42.447 -54.004  13.578  1.00  0.00    -0.281 N 
ATOM     24  HN  UNL     1     -43.230 -55.472  14.912  1.00  0.00     0.186 HD
HETATM   25  C   UNL     1     -41.071 -54.154  13.985  1.00  0.00     0.179 C 
ENDBRANCH   1  18
TORSDOF 6
ENDMDL
MODEL 5
REMARK VINA RESULT:      -6.0      1.369      2.292
REMARK  6 active torsions:
REMARK  status: ('A' for Active; 'I' for Inactive)
REMARK    1  A    between atoms: C_4  and  N_5 
REMARK       I    between atoms: N_5  and  C_6 
REMARK       I    between atoms: C_6  and  N_8 
REMARK    2  A    between atoms: N_8  and  C_9 
REMARK    3  A    between atoms: C_9  and  C_10 
REMARK    4  A    between atoms: C_9  and  C_13 
REMARK    5  A    between atoms: C_10  and  C_11 
REMARK    6  A    between atoms: C_11  and  O_12 
ROOT
HETATM    1  N   UNL     1     -42.278 -51.262  11.926  1.00  0.00    -0.293 N 
HETATM    2  C   UNL     1     -43.071 -51.229  13.109  1.00  0.00     0.322 C 
HETATM    3  O   UNL     1     -42.716 -50.681  14.132  1.00  0.00    -0.247 OA
HETATM    4  N   UNL     1     -44.202 -51.952  12.915  1.00  0.00    -0.338 N 
HETATM    5  H   UNL     1     -42.535 -51.900  11.192  1.00  0.00     0.172 HD
HETATM    6  H   UNL     1     -44.488 -52.175  11.977  1.00  0.00     0.164 HD
ENDROOT
BRANCH   4   7
HETATM    7  C   UNL     1     -45.153 -52.228  13.989  1.00  0.00     0.092 C 
BRANCH   7   8
HETATM    8  C   UNL     1     -46.487 -51.565  13.601  1.00  0.00     0.051 C 
BRANCH   8   9
HETATM    9  C   UNL     1     -46.723 -51.440  12.103  1.00  0.00     0.166 C 
BRANCH   9  10
HETATM   10  O   UNL     1     -46.856 -52.742  11.547  1.00  0.00    -0.401 OA
HETATM   11  H   UNL     1     -46.030 -53.227  11.713  1.00  0.00     0.209 HD
ENDBRANCH   9  10
ENDBRANCH   8   9
ENDBRANCH   7   8
BRANCH   7  12
HETATM   12  C   UNL     1     -45.267 -53.750  14.328  1.00  0.00     0.008 C 
HETATM   13  C   UNL     1     -45.693 -54.050  15.779  1.00  0.00     0.007 C 
HETATM   14  C   UNL     1     -44.578 -53.917  16.811  1.00  0.00     0.000 C 
HETATM   15  C   UNL     1     -43.285 -54.621  16.408  1.00  0.00     0.000 C 
HETATM   16  C   UNL     1     -42.871 -54.413  14.955  1.00  0.00     0.000 C 
HETATM   17  C   UNL     1     -44.031 -54.598  13.984  1.00  0.00     0.007 C 
ENDBRANCH   7  12
ENDBRANCH   4   7
BRANCH   1  18
HETATM   18  C   UNL     1     -41.115 -50.514  11.773  1.00  0.00     0.127 A 
HETATM   19  C   UNL     1     -39.836 -50.892  12.110  1.00  0.00     0.076 A 
HETATM   20  C   UNL     1     -39.015 -49.789  11.803  1.00  0.00     0.025 A 
HETATM   21  C   UNL     1     -37.549 -49.683  11.988  1.00  0.00     0.070 C 
HETATM   22  N   UNL     1     -39.724 -48.772  11.301  1.00  0.00    -0.302 N 
HETATM   23  N   UNL     1     -40.992 -49.232  11.282  1.00  0.00    -0.281 N 
ATOM     24  HN  UNL     1     -39.384 -47.859  11.002  1.00  0.00     0.186 HD
HETATM   25  C   UNL     1     -42.011 -48.382  10.718  1.00  0.00     0.179 C 
ENDBRANCH   1  18
TORSDOF 6
ENDMDL
MODEL 6
REMARK VINA RESULT:      -5.9      2.929      4.848
REMARK  6 active torsions:
REMARK  status: ('A' for Active; 'I' for Inactive)
REMARK    1  A    between atoms: C_4  and  N_5 
REMARK       I    between atoms: N_5  and  C_6 
REMARK       I    between atoms: C_6  and  N_8 
REMARK    2  A    between atoms: N_8  and  C_9 
REMARK    3  A    between atoms: C_9  and  C_10 
REMARK    4  A    between atoms: C_9  and  C_13 
REMARK    5  A    between atoms: C_10  and  C_11 
REMARK    6  A    between atoms: C_11  and  O_12 
ROOT
HETATM    1  N   UNL     1     -42.102 -48.502  10.217  1.00  0.00    -0.293 N 
HETATM    2  C   UNL     1     -41.908 -48.966  11.550  1.00  0.00     0.322 C 
HETATM    3  O   UNL     1     -42.420 -48.442  12.518  1.00  0.00    -0.247 OA
HETATM    4  N   UNL     1     -41.027 -49.999  11.545  1.00  0.00    -0.338 N 
HETATM    5  H   UNL     1     -41.494 -48.845   9.495  1.00  0.00     0.172 HD
HETATM    6  H   UNL     1     -40.839 -50.478  10.682  1.00  0.00     0.164 HD
ENDROOT
BRANCH   4   7
HETATM    7  C   UNL     1     -40.512 -50.599  12.773  1.00  0.00     0.092 C 
BRANCH   7   8
HETATM    8  C   UNL     1     -41.392 -51.822  13.088  1.00  0.00     0.051 C 
BRANCH   8   9
HETATM    9  C   UNL     1     -41.080 -53.060  12.261  1.00  0.00     0.166 C 
BRANCH   9  10
HETATM   10  O   UNL     1     -41.276 -52.757  10.886  1.00  0.00    -0.401 OA
HETATM   11  H   UNL     1     -40.468 -52.333  10.551  1.00  0.00     0.209 HD
ENDBRANCH   9  10
ENDBRANCH   8   9
ENDBRANCH   7   8
BRANCH   7  12
HETATM   12  C   UNL     1     -38.981 -50.909  12.706  1.00  0.00     0.008 C 
HETATM   13  C   UNL     1     -38.406 -51.562  13.978  1.00  0.00     0.007 C 
HETATM   14  C   UNL     1     -38.146 -50.596  15.129  1.00  0.00     0.000 C 
HETATM   15  C   UNL     1     -37.395 -49.335  14.710  1.00  0.00     0.000 C 
HETATM   16  C   UNL     1     -37.883 -48.702  13.411  1.00  0.00     0.000 C 
HETATM   17  C   UNL     1     -38.085 -49.727  12.301  1.00  0.00     0.007 C 
ENDBRANCH   7  12
ENDBRANCH   4   7
BRANCH   1  18
HETATM   18  C   UNL     1     -43.041 -47.530   9.884  1.00  0.00     0.127 A 
HETATM   19  C   UNL     1     -44.319 -47.736   9.419  1.00  0.00     0.076 A 
HETATM   20  C   UNL     1     -44.857 -46.454   9.191  1.00  0.00     0.025 A 
HETATM   21  C   UNL     1     -46.208 -46.127   8.679  1.00  0.00     0.070 C 
HETATM   22  N   UNL     1     -43.978 -45.491   9.491  1.00  0.00    -0.302 N 
HETATM   23  N   UNL     1     -42.888 -46.161   9.917  1.00  0.00    -0.281 N 
ATOM     24  HN  UNL     1     -44.105 -44.482   9.416  1.00  0.00     0.186 HD
HETATM   25  C   UNL     1     -41.764 -45.391  10.392  1.00  0.00     0.179 C 
ENDBRANCH   1  18
TORSDOF 6
ENDMDL
MODEL 7
REMARK VINA RESULT:      -5.6      2.036      3.335
REMARK  6 active torsions:
REMARK  status: ('A' for Active; 'I' for Inactive)
REMARK    1  A    between atoms: C_4  and  N_5 
REMARK       I    between atoms: N_5  and  C_6 
REMARK       I    between atoms: C_6  and  N_8 
REMARK    2  A    between atoms: N_8  and  C_9 
REMARK    3  A    between atoms: C_9  and  C_10 
REMARK    4  A    between atoms: C_9  and  C_13 
REMARK    5  A    between atoms: C_10  and  C_11 
REMARK    6  A    between atoms: C_11  and  O_12 
ROOT
HETATM    1  N   UNL     1     -41.668 -49.195  10.838  1.00  0.00    -0.293 N 
HETATM    2  C   UNL     1     -42.056 -49.803  12.067  1.00  0.00     0.322 C 
HETATM    3  O   UNL     1     -42.056 -49.216  13.129  1.00  0.00    -0.247 OA
HETATM    4  N   UNL     1     -42.336 -51.114  11.853  1.00  0.00    -0.338 N 
HETATM    5  H   UNL     1     -41.493 -49.785  10.043  1.00  0.00     0.172 HD
HETATM    6  H   UNL     1     -42.508 -51.433  10.915  1.00  0.00     0.164 HD
ENDROOT
BRANCH   4   7
HETATM    7  C   UNL     1     -42.625 -52.044  12.942  1.00  0.00     0.092 C 
BRANCH   7   8
HETATM    8  C   UNL     1     -41.292 -52.348  13.650  1.00  0.00     0.051 C 
BRANCH   8   9
HETATM    9  C   UNL     1     -40.510 -53.512  13.060  1.00  0.00     0.166 C 
BRANCH   9  10
HETATM   10  O   UNL     1     -40.644 -53.487  11.644  1.00  0.00    -0.401 OA
HETATM   11  H   UNL     1     -40.572 -54.400  11.317  1.00  0.00     0.209 HD
ENDBRANCH   9  10
ENDBRANCH   8   9
ENDBRANCH   7   8
BRANCH   7  12
HETATM   12  C   UNL     1     -43.757 -51.537  13.894  1.00  0.00     0.008 C 
HETATM   13  C   UNL     1     -43.971 -52.405  15.150  1.00  0.00     0.007 C 
HETATM   14  C   UNL     1     -44.764 -53.685  14.912  1.00  0.00     0.000 C 
HETATM   15  C   UNL     1     -46.042 -53.471  14.106  1.00  0.00     0.000 C 
HETATM   16  C   UNL     1     -45.889 -52.552  12.898  1.00  0.00     0.000 C 
HETATM   17  C   UNL     1     -45.117 -51.279  13.226  1.00  0.00     0.007 C 
ENDBRANCH   7  12
ENDBRANCH   4   7
BRANCH   1  18
HETATM   18  C   UNL     1     -41.436 -47.829  10.711  1.00  0.00     0.127 A 
HETATM   19  C   UNL     1     -40.316 -47.138  11.111  1.00  0.00     0.076 A 
HETATM   20  C   UNL     1     -40.568 -45.786  10.805  1.00  0.00     0.025 A 
HETATM   21  C   UNL     1     -39.674 -44.630  11.046  1.00  0.00     0.070 C 
HETATM   22  N   UNL     1     -41.772 -45.625  10.244  1.00  0.00    -0.302 N 
HETATM   23  N   UNL     1     -42.279 -46.873  10.188  1.00  0.00    -0.281 N 
ATOM     24  HN  UNL     1     -42.207 -44.757   9.932  1.00  0.00     0.186 HD
HETATM   25  C   UNL     1     -43.564 -47.054   9.558  1.00  0.00     0.179 C 
ENDBRANCH   1  18
TORSDOF 6
ENDMDL
MODEL 8
REMARK VINA RESULT:      -5.4      2.107      3.337
REMARK  6 active torsions:
REMARK  status: ('A' for Active; 'I' for Inactive)
REMARK    1  A    between atoms: C_4  and  N_5 
REMARK       I    between atoms: N_5  and  C_6 
REMARK       I    between atoms: C_6  and  N_8 
REMARK    2  A    between atoms: N_8  and  C_9 
REMARK    3  A    between atoms: C_9  and  C_10 
REMARK    4  A    between atoms: C_9  and  C_13 
REMARK    5  A    between atoms: C_10  and  C_11 
REMARK    6  A    between atoms: C_11  and  O_12 
ROOT
HETATM    1  N   UNL     1     -42.538 -49.406  13.267  1.00  0.00    -0.293 N 
HETATM    2  C   UNL     1     -42.244 -50.655  12.649  1.00  0.00     0.322 C 
HETATM    3  O   UNL     1     -41.446 -50.778  11.743  1.00  0.00    -0.247 OA
HETATM    4  N   UNL     1     -43.039 -51.619  13.178  1.00  0.00    -0.338 N 
HETATM    5  H   UNL     1     -43.348 -49.341  13.859  1.00  0.00     0.172 HD
HETATM    6  H   UNL     1     -43.499 -51.449  14.056  1.00  0.00     0.164 HD
ENDROOT
BRANCH   4   7
HETATM    7  C   UNL     1     -43.078 -52.982  12.653  1.00  0.00     0.092 C 
BRANCH   7   8
HETATM    8  C   UNL     1     -42.153 -53.839  13.537  1.00  0.00     0.051 C 
BRANCH   8   9
HETATM    9  C   UNL     1     -40.782 -54.117  12.941  1.00  0.00     0.166 C 
BRANCH   9  10
HETATM   10  O   UNL     1     -40.708 -53.515  11.655  1.00  0.00    -0.401 OA
HETATM   11  H   UNL     1     -41.552 -53.065  11.482  1.00  0.00     0.209 HD
ENDBRANCH   9  10
ENDBRANCH   8   9
ENDBRANCH   7   8
BRANCH   7  12
HETATM   12  C   UNL     1     -44.531 -53.541  12.513  1.00  0.00     0.008 C 
HETATM   13  C   UNL     1     -45.626 -52.460  12.437  1.00  0.00     0.007 C 
HETATM   14  C   UNL     1     -46.008 -51.843  13.779  1.00  0.00     0.000 C 
HETATM   15  C   UNL     1     -46.258 -52.874  14.876  1.00  0.00     0.000 C 
HETATM   16  C   UNL     1     -45.238 -54.007  14.933  1.00  0.00     0.000 C 
HETATM   17  C   UNL     1     -44.938 -54.593  13.559  1.00  0.00     0.007 C 
ENDBRANCH   7  12
ENDBRANCH   4   7
BRANCH   1  18
HETATM   18  C   UNL     1     -41.804 -48.249  13.022  1.00  0.00     0.127 A 
HETATM   19  C   UNL     1     -40.784 -47.736  13.789  1.00  0.00     0.076 A 
HETATM   20  C   UNL     1     -40.389 -46.542  13.155  1.00  0.00     0.025 A 
HETATM   21  C   UNL     1     -39.327 -45.604  13.590  1.00  0.00     0.070 C 
HETATM   22  N   UNL     1     -41.109 -46.308  12.053  1.00  0.00    -0.302 N 
HETATM   23  N   UNL     1     -41.956 -47.356  11.984  1.00  0.00    -0.281 N 
ATOM     24  HN  UNL     1     -41.036 -45.519  11.412  1.00  0.00     0.186 HD
HETATM   25  C   UNL     1     -42.837 -47.441  10.845  1.00  0.00     0.179 C 
ENDBRANCH   1  18
TORSDOF 6
ENDMDL
MODEL 9
REMARK VINA RESULT:      -5.4      1.959      3.328
REMARK  6 active torsions:
REMARK  status: ('A' for Active; 'I' for Inactive)
REMARK    1  A    between atoms: C_4  and  N_5 
REMARK       I    between atoms: N_5  and  C_6 
REMARK       I    between atoms: C_6  and  N_8 
REMARK    2  A    between atoms: N_8  and  C_9 
REMARK    3  A    between atoms: C_9  and  C_10 
REMARK    4  A    between atoms: C_9  and  C_13 
REMARK    5  A    between atoms: C_10  and  C_11 
REMARK    6  A    between atoms: C_11  and  O_12 
ROOT
HETATM    1  N   UNL     1     -40.963 -49.168  13.025  1.00  0.00    -0.293 N 
HETATM    2  C   UNL     1     -42.179 -49.880  12.819  1.00  0.00     0.322 C 
HETATM    3  O   UNL     1     -43.189 -49.364  12.386  1.00  0.00    -0.247 OA
HETATM    4  N   UNL     1     -42.031 -51.160  13.247  1.00  0.00    -0.338 N 
HETATM    5  H   UNL     1     -40.239 -49.599  13.573  1.00  0.00     0.172 HD
HETATM    6  H   UNL     1     -41.105 -51.528  13.382  1.00  0.00     0.164 HD
ENDROOT
BRANCH   4   7
HETATM    7  C   UNL     1     -43.143 -52.105  13.301  1.00  0.00     0.092 C 
BRANCH   7   8
HETATM    8  C   UNL     1     -42.605 -53.471  12.840  1.00  0.00     0.051 C 
BRANCH   8   9
HETATM    9  C   UNL     1     -41.088 -53.578  12.803  1.00  0.00     0.166 C 
BRANCH   9  10
HETATM   10  O   UNL     1     -40.638 -53.287  11.486  1.00  0.00    -0.401 OA
HETATM   11  H   UNL     1     -39.712 -52.994  11.540  1.00  0.00     0.209 HD
ENDBRANCH   9  10
ENDBRANCH   8   9
ENDBRANCH   7   8
BRANCH   7  12
HETATM   12  C   UNL     1     -43.855 -52.131  14.693  1.00  0.00     0.008 C 
HETATM   13  C   UNL     1     -44.373 -53.519  15.118  1.00  0.00     0.007 C 
HETATM   14  C   UNL     1     -45.680 -53.942  14.457  1.00  0.00     0.000 C 
HETATM   15  C   UNL     1     -46.759 -52.864  14.490  1.00  0.00     0.000 C 
HETATM   16  C   UNL     1     -46.269 -51.459  14.152  1.00  0.00     0.000 C 
HETATM   17  C   UNL     1     -44.980 -51.099  14.879  1.00  0.00     0.007 C 
ENDBRANCH   7  12
ENDBRANCH   4   7
BRANCH   1  18
HETATM   18  C   UNL     1     -40.764 -47.865  12.576  1.00  0.00     0.127 A 
HETATM   19  C   UNL     1     -40.229 -47.477  11.370  1.00  0.00     0.076 A 
HETATM   20  C   UNL     1     -40.198 -46.069  11.398  1.00  0.00     0.025 A 
HETATM   21  C   UNL     1     -39.702 -45.161  10.337  1.00  0.00     0.070 C 
HETATM   22  N   UNL     1     -40.684 -45.589  12.548  1.00  0.00    -0.302 N 
HETATM   23  N   UNL     1     -41.029 -46.690  13.245  1.00  0.00    -0.281 N 
ATOM     24  HN  UNL     1     -40.772 -44.614  12.832  1.00  0.00     0.186 HD
HETATM   25  C   UNL     1     -41.662 -46.508  14.528  1.00  0.00     0.179 C 
ENDBRANCH   1  18
TORSDOF 6
ENDMDL
