MODEL 1
REMARK VINA RESULT:      -5.2      0.000      0.000
REMARK  4 active torsions:
REMARK  status: ('A' for Active; 'I' for Inactive)
REMARK    1  A    between atoms: C_7  and  C_8 
REMARK    2  A    between atoms: C_8  and  C_9 
REMARK    3  A    between atoms: C_9  and  N_10 
REMARK       I    between atoms: N_10  and  C_11 
REMARK    4  A    between atoms: C_11  and  C_13 
ROOT
HETATM    1  C   UNL     1     -42.201 -54.269  13.670  1.00  0.00     0.128 C 
ENDROOT
BRANCH   1   2
HETATM    2  C   UNL     1     -40.785 -53.691  13.771  1.00  0.00     0.078 C 
BRANCH   2   3
HETATM    3  C   UNL     1     -40.550 -52.498  12.895  1.00  0.00     0.029 A 
HETATM    4  N   UNL     1     -39.705 -51.449  13.173  1.00  0.00    -0.350 N 
HETATM    5  C   UNL     1     -38.875 -51.270  14.338  1.00  0.00     0.156 C 
HETATM    6  C   UNL     1     -39.800 -50.554  12.144  1.00  0.00     0.182 A 
HETATM    7  N   UNL     1     -40.646 -50.961  11.226  1.00  0.00    -0.360 N 
HETATM    8  C   UNL     1     -41.134 -52.151  11.690  1.00  0.00     0.114 A 
ATOM      9  HN  UNL     1     -40.887 -50.490  10.353  1.00  0.00     0.166 HD
ENDBRANCH   2   3
ENDBRANCH   1   2
BRANCH   1  10
HETATM   10  N   UNL     1     -43.236 -53.356  14.117  1.00  0.00    -0.360 N 
HETATM   11  C   UNL     1     -44.304 -53.018  13.310  1.00  0.00     0.222 C 
HETATM   12  O   UNL     1     -44.532 -53.523  12.220  1.00  0.00    -0.273 OA
HETATM   13  H   UNL     1     -43.020 -52.730  14.881  1.00  0.00     0.162 HD
BRANCH  11  14
HETATM   14  C   UNL     1     -45.147 -51.945  13.901  1.00  0.00     0.086 A 
HETATM   15  C   UNL     1     -46.443 -51.562  13.222  1.00  0.00     0.024 A 
HETATM   16  C   UNL     1     -46.479 -52.134  14.620  1.00  0.00    -0.035 A 
HETATM   17  C   UNL     1     -47.135 -53.480  14.783  1.00  0.00     0.015 C 
HETATM   18  C   UNL     1     -46.743 -51.196  15.773  1.00  0.00     0.015 C 
ENDBRANCH  11  14
ENDBRANCH   1  10
TORSDOF 4
ENDMDL
MODEL 2
REMARK VINA RESULT:      -5.2      1.785      2.415
REMARK  4 active torsions:
REMARK  status: ('A' for Active; 'I' for Inactive)
REMARK    1  A    between atoms: C_7  and  C_8 
REMARK    2  A    between atoms: C_8  and  C_9 
REMARK    3  A    between atoms: C_9  and  N_10 
REMARK       I    between atoms: N_10  and  C_11 
REMARK    4  A    between atoms: C_11  and  C_13 
ROOT
HETATM    1  C   UNL     1     -43.140 -55.048  15.156  1.00  0.00     0.128 C 
ENDROOT
BRANCH   1   2
HETATM    2  C   UNL     1     -41.775 -54.350  15.208  1.00  0.00     0.078 C 
BRANCH   2   3
HETATM    3  C   UNL     1     -41.379 -53.692  13.922  1.00  0.00     0.029 A 
HETATM    4  N   UNL     1     -41.216 -52.340  13.726  1.00  0.00    -0.350 N 
HETATM    5  C   UNL     1     -41.383 -51.282  14.692  1.00  0.00     0.156 C 
HETATM    6  C   UNL     1     -40.884 -52.147  12.415  1.00  0.00     0.182 A 
HETATM    7  N   UNL     1     -40.821 -53.283  11.759  1.00  0.00    -0.360 N 
HETATM    8  C   UNL     1     -41.147 -54.244  12.676  1.00  0.00     0.114 A 
ATOM      9  HN  UNL     1     -40.580 -53.419  10.776  1.00  0.00     0.166 HD
ENDBRANCH   2   3
ENDBRANCH   1   2
BRANCH   1  10
HETATM   10  N   UNL     1     -44.168 -54.269  14.494  1.00  0.00    -0.360 N 
HETATM   11  C   UNL     1     -44.986 -53.404  15.191  1.00  0.00     0.222 C 
HETATM   12  O   UNL     1     -44.856 -53.137  16.377  1.00  0.00    -0.273 OA
HETATM   13  H   UNL     1     -44.495 -54.584  13.590  1.00  0.00     0.162 HD
BRANCH  11  14
HETATM   14  C   UNL     1     -46.072 -52.841  14.346  1.00  0.00     0.086 A 
HETATM   15  C   UNL     1     -46.711 -51.526  14.738  1.00  0.00     0.024 A 
HETATM   16  C   UNL     1     -45.967 -51.627  13.428  1.00  0.00    -0.035 A 
HETATM   17  C   UNL     1     -44.709 -50.808  13.299  1.00  0.00     0.015 C 
HETATM   18  C   UNL     1     -46.768 -51.698  12.150  1.00  0.00     0.015 C 
ENDBRANCH  11  14
ENDBRANCH   1  10
TORSDOF 4
ENDMDL
MODEL 3
REMARK VINA RESULT:      -5.1      1.656      2.304
REMARK  4 active torsions:
REMARK  status: ('A' for Active; 'I' for Inactive)
REMARK    1  A    between atoms: C_7  and  C_8 
REMARK    2  A    between atoms: C_8  and  C_9 
REMARK    3  A    between atoms: C_9  and  N_10 
REMARK       I    between atoms: N_10  and  C_11 
REMARK    4  A    between atoms: C_11  and  C_13 
ROOT
HETATM    1  C   UNL     1     -41.123 -52.665  11.828  1.00  0.00     0.128 C 
ENDROOT
BRANCH   1   2
HETATM    2  C   UNL     1     -40.408 -51.883  12.937  1.00  0.00     0.078 C 
BRANCH   2   3
HETATM    3  C   UNL     1     -39.657 -50.683  12.447  1.00  0.00     0.029 A 
HETATM    4  N   UNL     1     -38.508 -50.170  13.003  1.00  0.00    -0.350 N 
HETATM    5  C   UNL     1     -37.786 -50.664  14.149  1.00  0.00     0.156 C 
HETATM    6  C   UNL     1     -38.159 -49.060  12.287  1.00  0.00     0.182 A 
HETATM    7  N   UNL     1     -39.005 -48.829  11.309  1.00  0.00    -0.360 N 
HETATM    8  C   UNL     1     -39.949 -49.813  11.412  1.00  0.00     0.114 A 
ATOM      9  HN  UNL     1     -38.966 -48.076  10.621  1.00  0.00     0.166 HD
ENDBRANCH   2   3
ENDBRANCH   1   2
BRANCH   1  10
HETATM   10  N   UNL     1     -42.568 -52.553  11.876  1.00  0.00    -0.360 N 
HETATM   11  C   UNL     1     -43.333 -53.361  12.692  1.00  0.00     0.222 C 
HETATM   12  O   UNL     1     -42.875 -54.147  13.509  1.00  0.00    -0.273 OA
HETATM   13  H   UNL     1     -43.037 -52.113  11.095  1.00  0.00     0.162 HD
BRANCH  11  14
HETATM   14  C   UNL     1     -44.792 -53.192  12.457  1.00  0.00     0.086 A 
HETATM   15  C   UNL     1     -45.770 -53.617  13.529  1.00  0.00     0.024 A 
HETATM   16  C   UNL     1     -45.702 -52.164  13.122  1.00  0.00    -0.035 A 
HETATM   17  C   UNL     1     -45.212 -51.192  14.162  1.00  0.00     0.015 C 
HETATM   18  C   UNL     1     -46.808 -51.608  12.257  1.00  0.00     0.015 C 
ENDBRANCH  11  14
ENDBRANCH   1  10
TORSDOF 4
ENDMDL
MODEL 4
REMARK VINA RESULT:      -4.9      3.961      5.557
REMARK  4 active torsions:
REMARK  status: ('A' for Active; 'I' for Inactive)
REMARK    1  A    between atoms: C_7  and  C_8 
REMARK    2  A    between atoms: C_8  and  C_9 
REMARK    3  A    between atoms: C_9  and  N_10 
REMARK       I    between atoms: N_10  and  C_11 
REMARK    4  A    between atoms: C_11  and  C_13 
ROOT
HETATM    1  C   UNL     1     -41.376 -50.178  12.126  1.00  0.00     0.128 C 
ENDROOT
BRANCH   1   2
HETATM    2  C   UNL     1     -41.290 -51.628  11.633  1.00  0.00     0.078 C 
BRANCH   2   3
HETATM    3  C   UNL     1     -42.043 -52.606  12.482  1.00  0.00     0.029 A 
HETATM    4  N   UNL     1     -41.487 -53.486  13.382  1.00  0.00    -0.350 N 
HETATM    5  C   UNL     1     -40.092 -53.657  13.701  1.00  0.00     0.156 C 
HETATM    6  C   UNL     1     -42.503 -54.221  13.926  1.00  0.00     0.182 A 
HETATM    7  N   UNL     1     -43.671 -53.869  13.438  1.00  0.00    -0.360 N 
HETATM    8  C   UNL     1     -43.396 -52.886  12.527  1.00  0.00     0.114 A 
ATOM      9  HN  UNL     1     -44.585 -54.248  13.686  1.00  0.00     0.166 HD
ENDBRANCH   2   3
ENDBRANCH   1   2
BRANCH   1  10
HETATM   10  N   UNL     1     -42.481 -49.433  11.553  1.00  0.00    -0.360 N 
HETATM   11  C   UNL     1     -42.279 -48.264  10.848  1.00  0.00     0.222 C 
HETATM   12  O   UNL     1     -41.181 -47.817  10.553  1.00  0.00    -0.273 OA
HETATM   13  H   UNL     1     -43.406 -49.590  11.929  1.00  0.00     0.162 HD
BRANCH  11  14
HETATM   14  C   UNL     1     -43.555 -47.582  10.499  1.00  0.00     0.086 A 
HETATM   15  C   UNL     1     -43.511 -46.240   9.802  1.00  0.00     0.024 A 
HETATM   16  C   UNL     1     -44.141 -47.421   9.100  1.00  0.00    -0.035 A 
HETATM   17  C   UNL     1     -43.445 -47.921   7.861  1.00  0.00     0.015 C 
HETATM   18  C   UNL     1     -45.646 -47.481   9.007  1.00  0.00     0.015 C 
ENDBRANCH  11  14
ENDBRANCH   1  10
TORSDOF 4
ENDMDL
MODEL 5
REMARK VINA RESULT:      -4.9      2.168      3.027
REMARK  4 active torsions:
REMARK  status: ('A' for Active; 'I' for Inactive)
REMARK    1  A    between atoms: C_7  and  C_8 
REMARK    2  A    between atoms: C_8  and  C_9 
REMARK    3  A    between atoms: C_9  and  N_10 
REMARK       I    between atoms: N_10  and  C_11 
REMARK    4  A    between atoms: C_11  and  C_13 
ROOT
HETATM    1  C   UNL     1     -42.976 -54.059  15.804  1.00  0.00     0.128 C 
ENDROOT
BRANCH   1   2
HETATM    2  C   UNL     1     -43.298 -54.376  14.339  1.00  0.00     0.078 C 
BRANCH   2   3
HETATM    3  C   UNL     1     -42.380 -53.716  13.357  1.00  0.00     0.029 A 
HETATM    4  N   UNL     1     -42.527 -52.449  12.842  1.00  0.00    -0.350 N 
HETATM    5  C   UNL     1     -43.570 -51.497  13.128  1.00  0.00     0.156 C 
HETATM    6  C   UNL     1     -41.504 -52.237  11.960  1.00  0.00     0.182 A 
HETATM    7  N   UNL     1     -40.711 -53.280  11.879  1.00  0.00    -0.360 N 
HETATM    8  C   UNL     1     -41.255 -54.211  12.721  1.00  0.00     0.114 A 
ATOM      9  HN  UNL     1     -39.870 -53.376  11.309  1.00  0.00     0.166 HD
ENDBRANCH   2   3
ENDBRANCH   1   2
BRANCH   1  10
HETATM   10  N   UNL     1     -43.882 -53.099  16.405  1.00  0.00    -0.360 N 
HETATM   11  C   UNL     1     -45.147 -53.457  16.823  1.00  0.00     0.222 C 
HETATM   12  O   UNL     1     -45.573 -54.602  16.828  1.00  0.00    -0.273 OA
HETATM   13  H   UNL     1     -43.714 -52.116  16.235  1.00  0.00     0.162 HD
BRANCH  11  14
HETATM   14  C   UNL     1     -45.959 -52.286  17.250  1.00  0.00     0.086 A 
HETATM   15  C   UNL     1     -45.499 -50.892  16.882  1.00  0.00     0.024 A 
HETATM   16  C   UNL     1     -46.817 -51.403  16.349  1.00  0.00    -0.035 A 
HETATM   17  C   UNL     1     -46.911 -51.605  14.859  1.00  0.00     0.015 C 
HETATM   18  C   UNL     1     -48.093 -50.880  16.963  1.00  0.00     0.015 C 
ENDBRANCH  11  14
ENDBRANCH   1  10
TORSDOF 4
ENDMDL
MODEL 6
REMARK VINA RESULT:      -4.9      1.225      1.373
REMARK  4 active torsions:
REMARK  status: ('A' for Active; 'I' for Inactive)
REMARK    1  A    between atoms: C_7  and  C_8 
REMARK    2  A    between atoms: C_8  and  C_9 
REMARK    3  A    between atoms: C_9  and  N_10 
REMARK       I    between atoms: N_10  and  C_11 
REMARK    4  A    between atoms: C_11  and  C_13 
ROOT
HETATM    1  C   UNL     1     -41.615 -52.465  14.249  1.00  0.00     0.128 C 
ENDROOT
BRANCH   1   2
HETATM    2  C   UNL     1     -40.559 -51.355  14.319  1.00  0.00     0.078 C 
BRANCH   2   3
HETATM    3  C   UNL     1     -40.226 -50.747  12.991  1.00  0.00     0.029 A 
HETATM    4  N   UNL     1     -39.194 -49.872  12.742  1.00  0.00    -0.350 N 
HETATM    5  C   UNL     1     -38.225 -49.362  13.680  1.00  0.00     0.156 C 
HETATM    6  C   UNL     1     -39.250 -49.528  11.421  1.00  0.00     0.182 A 
HETATM    7  N   UNL     1     -40.246 -50.125  10.807  1.00  0.00    -0.360 N 
HETATM    8  C   UNL     1     -40.871 -50.864  11.774  1.00  0.00     0.114 A 
ATOM      9  HN  UNL     1     -40.499 -50.053   9.821  1.00  0.00     0.166 HD
ENDBRANCH   2   3
ENDBRANCH   1   2
BRANCH   1  10
HETATM   10  N   UNL     1     -42.960 -52.009  14.542  1.00  0.00    -0.360 N 
HETATM   11  C   UNL     1     -43.978 -52.110  13.617  1.00  0.00     0.222 C 
HETATM   12  O   UNL     1     -43.876 -52.674  12.537  1.00  0.00    -0.273 OA
HETATM   13  H   UNL     1     -43.083 -51.341  15.291  1.00  0.00     0.162 HD
BRANCH  11  14
HETATM   14  C   UNL     1     -45.224 -51.431  14.064  1.00  0.00     0.086 A 
HETATM   15  C   UNL     1     -46.469 -51.528  13.210  1.00  0.00     0.024 A 
HETATM   16  C   UNL     1     -46.479 -52.108  14.605  1.00  0.00    -0.035 A 
HETATM   17  C   UNL     1     -46.616 -53.604  14.715  1.00  0.00     0.015 C 
HETATM   18  C   UNL     1     -47.216 -51.359  15.689  1.00  0.00     0.015 C 
ENDBRANCH  11  14
ENDBRANCH   1  10
TORSDOF 4
ENDMDL
MODEL 7
REMARK VINA RESULT:      -4.9      0.900      1.610
REMARK  4 active torsions:
REMARK  status: ('A' for Active; 'I' for Inactive)
REMARK    1  A    between atoms: C_7  and  C_8 
REMARK    2  A    between atoms: C_8  and  C_9 
REMARK    3  A    between atoms: C_9  and  N_10 
REMARK       I    between atoms: N_10  and  C_11 
REMARK    4  A    between atoms: C_11  and  C_13 
ROOT
HETATM    1  C   UNL     1     -42.042 -54.164  13.472  1.00  0.00     0.128 C 
ENDROOT
BRANCH   1   2
HETATM    2  C   UNL     1     -40.995 -53.495  12.573  1.00  0.00     0.078 C 
BRANCH   2   3
HETATM    3  C   UNL     1     -40.275 -52.354  13.224  1.00  0.00     0.029 A 
HETATM    4  N   UNL     1     -40.532 -51.018  13.021  1.00  0.00    -0.350 N 
HETATM    5  C   UNL     1     -41.531 -50.433  12.161  1.00  0.00     0.156 C 
HETATM    6  C   UNL     1     -39.640 -50.304  13.771  1.00  0.00     0.182 A 
HETATM    7  N   UNL     1     -38.831 -51.091  14.442  1.00  0.00    -0.360 N 
HETATM    8  C   UNL     1     -39.199 -52.362  14.094  1.00  0.00     0.114 A 
ATOM      9  HN  UNL     1     -38.088 -50.815  15.084  1.00  0.00     0.166 HD
ENDBRANCH   2   3
ENDBRANCH   1   2
BRANCH   1  10
HETATM   10  N   UNL     1     -43.092 -53.266  13.912  1.00  0.00    -0.360 N 
HETATM   11  C   UNL     1     -44.216 -53.034  13.146  1.00  0.00     0.222 C 
HETATM   12  O   UNL     1     -44.480 -53.625  12.109  1.00  0.00    -0.273 OA
HETATM   13  H   UNL     1     -42.865 -52.578  14.617  1.00  0.00     0.162 HD
BRANCH  11  14
HETATM   14  C   UNL     1     -45.075 -51.957  13.708  1.00  0.00     0.086 A 
HETATM   15  C   UNL     1     -46.393 -51.633  13.038  1.00  0.00     0.024 A 
HETATM   16  C   UNL     1     -46.390 -52.147  14.458  1.00  0.00    -0.035 A 
HETATM   17  C   UNL     1     -47.009 -53.501  14.690  1.00  0.00     0.015 C 
HETATM   18  C   UNL     1     -46.656 -51.168  15.576  1.00  0.00     0.015 C 
ENDBRANCH  11  14
ENDBRANCH   1  10
TORSDOF 4
ENDMDL
MODEL 8
REMARK VINA RESULT:      -4.9      4.136      5.763
REMARK  4 active torsions:
REMARK  status: ('A' for Active; 'I' for Inactive)
REMARK    1  A    between atoms: C_7  and  C_8 
REMARK    2  A    between atoms: C_8  and  C_9 
REMARK    3  A    between atoms: C_9  and  N_10 
REMARK       I    between atoms: N_10  and  C_11 
REMARK    4  A    between atoms: C_11  and  C_13 
ROOT
HETATM    1  C   UNL     1     -42.000 -49.003  11.530  1.00  0.00     0.128 C 
ENDROOT
BRANCH   1   2
HETATM    2  C   UNL     1     -43.164 -48.030  11.749  1.00  0.00     0.078 C 
BRANCH   2   3
HETATM    3  C   UNL     1     -43.617 -47.331  10.504  1.00  0.00     0.029 A 
HETATM    4  N   UNL     1     -42.997 -46.255   9.913  1.00  0.00    -0.350 N 
HETATM    5  C   UNL     1     -41.801 -45.577  10.349  1.00  0.00     0.156 C 
HETATM    6  C   UNL     1     -43.737 -45.896   8.821  1.00  0.00     0.182 A 
HETATM    7  N   UNL     1     -44.786 -46.672   8.671  1.00  0.00    -0.360 N 
HETATM    8  C   UNL     1     -44.735 -47.549   9.720  1.00  0.00     0.114 A 
ATOM      9  HN  UNL     1     -45.488 -46.629   7.932  1.00  0.00     0.166 HD
ENDBRANCH   2   3
ENDBRANCH   1   2
BRANCH   1  10
HETATM   10  N   UNL     1     -42.297 -50.366  11.929  1.00  0.00    -0.360 N 
HETATM   11  C   UNL     1     -41.301 -51.303  12.108  1.00  0.00     0.222 C 
HETATM   12  O   UNL     1     -40.104 -51.057  12.056  1.00  0.00    -0.273 OA
HETATM   13  H   UNL     1     -43.234 -50.713  11.773  1.00  0.00     0.162 HD
BRANCH  11  14
HETATM   14  C   UNL     1     -41.840 -52.668  12.349  1.00  0.00     0.086 A 
HETATM   15  C   UNL     1     -40.901 -53.768  12.796  1.00  0.00     0.024 A 
HETATM   16  C   UNL     1     -42.028 -53.339  13.706  1.00  0.00    -0.035 A 
HETATM   17  C   UNL     1     -41.636 -52.681  15.004  1.00  0.00     0.015 C 
HETATM   18  C   UNL     1     -43.232 -54.241  13.833  1.00  0.00     0.015 C 
ENDBRANCH  11  14
ENDBRANCH   1  10
TORSDOF 4
ENDMDL
MODEL 9
REMARK VINA RESULT:      -4.9      3.301      5.167
REMARK  4 active torsions:
REMARK  status: ('A' for Active; 'I' for Inactive)
REMARK    1  A    between atoms: C_7  and  C_8 
REMARK    2  A    between atoms: C_8  and  C_9 
REMARK    3  A    between atoms: C_9  and  N_10 
REMARK       I    between atoms: N_10  and  C_11 
REMARK    4  A    between atoms: C_11  and  C_13 
ROOT
HETATM    1  C   UNL     1     -40.229 -49.863  11.110  1.00  0.00     0.128 C 
ENDROOT
BRANCH   1   2
HETATM    2  C   UNL     1     -40.460 -48.652  12.021  1.00  0.00     0.078 C 
BRANCH   2   3
HETATM    3  C   UNL     1     -40.814 -47.395  11.286  1.00  0.00     0.029 A 
HETATM    4  N   UNL     1     -42.075 -47.033  10.870  1.00  0.00    -0.350 N 
HETATM    5  C   UNL     1     -43.305 -47.763  11.047  1.00  0.00     0.156 C 
HETATM    6  C   UNL     1     -41.970 -45.840  10.212  1.00  0.00     0.182 A 
HETATM    7  N   UNL     1     -40.728 -45.412  10.182  1.00  0.00    -0.360 N 
HETATM    8  C   UNL     1     -40.001 -46.377  10.823  1.00  0.00     0.114 A 
ATOM      9  HN  UNL     1     -40.381 -44.546   9.769  1.00  0.00     0.166 HD
ENDBRANCH   2   3
ENDBRANCH   1   2
BRANCH   1  10
HETATM   10  N   UNL     1     -41.080 -50.996  11.419  1.00  0.00    -0.360 N 
HETATM   11  C   UNL     1     -40.656 -52.020  12.240  1.00  0.00     0.222 C 
HETATM   12  O   UNL     1     -39.598 -52.019  12.854  1.00  0.00    -0.273 OA
HETATM   13  H   UNL     1     -41.852 -51.194  10.797  1.00  0.00     0.162 HD
BRANCH  11  14
HETATM   14  C   UNL     1     -41.619 -53.152  12.284  1.00  0.00     0.086 A 
HETATM   15  C   UNL     1     -41.458 -54.223  13.340  1.00  0.00     0.024 A 
HETATM   16  C   UNL     1     -42.707 -53.374  13.330  1.00  0.00    -0.035 A 
HETATM   17  C   UNL     1     -42.910 -52.454  14.505  1.00  0.00     0.015 C 
HETATM   18  C   UNL     1     -43.989 -53.990  12.824  1.00  0.00     0.015 C 
ENDBRANCH  11  14
ENDBRANCH   1  10
TORSDOF 4
ENDMDL
