MODEL 1
REMARK VINA RESULT:      -6.5      0.000      0.000
REMARK  6 active torsions:
REMARK  status: ('A' for Active; 'I' for Inactive)
REMARK    1  A    between atoms: O_2  and  C_3 
REMARK    2  A    between atoms: C_3  and  C_4 
REMARK    3  A    between atoms: C_4  and  N_5 
REMARK    4  A    between atoms: C_6  and  C_19 
REMARK    5  A    between atoms: C_11  and  S_15 
REMARK    6  A    between atoms: S_15  and  N_18 
ROOT
HETATM    1  N   UNL     1     -41.668 -46.760  11.624  1.00  0.00    -0.329 N 
HETATM    2  C   UNL     1     -42.440 -47.476  10.718  1.00  0.00     0.119 A 
HETATM    3  N   UNL     1     -41.969 -48.712  10.625  1.00  0.00    -0.340 N 
ATOM      4  HN  UNL     1     -42.342 -49.458  10.039  1.00  0.00     0.167 HD
HETATM    5  C   UNL     1     -40.891 -48.801  11.461  1.00  0.00     0.062 A 
HETATM    6  C   UNL     1     -40.065 -49.899  11.740  1.00  0.00     0.056 A 
HETATM    7  C   UNL     1     -39.014 -49.716  12.648  1.00  0.00     0.076 A 
HETATM    8  C   UNL     1     -38.794 -48.488  13.279  1.00  0.00     0.027 A 
HETATM    9  C   UNL     1     -39.616 -47.394  13.007  1.00  0.00     0.033 A 
HETATM   10  C   UNL     1     -40.661 -47.586  12.092  1.00  0.00     0.063 A 
ENDROOT
BRANCH   2  11
HETATM   11  C   UNL     1     -43.670 -47.042  10.027  1.00  0.00     0.011 A 
HETATM   12  C   UNL     1     -43.838 -45.787   9.424  1.00  0.00     0.015 A 
HETATM   13  C   UNL     1     -45.053 -45.423   8.827  1.00  0.00     0.004 A 
HETATM   14  C   UNL     1     -46.109 -46.327   8.789  1.00  0.00     0.042 A 
HETATM   15  C   UNL     1     -45.938 -47.588   9.341  1.00  0.00     0.117 A 
HETATM   16  F   UNL     1     -46.945 -48.471   9.285  1.00  0.00    -0.206 F 
HETATM   17  C   UNL     1     -44.741 -47.949   9.952  1.00  0.00     0.057 A 
ENDBRANCH   2  11
BRANCH   1  18
HETATM   18  C   UNL     1     -41.897 -45.428  12.142  1.00  0.00     0.157 C 
BRANCH  18  19
HETATM   19  C   UNL     1     -40.810 -44.439  11.747  1.00  0.00     0.187 C 
BRANCH  19  20
HETATM   20  O   UNL     1     -40.697 -44.440  10.324  1.00  0.00    -0.394 OA
HETATM   21  C   UNL     1     -39.371 -44.748   9.913  1.00  0.00     0.201 C 
ENDBRANCH  19  20
ENDBRANCH  18  19
ENDBRANCH   1  18
BRANCH   7  22
HETATM   22  S   UNL     1     -37.946 -51.070  13.021  1.00  0.00     0.239 S 
HETATM   23  O   UNL     1     -36.921 -50.628  13.937  1.00  0.00    -0.206 OA
HETATM   24  O   UNL     1     -38.732 -52.258  13.254  1.00  0.00    -0.206 OA
BRANCH  22  25
HETATM   25  N   UNL     1     -37.182 -51.294  11.545  1.00  0.00    -0.225 NA
HETATM   26  H   UNL     1     -37.818 -51.067  10.781  1.00  0.00     0.136 HD
HETATM   27  H   UNL     1     -36.300 -50.783  11.526  1.00  0.00     0.136 HD
ENDBRANCH  22  25
ENDBRANCH   7  22
TORSDOF 6
ENDMDL
MODEL 2
REMARK VINA RESULT:      -6.5      4.406      7.103
REMARK  6 active torsions:
REMARK  status: ('A' for Active; 'I' for Inactive)
REMARK    1  A    between atoms: O_2  and  C_3 
REMARK    2  A    between atoms: C_3  and  C_4 
REMARK    3  A    between atoms: C_4  and  N_5 
REMARK    4  A    between atoms: C_6  and  C_19 
REMARK    5  A    between atoms: C_11  and  S_15 
REMARK    6  A    between atoms: S_15  and  N_18 
ROOT
HETATM    1  N   UNL     1     -41.552 -51.071  12.467  1.00  0.00    -0.329 N 
HETATM    2  C   UNL     1     -42.876 -51.266  12.840  1.00  0.00     0.119 A 
HETATM    3  N   UNL     1     -43.567 -50.163  12.586  1.00  0.00    -0.340 N 
ATOM      4  HN  UNL     1     -44.562 -50.022  12.755  1.00  0.00     0.167 HD
HETATM    5  C   UNL     1     -42.697 -49.251  12.056  1.00  0.00     0.062 A 
HETATM    6  C   UNL     1     -42.939 -47.947  11.602  1.00  0.00     0.056 A 
HETATM    7  C   UNL     1     -41.855 -47.216  11.100  1.00  0.00     0.076 A 
HETATM    8  C   UNL     1     -40.570 -47.762  11.030  1.00  0.00     0.027 A 
HETATM    9  C   UNL     1     -40.326 -49.061  11.477  1.00  0.00     0.033 A 
HETATM   10  C   UNL     1     -41.417 -49.782  11.984  1.00  0.00     0.063 A 
ENDROOT
BRANCH   2  11
HETATM   11  C   UNL     1     -43.512 -52.505  13.328  1.00  0.00     0.011 A 
HETATM   12  C   UNL     1     -44.204 -53.414  12.513  1.00  0.00     0.015 A 
HETATM   13  C   UNL     1     -44.827 -54.547  13.053  1.00  0.00     0.004 A 
HETATM   14  C   UNL     1     -44.732 -54.812  14.416  1.00  0.00     0.042 A 
HETATM   15  C   UNL     1     -44.010 -53.946  15.223  1.00  0.00     0.117 A 
HETATM   16  F   UNL     1     -43.896 -54.210  16.531  1.00  0.00    -0.206 F 
HETATM   17  C   UNL     1     -43.406 -52.808  14.696  1.00  0.00     0.057 A 
ENDBRANCH   2  11
BRANCH   1  18
HETATM   18  C   UNL     1     -40.478 -52.041  12.430  1.00  0.00     0.157 C 
BRANCH  18  19
HETATM   19  C   UNL     1     -39.749 -52.175  13.759  1.00  0.00     0.187 C 
BRANCH  19  20
HETATM   20  O   UNL     1     -38.781 -53.217  13.638  1.00  0.00    -0.394 OA
HETATM   21  C   UNL     1     -39.329 -54.474  14.013  1.00  0.00     0.201 C 
ENDBRANCH  19  20
ENDBRANCH  18  19
ENDBRANCH   1  18
BRANCH   7  22
HETATM   22  S   UNL     1     -42.113 -45.567  10.525  1.00  0.00     0.239 S 
HETATM   23  O   UNL     1     -43.023 -45.592   9.404  1.00  0.00    -0.206 OA
HETATM   24  O   UNL     1     -42.297 -44.684  11.652  1.00  0.00    -0.206 OA
BRANCH  22  25
HETATM   25  N   UNL     1     -40.604 -45.208   9.888  1.00  0.00    -0.225 NA
HETATM   26  H   UNL     1     -40.530 -45.564   8.935  1.00  0.00     0.136 HD
HETATM   27  H   UNL     1     -40.412 -44.211   9.983  1.00  0.00     0.136 HD
ENDBRANCH  22  25
ENDBRANCH   7  22
TORSDOF 6
ENDMDL
MODEL 3
REMARK VINA RESULT:      -6.4      4.550      6.218
REMARK  6 active torsions:
REMARK  status: ('A' for Active; 'I' for Inactive)
REMARK    1  A    between atoms: O_2  and  C_3 
REMARK    2  A    between atoms: C_3  and  C_4 
REMARK    3  A    between atoms: C_4  and  N_5 
REMARK    4  A    between atoms: C_6  and  C_19 
REMARK    5  A    between atoms: C_11  and  S_15 
REMARK    6  A    between atoms: S_15  and  N_18 
ROOT
HETATM    1  N   UNL     1     -41.721 -51.053  12.236  1.00  0.00    -0.329 N 
HETATM    2  C   UNL     1     -42.354 -49.817  12.244  1.00  0.00     0.119 A 
HETATM    3  N   UNL     1     -43.545 -49.942  12.812  1.00  0.00    -0.340 N 
ATOM      4  HN  UNL     1     -44.226 -49.198  12.957  1.00  0.00     0.167 HD
HETATM    5  C   UNL     1     -43.692 -51.254  13.167  1.00  0.00     0.062 A 
HETATM    6  C   UNL     1     -44.758 -51.889  13.818  1.00  0.00     0.056 A 
HETATM    7  C   UNL     1     -44.652 -53.264  14.064  1.00  0.00     0.076 A 
HETATM    8  C   UNL     1     -43.516 -53.991  13.695  1.00  0.00     0.027 A 
HETATM    9  C   UNL     1     -42.451 -53.362  13.050  1.00  0.00     0.033 A 
HETATM   10  C   UNL     1     -42.570 -51.987  12.803  1.00  0.00     0.063 A 
ENDROOT
BRANCH   2  11
HETATM   11  C   UNL     1     -41.809 -48.512  11.823  1.00  0.00     0.011 A 
HETATM   12  C   UNL     1     -40.736 -47.862  12.452  1.00  0.00     0.015 A 
HETATM   13  C   UNL     1     -40.302 -46.598  12.029  1.00  0.00     0.004 A 
HETATM   14  C   UNL     1     -40.910 -45.981  10.941  1.00  0.00     0.042 A 
HETATM   15  C   UNL     1     -41.940 -46.635  10.282  1.00  0.00     0.117 A 
HETATM   16  F   UNL     1     -42.513 -46.055   9.219  1.00  0.00    -0.206 F 
HETATM   17  C   UNL     1     -42.389 -47.881  10.710  1.00  0.00     0.057 A 
ENDBRANCH   2  11
BRANCH   1  18
HETATM   18  C   UNL     1     -40.360 -51.362  11.848  1.00  0.00     0.157 C 
BRANCH  18  19
HETATM   19  C   UNL     1     -39.380 -51.297  13.009  1.00  0.00     0.187 C 
BRANCH  19  20
HETATM   20  O   UNL     1     -38.054 -51.321  12.480  1.00  0.00    -0.394 OA
HETATM   21  C   UNL     1     -37.786 -50.156  11.710  1.00  0.00     0.201 C 
ENDBRANCH  19  20
ENDBRANCH  18  19
ENDBRANCH   1  18
BRANCH   7  22
HETATM   22  S   UNL     1     -45.976 -54.105  14.874  1.00  0.00     0.239 S 
HETATM   23  O   UNL     1     -45.544 -54.516  16.188  1.00  0.00    -0.206 OA
HETATM   24  O   UNL     1     -47.210 -53.391  14.653  1.00  0.00    -0.206 OA
BRANCH  22  25
HETATM   25  N   UNL     1     -46.074 -55.507  13.959  1.00  0.00    -0.225 NA
HETATM   26  H   UNL     1     -47.020 -55.886  13.997  1.00  0.00     0.136 HD
HETATM   27  H   UNL     1     -45.724 -55.337  13.017  1.00  0.00     0.136 HD
ENDBRANCH  22  25
ENDBRANCH   7  22
TORSDOF 6
ENDMDL
MODEL 4
REMARK VINA RESULT:      -6.3      3.928      5.240
REMARK  6 active torsions:
REMARK  status: ('A' for Active; 'I' for Inactive)
REMARK    1  A    between atoms: O_2  and  C_3 
REMARK    2  A    between atoms: C_3  and  C_4 
REMARK    3  A    between atoms: C_4  and  N_5 
REMARK    4  A    between atoms: C_6  and  C_19 
REMARK    5  A    between atoms: C_11  and  S_15 
REMARK    6  A    between atoms: S_15  and  N_18 
ROOT
HETATM    1  N   UNL     1     -41.549 -50.207  12.089  1.00  0.00    -0.329 N 
HETATM    2  C   UNL     1     -42.595 -49.298  11.995  1.00  0.00     0.119 A 
HETATM    3  N   UNL     1     -43.691 -49.841  12.504  1.00  0.00    -0.340 N 
ATOM      4  HN  UNL     1     -44.608 -49.401  12.571  1.00  0.00     0.167 HD
HETATM    5  C   UNL     1     -43.364 -51.101  12.923  1.00  0.00     0.062 A 
HETATM    6  C   UNL     1     -44.162 -52.068  13.551  1.00  0.00     0.056 A 
HETATM    7  C   UNL     1     -43.570 -53.295  13.877  1.00  0.00     0.076 A 
HETATM    8  C   UNL     1     -42.223 -53.556  13.610  1.00  0.00     0.027 A 
HETATM    9  C   UNL     1     -41.425 -52.594  12.990  1.00  0.00     0.033 A 
HETATM   10  C   UNL     1     -42.028 -51.372  12.661  1.00  0.00     0.063 A 
ENDROOT
BRANCH   2  11
HETATM   11  C   UNL     1     -42.545 -47.897  11.532  1.00  0.00     0.011 A 
HETATM   12  C   UNL     1     -42.231 -46.803  12.352  1.00  0.00     0.015 A 
HETATM   13  C   UNL     1     -42.251 -45.492  11.856  1.00  0.00     0.004 A 
HETATM   14  C   UNL     1     -42.548 -45.258  10.517  1.00  0.00     0.042 A 
HETATM   15  C   UNL     1     -42.814 -46.337   9.687  1.00  0.00     0.117 A 
HETATM   16  F   UNL     1     -43.077 -46.117   8.391  1.00  0.00    -0.206 F 
HETATM   17  C   UNL     1     -42.815 -47.639  10.177  1.00  0.00     0.057 A 
ENDBRANCH   2  11
BRANCH   1  18
HETATM   18  C   UNL     1     -40.147 -49.996  11.792  1.00  0.00     0.157 C 
BRANCH  18  19
HETATM   19  C   UNL     1     -39.393 -49.319  12.926  1.00  0.00     0.187 C 
BRANCH  19  20
HETATM   20  O   UNL     1     -38.026 -49.181  12.537  1.00  0.00    -0.394 OA
HETATM   21  C   UNL     1     -37.728 -49.991  11.407  1.00  0.00     0.201 C 
ENDBRANCH  19  20
ENDBRANCH  18  19
ENDBRANCH   1  18
BRANCH   7  22
HETATM   22  S   UNL     1     -44.540 -54.544  14.661  1.00  0.00     0.239 S 
HETATM   23  O   UNL     1     -43.709 -55.694  14.928  1.00  0.00    -0.206 OA
HETATM   24  O   UNL     1     -45.380 -53.944  15.670  1.00  0.00    -0.206 OA
BRANCH  22  25
HETATM   25  N   UNL     1     -45.561 -54.993  13.408  1.00  0.00    -0.225 NA
HETATM   26  H   UNL     1     -46.435 -54.470  13.461  1.00  0.00     0.136 HD
HETATM   27  H   UNL     1     -45.075 -54.914  12.515  1.00  0.00     0.136 HD
ENDBRANCH  22  25
ENDBRANCH   7  22
TORSDOF 6
ENDMDL
MODEL 5
REMARK VINA RESULT:      -6.0      3.919      7.053
REMARK  6 active torsions:
REMARK  status: ('A' for Active; 'I' for Inactive)
REMARK    1  A    between atoms: O_2  and  C_3 
REMARK    2  A    between atoms: C_3  and  C_4 
REMARK    3  A    between atoms: C_4  and  N_5 
REMARK    4  A    between atoms: C_6  and  C_19 
REMARK    5  A    between atoms: C_11  and  S_15 
REMARK    6  A    between atoms: S_15  and  N_18 
ROOT
HETATM    1  N   UNL     1     -40.740 -48.921  13.069  1.00  0.00    -0.329 N 
HETATM    2  C   UNL     1     -41.575 -50.030  13.123  1.00  0.00     0.119 A 
HETATM    3  N   UNL     1     -42.590 -49.851  12.288  1.00  0.00    -0.340 N 
ATOM      4  HN  UNL     1     -43.354 -50.504  12.119  1.00  0.00     0.167 HD
HETATM    5  C   UNL     1     -42.422 -48.630  11.697  1.00  0.00     0.062 A 
HETATM    6  C   UNL     1     -43.207 -47.992  10.726  1.00  0.00     0.056 A 
HETATM    7  C   UNL     1     -42.805 -46.724  10.287  1.00  0.00     0.076 A 
HETATM    8  C   UNL     1     -41.649 -46.109  10.777  1.00  0.00     0.027 A 
HETATM    9  C   UNL     1     -40.863 -46.743  11.740  1.00  0.00     0.033 A 
HETATM   10  C   UNL     1     -41.277 -48.009  12.178  1.00  0.00     0.063 A 
ENDROOT
BRANCH   2  11
HETATM   11  C   UNL     1     -41.371 -51.289  13.866  1.00  0.00     0.011 A 
HETATM   12  C   UNL     1     -41.873 -51.538  15.152  1.00  0.00     0.015 A 
HETATM   13  C   UNL     1     -41.598 -52.740  15.820  1.00  0.00     0.004 A 
HETATM   14  C   UNL     1     -40.848 -53.730  15.192  1.00  0.00     0.042 A 
HETATM   15  C   UNL     1     -40.387 -53.512  13.903  1.00  0.00     0.117 A 
HETATM   16  F   UNL     1     -39.685 -54.472  13.286  1.00  0.00    -0.206 F 
HETATM   17  C   UNL     1     -40.640 -52.313  13.242  1.00  0.00     0.057 A 
ENDBRANCH   2  11
BRANCH   1  18
HETATM   18  C   UNL     1     -39.448 -48.740  13.697  1.00  0.00     0.157 C 
BRANCH  18  19
HETATM   19  C   UNL     1     -38.289 -49.179  12.814  1.00  0.00     0.187 C 
BRANCH  19  20
HETATM   20  O   UNL     1     -37.555 -50.189  13.506  1.00  0.00    -0.394 OA
HETATM   21  C   UNL     1     -37.126 -51.213  12.617  1.00  0.00     0.201 C 
ENDBRANCH  19  20
ENDBRANCH  18  19
ENDBRANCH   1  18
BRANCH   7  22
HETATM   22  S   UNL     1     -43.769 -45.883   9.072  1.00  0.00     0.239 S 
HETATM   23  O   UNL     1     -45.005 -46.599   8.866  1.00  0.00    -0.206 OA
HETATM   24  O   UNL     1     -43.730 -44.462   9.323  1.00  0.00    -0.206 OA
BRANCH  22  25
HETATM   25  N   UNL     1     -42.849 -46.142   7.694  1.00  0.00    -0.225 NA
HETATM   26  H   UNL     1     -42.737 -45.270   7.176  1.00  0.00     0.136 HD
HETATM   27  H   UNL     1     -41.973 -46.603   7.939  1.00  0.00     0.136 HD
ENDBRANCH  22  25
ENDBRANCH   7  22
TORSDOF 6
ENDMDL
MODEL 6
REMARK VINA RESULT:      -6.0      4.207      6.203
REMARK  6 active torsions:
REMARK  status: ('A' for Active; 'I' for Inactive)
REMARK    1  A    between atoms: O_2  and  C_3 
REMARK    2  A    between atoms: C_3  and  C_4 
REMARK    3  A    between atoms: C_4  and  N_5 
REMARK    4  A    between atoms: C_6  and  C_19 
REMARK    5  A    between atoms: C_11  and  S_15 
REMARK    6  A    between atoms: S_15  and  N_18 
ROOT
HETATM    1  N   UNL     1     -41.031 -49.630  11.844  1.00  0.00    -0.329 N 
HETATM    2  C   UNL     1     -41.527 -48.366  12.136  1.00  0.00     0.119 A 
HETATM    3  N   UNL     1     -42.706 -48.488  12.728  1.00  0.00    -0.340 N 
ATOM      4  HN  UNL     1     -43.299 -47.726  13.057  1.00  0.00     0.167 HD
HETATM    5  C   UNL     1     -42.982 -49.824  12.817  1.00  0.00     0.062 A 
HETATM    6  C   UNL     1     -44.090 -50.472  13.381  1.00  0.00     0.056 A 
HETATM    7  C   UNL     1     -44.125 -51.871  13.336  1.00  0.00     0.076 A 
HETATM    8  C   UNL     1     -43.086 -52.614  12.768  1.00  0.00     0.027 A 
HETATM    9  C   UNL     1     -41.979 -51.973  12.210  1.00  0.00     0.033 A 
HETATM   10  C   UNL     1     -41.957 -50.572  12.254  1.00  0.00     0.063 A 
ENDROOT
BRANCH   2  11
HETATM   11  C   UNL     1     -40.858 -47.062  11.961  1.00  0.00     0.011 A 
HETATM   12  C   UNL     1     -40.905 -46.301  10.783  1.00  0.00     0.015 A 
HETATM   13  C   UNL     1     -40.204 -45.092  10.669  1.00  0.00     0.004 A 
HETATM   14  C   UNL     1     -39.476 -44.605  11.750  1.00  0.00     0.042 A 
HETATM   15  C   UNL     1     -39.461 -45.326  12.935  1.00  0.00     0.117 A 
HETATM   16  F   UNL     1     -38.781 -44.848  13.985  1.00  0.00    -0.206 F 
HETATM   17  C   UNL     1     -40.139 -46.536  13.047  1.00  0.00     0.057 A 
ENDBRANCH   2  11
BRANCH   1  18
HETATM   18  C   UNL     1     -39.724 -49.984  11.331  1.00  0.00     0.157 C 
BRANCH  18  19
HETATM   19  C   UNL     1     -38.674 -50.129  12.422  1.00  0.00     0.187 C 
BRANCH  19  20
HETATM   20  O   UNL     1     -38.438 -51.521  12.637  1.00  0.00    -0.394 OA
HETATM   21  C   UNL     1     -38.696 -51.884  13.987  1.00  0.00     0.201 C 
ENDBRANCH  19  20
ENDBRANCH  18  19
ENDBRANCH   1  18
BRANCH   7  22
HETATM   22  S   UNL     1     -45.505 -52.727  14.027  1.00  0.00     0.239 S 
HETATM   23  O   UNL     1     -45.083 -53.427  15.217  1.00  0.00    -0.206 OA
HETATM   24  O   UNL     1     -46.667 -51.870  14.004  1.00  0.00    -0.206 OA
BRANCH  22  25
HETATM   25  N   UNL     1     -45.768 -53.906  12.864  1.00  0.00    -0.225 NA
HETATM   26  H   UNL     1     -45.007 -53.907  12.185  1.00  0.00     0.136 HD
HETATM   27  H   UNL     1     -45.936 -54.807  13.311  1.00  0.00     0.136 HD
ENDBRANCH  22  25
ENDBRANCH   7  22
TORSDOF 6
ENDMDL
MODEL 7
REMARK VINA RESULT:      -5.9      5.659      7.316
REMARK  6 active torsions:
REMARK  status: ('A' for Active; 'I' for Inactive)
REMARK    1  A    between atoms: O_2  and  C_3 
REMARK    2  A    between atoms: C_3  and  C_4 
REMARK    3  A    between atoms: C_4  and  N_5 
REMARK    4  A    between atoms: C_6  and  C_19 
REMARK    5  A    between atoms: C_11  and  S_15 
REMARK    6  A    between atoms: S_15  and  N_18 
ROOT
HETATM    1  N   UNL     1     -42.579 -52.728  15.388  1.00  0.00    -0.329 N 
HETATM    2  C   UNL     1     -43.409 -51.624  15.238  1.00  0.00     0.119 A 
HETATM    3  N   UNL     1     -42.768 -50.688  14.553  1.00  0.00    -0.340 N 
ATOM      4  HN  UNL     1     -43.135 -49.773  14.291  1.00  0.00     0.167 HD
HETATM    5  C   UNL     1     -41.524 -51.175  14.262  1.00  0.00     0.062 A 
HETATM    6  C   UNL     1     -40.480 -50.582  13.538  1.00  0.00     0.056 A 
HETATM    7  C   UNL     1     -39.291 -51.308  13.387  1.00  0.00     0.076 A 
HETATM    8  C   UNL     1     -39.142 -52.592  13.920  1.00  0.00     0.027 A 
HETATM    9  C   UNL     1     -40.181 -53.187  14.637  1.00  0.00     0.033 A 
HETATM   10  C   UNL     1     -41.364 -52.449  14.788  1.00  0.00     0.063 A 
ENDROOT
BRANCH   2  11
HETATM   11  C   UNL     1     -44.823 -51.487  15.637  1.00  0.00     0.011 A 
HETATM   12  C   UNL     1     -45.911 -51.653  14.767  1.00  0.00     0.015 A 
HETATM   13  C   UNL     1     -47.228 -51.459  15.203  1.00  0.00     0.004 A 
HETATM   14  C   UNL     1     -47.481 -51.133  16.532  1.00  0.00     0.042 A 
HETATM   15  C   UNL     1     -46.416 -51.013  17.412  1.00  0.00     0.117 A 
HETATM   16  F   UNL     1     -46.657 -50.723  18.698  1.00  0.00    -0.206 F 
HETATM   17  C   UNL     1     -45.104 -51.185  16.980  1.00  0.00     0.057 A 
ENDBRANCH   2  11
BRANCH   1  18
HETATM   18  C   UNL     1     -42.904 -54.027  15.939  1.00  0.00     0.157 C 
BRANCH  18  19
HETATM   19  C   UNL     1     -43.426 -55.003  14.895  1.00  0.00     0.187 C 
BRANCH  19  20
HETATM   20  O   UNL     1     -44.844 -55.096  15.036  1.00  0.00    -0.394 OA
HETATM   21  C   UNL     1     -45.484 -55.151  13.767  1.00  0.00     0.201 C 
ENDBRANCH  19  20
ENDBRANCH  18  19
ENDBRANCH   1  18
BRANCH   7  22
HETATM   22  S   UNL     1     -37.949 -50.597  12.490  1.00  0.00     0.239 S 
HETATM   23  O   UNL     1     -36.865 -51.548  12.423  1.00  0.00    -0.206 OA
HETATM   24  O   UNL     1     -38.454 -49.914  11.322  1.00  0.00    -0.206 OA
BRANCH  22  25
HETATM   25  N   UNL     1     -37.449 -49.401  13.553  1.00  0.00    -0.225 NA
HETATM   26  H   UNL     1     -37.780 -49.606  14.496  1.00  0.00     0.136 HD
HETATM   27  H   UNL     1     -36.441 -49.265  13.480  1.00  0.00     0.136 HD
ENDBRANCH  22  25
ENDBRANCH   7  22
TORSDOF 6
ENDMDL
MODEL 8
REMARK VINA RESULT:      -5.9      6.524      7.922
REMARK  6 active torsions:
REMARK  status: ('A' for Active; 'I' for Inactive)
REMARK    1  A    between atoms: O_2  and  C_3 
REMARK    2  A    between atoms: C_3  and  C_4 
REMARK    3  A    between atoms: C_4  and  N_5 
REMARK    4  A    between atoms: C_6  and  C_19 
REMARK    5  A    between atoms: C_11  and  S_15 
REMARK    6  A    between atoms: S_15  and  N_18 
ROOT
HETATM    1  N   UNL     1     -41.696 -53.596  14.746  1.00  0.00    -0.329 N 
HETATM    2  C   UNL     1     -43.033 -53.969  14.807  1.00  0.00     0.119 A 
HETATM    3  N   UNL     1     -43.148 -55.058  15.553  1.00  0.00    -0.340 N 
ATOM      4  HN  UNL     1     -44.013 -55.551  15.773  1.00  0.00     0.167 HD
HETATM    5  C   UNL     1     -41.893 -55.399  15.973  1.00  0.00     0.062 A 
HETATM    6  C   UNL     1     -41.483 -56.454  16.801  1.00  0.00     0.056 A 
HETATM    7  C   UNL     1     -40.116 -56.579  17.076  1.00  0.00     0.076 A 
HETATM    8  C   UNL     1     -39.178 -55.678  16.564  1.00  0.00     0.027 A 
HETATM    9  C   UNL     1     -39.581 -54.624  15.744  1.00  0.00     0.033 A 
HETATM   10  C   UNL     1     -40.952 -54.512  15.469  1.00  0.00     0.063 A 
ENDROOT
BRANCH   2  11
HETATM   11  C   UNL     1     -44.204 -53.253  14.262  1.00  0.00     0.011 A 
HETATM   12  C   UNL     1     -44.605 -53.301  12.918  1.00  0.00     0.015 A 
HETATM   13  C   UNL     1     -45.699 -52.555  12.458  1.00  0.00     0.004 A 
HETATM   14  C   UNL     1     -46.437 -51.780  13.348  1.00  0.00     0.042 A 
HETATM   15  C   UNL     1     -46.077 -51.763  14.687  1.00  0.00     0.117 A 
HETATM   16  F   UNL     1     -46.799 -51.037  15.551  1.00  0.00    -0.206 F 
HETATM   17  C   UNL     1     -44.980 -52.485  15.146  1.00  0.00     0.057 A 
ENDBRANCH   2  11
BRANCH   1  18
HETATM   18  C   UNL     1     -41.124 -52.399  14.167  1.00  0.00     0.157 C 
BRANCH  18  19
HETATM   19  C   UNL     1     -40.763 -52.561  12.698  1.00  0.00     0.187 C 
BRANCH  19  20
HETATM   20  O   UNL     1     -39.634 -51.733  12.419  1.00  0.00    -0.394 OA
HETATM   21  C   UNL     1     -38.756 -51.666  13.536  1.00  0.00     0.201 C 
ENDBRANCH  19  20
ENDBRANCH  18  19
ENDBRANCH   1  18
BRANCH   7  22
HETATM   22  S   UNL     1     -39.557 -57.898  18.106  1.00  0.00     0.239 S 
HETATM   23  O   UNL     1     -40.329 -57.908  19.326  1.00  0.00    -0.206 OA
HETATM   24  O   UNL     1     -39.354 -59.084  17.309  1.00  0.00    -0.206 OA
BRANCH  22  25
HETATM   25  N   UNL     1     -38.029 -57.351  18.530  1.00  0.00    -0.225 NA
HETATM   26  H   UNL     1     -37.696 -56.671  17.846  1.00  0.00     0.136 HD
HETATM   27  H   UNL     1     -38.032 -57.015  19.493  1.00  0.00     0.136 HD
ENDBRANCH  22  25
ENDBRANCH   7  22
TORSDOF 6
ENDMDL
MODEL 9
REMARK VINA RESULT:      -5.8      3.927      6.900
REMARK  6 active torsions:
REMARK  status: ('A' for Active; 'I' for Inactive)
REMARK    1  A    between atoms: O_2  and  C_3 
REMARK    2  A    between atoms: C_3  and  C_4 
REMARK    3  A    between atoms: C_4  and  N_5 
REMARK    4  A    between atoms: C_6  and  C_19 
REMARK    5  A    between atoms: C_11  and  S_15 
REMARK    6  A    between atoms: S_15  and  N_18 
ROOT
HETATM    1  N   UNL     1     -40.295 -48.960  12.589  1.00  0.00    -0.329 N 
HETATM    2  C   UNL     1     -41.136 -50.049  12.780  1.00  0.00     0.119 A 
HETATM    3  N   UNL     1     -42.250 -49.866  12.085  1.00  0.00    -0.340 N 
ATOM      4  HN  UNL     1     -43.042 -50.505  12.035  1.00  0.00     0.167 HD
HETATM    5  C   UNL     1     -42.140 -48.661  11.449  1.00  0.00     0.062 A 
HETATM    6  C   UNL     1     -43.036 -48.026  10.577  1.00  0.00     0.056 A 
HETATM    7  C   UNL     1     -42.673 -46.777  10.058  1.00  0.00     0.076 A 
HETATM    8  C   UNL     1     -41.451 -46.177  10.375  1.00  0.00     0.027 A 
HETATM    9  C   UNL     1     -40.554 -46.807  11.238  1.00  0.00     0.033 A 
HETATM   10  C   UNL     1     -40.930 -48.054  11.757  1.00  0.00     0.063 A 
ENDROOT
BRANCH   2  11
HETATM   11  C   UNL     1     -40.858 -51.296  13.518  1.00  0.00     0.011 A 
HETATM   12  C   UNL     1     -40.377 -52.474  12.928  1.00  0.00     0.015 A 
HETATM   13  C   UNL     1     -40.181 -53.639  13.682  1.00  0.00     0.004 A 
HETATM   14  C   UNL     1     -40.426 -53.631  15.052  1.00  0.00     0.042 A 
HETATM   15  C   UNL     1     -40.857 -52.458  15.654  1.00  0.00     0.117 A 
HETATM   16  F   UNL     1     -41.071 -52.440  16.976  1.00  0.00    -0.206 F 
HETATM   17  C   UNL     1     -41.072 -51.304  14.907  1.00  0.00     0.057 A 
ENDBRANCH   2  11
BRANCH   1  18
HETATM   18  C   UNL     1     -38.927 -48.793  13.034  1.00  0.00     0.157 C 
BRANCH  18  19
HETATM   19  C   UNL     1     -38.817 -48.057  14.361  1.00  0.00     0.187 C 
BRANCH  19  20
HETATM   20  O   UNL     1     -38.287 -46.755  14.110  1.00  0.00    -0.394 OA
HETATM   21  C   UNL     1     -39.165 -45.742  14.585  1.00  0.00     0.201 C 
ENDBRANCH  19  20
ENDBRANCH  18  19
ENDBRANCH   1  18
BRANCH   7  22
HETATM   22  S   UNL     1     -43.776 -45.939   8.964  1.00  0.00     0.239 S 
HETATM   23  O   UNL     1     -45.031 -46.651   8.917  1.00  0.00    -0.206 OA
HETATM   24  O   UNL     1     -43.701 -44.516   9.197  1.00  0.00    -0.206 OA
BRANCH  22  25
HETATM   25  N   UNL     1     -43.033 -46.213   7.486  1.00  0.00    -0.225 NA
HETATM   26  H   UNL     1     -42.705 -47.177   7.430  1.00  0.00     0.136 HD
HETATM   27  H   UNL     1     -43.651 -45.932   6.726  1.00  0.00     0.136 HD
ENDBRANCH  22  25
ENDBRANCH   7  22
TORSDOF 6
ENDMDL
