MODEL 1
REMARK VINA RESULT:      -6.7      0.000      0.000
REMARK  8 active torsions:
REMARK  status: ('A' for Active; 'I' for Inactive)
REMARK    1  A    between atoms: O_1  and  C_2 
REMARK    2  A    between atoms: C_2  and  C_3 
REMARK    3  A    between atoms: N_12  and  C_13 
REMARK    4  A    between atoms: C_13  and  C_14 
REMARK    5  A    between atoms: C_14  and  O_15 
REMARK    6  A    between atoms: C_14  and  C_16 
REMARK    7  A    between atoms: C_16  and  O_17 
REMARK    8  A    between atoms: O_17  and  C_18 
ROOT
HETATM    1  C   UNL     1     -39.029 -49.639  11.676  1.00  0.00     0.108 A 
HETATM    2  N   UNL     1     -39.501 -48.544  11.107  1.00  0.00    -0.342 N 
ATOM      3  HN  UNL     1     -38.980 -47.872  10.543  1.00  0.00     0.167 HD
HETATM    4  C   UNL     1     -40.830 -48.494  11.429  1.00  0.00     0.060 A 
HETATM    5  C   UNL     1     -41.790 -47.533  11.077  1.00  0.00     0.032 A 
HETATM    6  C   UNL     1     -43.104 -47.692  11.529  1.00  0.00     0.002 A 
HETATM    7  C   UNL     1     -43.455 -48.790  12.315  1.00  0.00     0.002 A 
HETATM    8  C   UNL     1     -42.513 -49.766  12.664  1.00  0.00     0.032 A 
HETATM    9  C   UNL     1     -41.199 -49.588  12.206  1.00  0.00     0.062 A 
HETATM   10  N   UNL     1     -40.034 -50.317  12.341  1.00  0.00    -0.330 N 
ENDROOT
BRANCH  10  11
HETATM   11  C   UNL     1     -39.923 -51.636  12.949  1.00  0.00     0.164 C 
BRANCH  11  12
HETATM   12  C   UNL     1     -40.951 -52.659  12.441  1.00  0.00     0.160 C 
BRANCH  12  13
HETATM   13  O   UNL     1     -40.437 -53.429  11.345  1.00  0.00    -0.392 OA
HETATM   14  H   UNL     1     -40.888 -53.157  10.530  1.00  0.00     0.210 HD
ENDBRANCH  12  13
BRANCH  12  15
HETATM   15  C   UNL     1     -41.374 -53.634  13.556  1.00  0.00     0.209 C 
BRANCH  15  16
HETATM   16  O   UNL     1     -42.675 -54.157  13.289  1.00  0.00    -0.349 OA
BRANCH  16  17
HETATM   17  C   UNL     1     -43.728 -53.321  13.539  1.00  0.00     0.069 A 
HETATM   18  C   UNL     1     -44.687 -53.254  12.523  1.00  0.00     0.040 A 
HETATM   19  C   UNL     1     -45.821 -52.449  12.667  1.00  0.00     0.045 A 
HETATM   20  C   UNL     1     -45.997 -51.728  13.840  1.00  0.00     0.116 A 
HETATM   21  F   UNL     1     -47.085 -50.958  13.987  1.00  0.00    -0.206 F 
HETATM   22  C   UNL     1     -45.065 -51.799  14.868  1.00  0.00     0.045 A 
HETATM   23  C   UNL     1     -43.926 -52.599  14.720  1.00  0.00     0.040 A 
ENDBRANCH  16  17
ENDBRANCH  15  16
ENDBRANCH  12  15
ENDBRANCH  11  12
ENDBRANCH  10  11
BRANCH   1  24
HETATM   24  C   UNL     1     -37.616 -50.098  11.573  1.00  0.00     0.240 C 
BRANCH  24  25
HETATM   25  O   UNL     1     -37.240 -50.069  10.202  1.00  0.00    -0.393 OA
HETATM   26  H   UNL     1     -37.688 -50.818   9.777  1.00  0.00     0.209 HD
ENDBRANCH  24  25
ENDBRANCH   1  24
TORSDOF 8
ENDMDL
MODEL 2
REMARK VINA RESULT:      -6.6      2.553      4.565
REMARK  8 active torsions:
REMARK  status: ('A' for Active; 'I' for Inactive)
REMARK    1  A    between atoms: O_1  and  C_2 
REMARK    2  A    between atoms: C_2  and  C_3 
REMARK    3  A    between atoms: N_12  and  C_13 
REMARK    4  A    between atoms: C_13  and  C_14 
REMARK    5  A    between atoms: C_14  and  O_15 
REMARK    6  A    between atoms: C_14  and  C_16 
REMARK    7  A    between atoms: C_16  and  O_17 
REMARK    8  A    between atoms: O_17  and  C_18 
ROOT
HETATM    1  C   UNL     1     -40.639 -53.765  14.007  1.00  0.00     0.108 A 
HETATM    2  N   UNL     1     -41.319 -54.386  14.954  1.00  0.00    -0.342 N 
ATOM      3  HN  UNL     1     -40.965 -54.706  15.855  1.00  0.00     0.167 HD
HETATM    4  C   UNL     1     -42.597 -54.511  14.480  1.00  0.00     0.060 A 
HETATM    5  C   UNL     1     -43.715 -55.097  15.094  1.00  0.00     0.032 A 
HETATM    6  C   UNL     1     -44.933 -55.111  14.407  1.00  0.00     0.002 A 
HETATM    7  C   UNL     1     -45.037 -54.548  13.135  1.00  0.00     0.002 A 
HETATM    8  C   UNL     1     -43.935 -53.947  12.513  1.00  0.00     0.032 A 
HETATM    9  C   UNL     1     -42.719 -53.946  13.214  1.00  0.00     0.062 A 
HETATM   10  N   UNL     1     -41.458 -53.461  12.935  1.00  0.00    -0.330 N 
ENDROOT
BRANCH  10  11
HETATM   11  C   UNL     1     -41.096 -52.647  11.783  1.00  0.00     0.164 C 
BRANCH  11  12
HETATM   12  C   UNL     1     -41.002 -51.140  12.074  1.00  0.00     0.160 C 
BRANCH  12  13
HETATM   13  O   UNL     1     -40.462 -50.417  10.958  1.00  0.00    -0.392 OA
HETATM   14  H   UNL     1     -41.156 -49.851  10.583  1.00  0.00     0.210 HD
ENDBRANCH  12  13
BRANCH  12  15
HETATM   15  C   UNL     1     -42.382 -50.544  12.410  1.00  0.00     0.209 C 
BRANCH  15  16
HETATM   16  O   UNL     1     -42.530 -50.407  13.823  1.00  0.00    -0.349 OA
BRANCH  16  17
HETATM   17  C   UNL     1     -43.727 -50.807  14.349  1.00  0.00     0.069 A 
HETATM   18  C   UNL     1     -44.800 -50.804  13.452  1.00  0.00     0.040 A 
HETATM   19  C   UNL     1     -46.073 -51.210  13.863  1.00  0.00     0.045 A 
HETATM   20  C   UNL     1     -46.260 -51.636  15.171  1.00  0.00     0.116 A 
HETATM   21  F   UNL     1     -47.477 -52.032  15.571  1.00  0.00    -0.206 F 
HETATM   22  C   UNL     1     -45.201 -51.666  16.070  1.00  0.00     0.045 A 
HETATM   23  C   UNL     1     -43.929 -51.252  15.660  1.00  0.00     0.040 A 
ENDBRANCH  16  17
ENDBRANCH  15  16
ENDBRANCH  12  15
ENDBRANCH  11  12
ENDBRANCH  10  11
BRANCH   1  24
HETATM   24  C   UNL     1     -39.197 -53.405  14.107  1.00  0.00     0.240 C 
BRANCH  24  25
HETATM   25  O   UNL     1     -38.442 -54.413  13.449  1.00  0.00    -0.393 OA
HETATM   26  H   UNL     1     -39.052 -55.151  13.281  1.00  0.00     0.209 HD
ENDBRANCH  24  25
ENDBRANCH   1  24
TORSDOF 8
ENDMDL
MODEL 3
REMARK VINA RESULT:      -6.3      2.661      3.760
REMARK  8 active torsions:
REMARK  status: ('A' for Active; 'I' for Inactive)
REMARK    1  A    between atoms: O_1  and  C_2 
REMARK    2  A    between atoms: C_2  and  C_3 
REMARK    3  A    between atoms: N_12  and  C_13 
REMARK    4  A    between atoms: C_13  and  C_14 
REMARK    5  A    between atoms: C_14  and  O_15 
REMARK    6  A    between atoms: C_14  and  C_16 
REMARK    7  A    between atoms: C_16  and  O_17 
REMARK    8  A    between atoms: O_17  and  C_18 
ROOT
HETATM    1  C   UNL     1     -40.571 -53.463  14.130  1.00  0.00     0.108 A 
HETATM    2  N   UNL     1     -40.616 -52.734  13.030  1.00  0.00    -0.342 N 
ATOM      3  HN  UNL     1     -40.062 -52.866  12.183  1.00  0.00     0.167 HD
HETATM    4  C   UNL     1     -41.555 -51.765  13.257  1.00  0.00     0.060 A 
HETATM    5  C   UNL     1     -41.985 -50.733  12.409  1.00  0.00     0.032 A 
HETATM    6  C   UNL     1     -42.969 -49.849  12.864  1.00  0.00     0.002 A 
HETATM    7  C   UNL     1     -43.517 -49.993  14.139  1.00  0.00     0.002 A 
HETATM    8  C   UNL     1     -43.109 -51.026  14.994  1.00  0.00     0.032 A 
HETATM    9  C   UNL     1     -42.118 -51.900  14.523  1.00  0.00     0.062 A 
HETATM   10  N   UNL     1     -41.484 -53.002  15.061  1.00  0.00    -0.330 N 
ENDROOT
BRANCH  10  11
HETATM   11  C   UNL     1     -41.825 -53.647  16.321  1.00  0.00     0.164 C 
BRANCH  11  12
HETATM   12  C   UNL     1     -42.958 -54.681  16.221  1.00  0.00     0.160 C 
BRANCH  12  13
HETATM   13  O   UNL     1     -42.669 -55.861  16.982  1.00  0.00    -0.392 OA
HETATM   14  H   UNL     1     -43.175 -55.835  17.810  1.00  0.00     0.210 HD
ENDBRANCH  12  13
BRANCH  12  15
HETATM   15  C   UNL     1     -44.295 -54.102  16.722  1.00  0.00     0.209 C 
BRANCH  15  16
HETATM   16  O   UNL     1     -45.354 -54.468  15.837  1.00  0.00    -0.349 OA
BRANCH  16  17
HETATM   17  C   UNL     1     -45.724 -53.530  14.913  1.00  0.00     0.069 A 
HETATM   18  C   UNL     1     -45.281 -53.776  13.609  1.00  0.00     0.040 A 
HETATM   19  C   UNL     1     -45.609 -52.901  12.570  1.00  0.00     0.045 A 
HETATM   20  C   UNL     1     -46.399 -51.791  12.840  1.00  0.00     0.116 A 
HETATM   21  F   UNL     1     -46.723 -50.950  11.847  1.00  0.00    -0.206 F 
HETATM   22  C   UNL     1     -46.866 -51.544  14.126  1.00  0.00     0.045 A 
HETATM   23  C   UNL     1     -46.530 -52.416  15.167  1.00  0.00     0.040 A 
ENDBRANCH  16  17
ENDBRANCH  15  16
ENDBRANCH  12  15
ENDBRANCH  11  12
ENDBRANCH  10  11
BRANCH   1  24
HETATM   24  C   UNL     1     -39.687 -54.647  14.319  1.00  0.00     0.240 C 
BRANCH  24  25
HETATM   25  O   UNL     1     -38.653 -54.588  13.346  1.00  0.00    -0.393 OA
HETATM   26  H   UNL     1     -39.005 -54.076  12.599  1.00  0.00     0.209 HD
ENDBRANCH  24  25
ENDBRANCH   1  24
TORSDOF 8
ENDMDL
MODEL 4
REMARK VINA RESULT:      -6.3      2.145      3.548
REMARK  8 active torsions:
REMARK  status: ('A' for Active; 'I' for Inactive)
REMARK    1  A    between atoms: O_1  and  C_2 
REMARK    2  A    between atoms: C_2  and  C_3 
REMARK    3  A    between atoms: N_12  and  C_13 
REMARK    4  A    between atoms: C_13  and  C_14 
REMARK    5  A    between atoms: C_14  and  O_15 
REMARK    6  A    between atoms: C_14  and  C_16 
REMARK    7  A    between atoms: C_16  and  O_17 
REMARK    8  A    between atoms: O_17  and  C_18 
ROOT
HETATM    1  C   UNL     1     -41.583 -49.621  12.271  1.00  0.00     0.108 A 
HETATM    2  N   UNL     1     -42.881 -49.832  12.161  1.00  0.00    -0.342 N 
ATOM      3  HN  UNL     1     -43.468 -49.640  11.349  1.00  0.00     0.167 HD
HETATM    4  C   UNL     1     -43.280 -50.361  13.359  1.00  0.00     0.060 A 
HETATM    5  C   UNL     1     -44.562 -50.762  13.766  1.00  0.00     0.032 A 
HETATM    6  C   UNL     1     -44.731 -51.279  15.055  1.00  0.00     0.002 A 
HETATM    7  C   UNL     1     -43.643 -51.397  15.920  1.00  0.00     0.002 A 
HETATM    8  C   UNL     1     -42.354 -51.014  15.525  1.00  0.00     0.032 A 
HETATM    9  C   UNL     1     -42.204 -50.493  14.231  1.00  0.00     0.062 A 
HETATM   10  N   UNL     1     -41.123 -50.027  13.510  1.00  0.00    -0.330 N 
ENDROOT
BRANCH  10  11
HETATM   11  C   UNL     1     -39.730 -50.092  13.930  1.00  0.00     0.164 C 
BRANCH  11  12
HETATM   12  C   UNL     1     -38.924 -51.232  13.286  1.00  0.00     0.160 C 
BRANCH  12  13
HETATM   13  O   UNL     1     -37.562 -50.848  13.046  1.00  0.00    -0.392 OA
HETATM   14  H   UNL     1     -37.000 -51.638  13.089  1.00  0.00     0.210 HD
ENDBRANCH  12  13
BRANCH  12  15
HETATM   15  C   UNL     1     -38.919 -52.491  14.173  1.00  0.00     0.209 C 
BRANCH  15  16
HETATM   16  O   UNL     1     -39.499 -53.591  13.472  1.00  0.00    -0.349 OA
BRANCH  16  17
HETATM   17  C   UNL     1     -40.759 -53.959  13.856  1.00  0.00     0.069 A 
HETATM   18  C   UNL     1     -41.754 -53.760  12.893  1.00  0.00     0.040 A 
HETATM   19  C   UNL     1     -43.080 -54.114  13.158  1.00  0.00     0.045 A 
HETATM   20  C   UNL     1     -43.400 -54.685  14.383  1.00  0.00     0.116 A 
HETATM   21  F   UNL     1     -44.669 -55.031  14.641  1.00  0.00    -0.206 F 
HETATM   22  C   UNL     1     -42.420 -54.909  15.342  1.00  0.00     0.045 A 
HETATM   23  C   UNL     1     -41.094 -54.547  15.080  1.00  0.00     0.040 A 
ENDBRANCH  16  17
ENDBRANCH  15  16
ENDBRANCH  12  15
ENDBRANCH  11  12
ENDBRANCH  10  11
BRANCH   1  24
HETATM   24  C   UNL     1     -40.727 -49.062  11.187  1.00  0.00     0.240 C 
BRANCH  24  25
HETATM   25  O   UNL     1     -40.458 -50.102  10.255  1.00  0.00    -0.393 OA
HETATM   26  H   UNL     1     -39.614 -49.879   9.829  1.00  0.00     0.209 HD
ENDBRANCH  24  25
ENDBRANCH   1  24
TORSDOF 8
ENDMDL
MODEL 5
REMARK VINA RESULT:      -6.0      3.260      6.396
REMARK  8 active torsions:
REMARK  status: ('A' for Active; 'I' for Inactive)
REMARK    1  A    between atoms: O_1  and  C_2 
REMARK    2  A    between atoms: C_2  and  C_3 
REMARK    3  A    between atoms: N_12  and  C_13 
REMARK    4  A    between atoms: C_13  and  C_14 
REMARK    5  A    between atoms: C_14  and  O_15 
REMARK    6  A    between atoms: C_14  and  C_16 
REMARK    7  A    between atoms: C_16  and  O_17 
REMARK    8  A    between atoms: O_17  and  C_18 
ROOT
HETATM    1  C   UNL     1     -42.236 -53.336  12.994  1.00  0.00     0.108 A 
HETATM    2  N   UNL     1     -43.314 -54.097  12.924  1.00  0.00    -0.342 N 
ATOM      3  HN  UNL     1     -43.357 -55.075  12.638  1.00  0.00     0.167 HD
HETATM    4  C   UNL     1     -44.360 -53.306  13.315  1.00  0.00     0.060 A 
HETATM    5  C   UNL     1     -45.722 -53.628  13.418  1.00  0.00     0.032 A 
HETATM    6  C   UNL     1     -46.619 -52.642  13.843  1.00  0.00     0.002 A 
HETATM    7  C   UNL     1     -46.167 -51.362  14.163  1.00  0.00     0.002 A 
HETATM    8  C   UNL     1     -44.809 -51.027  14.079  1.00  0.00     0.032 A 
HETATM    9  C   UNL     1     -43.924 -52.026  13.647  1.00  0.00     0.062 A 
HETATM   10  N   UNL     1     -42.559 -52.071  13.448  1.00  0.00    -0.330 N 
ENDROOT
BRANCH  10  11
HETATM   11  C   UNL     1     -41.615 -51.018  13.796  1.00  0.00     0.164 C 
BRANCH  11  12
HETATM   12  C   UNL     1     -41.322 -50.025  12.660  1.00  0.00     0.160 C 
BRANCH  12  13
HETATM   13  O   UNL     1     -41.594 -50.597  11.373  1.00  0.00    -0.392 OA
HETATM   14  H   UNL     1     -42.553 -50.600  11.225  1.00  0.00     0.210 HD
ENDBRANCH  12  13
BRANCH  12  15
HETATM   15  C   UNL     1     -42.162 -48.741  12.802  1.00  0.00     0.209 C 
BRANCH  15  16
HETATM   16  O   UNL     1     -42.381 -48.150  11.522  1.00  0.00    -0.349 OA
BRANCH  16  17
HETATM   17  C   UNL     1     -41.750 -46.959  11.288  1.00  0.00     0.069 A 
HETATM   18  C   UNL     1     -42.561 -45.825  11.405  1.00  0.00     0.040 A 
HETATM   19  C   UNL     1     -42.030 -44.548  11.209  1.00  0.00     0.045 A 
HETATM   20  C   UNL     1     -40.679 -44.411  10.914  1.00  0.00     0.116 A 
HETATM   21  F   UNL     1     -40.161 -43.189  10.730  1.00  0.00    -0.206 F 
HETATM   22  C   UNL     1     -39.855 -45.526  10.815  1.00  0.00     0.045 A 
HETATM   23  C   UNL     1     -40.389 -46.805  11.004  1.00  0.00     0.040 A 
ENDBRANCH  16  17
ENDBRANCH  15  16
ENDBRANCH  12  15
ENDBRANCH  11  12
ENDBRANCH  10  11
BRANCH   1  24
HETATM   24  C   UNL     1     -40.858 -53.799  12.669  1.00  0.00     0.240 C 
BRANCH  24  25
HETATM   25  O   UNL     1     -40.542 -53.362  11.354  1.00  0.00    -0.393 OA
HETATM   26  H   UNL     1     -41.002 -53.963  10.745  1.00  0.00     0.209 HD
ENDBRANCH  24  25
ENDBRANCH   1  24
TORSDOF 8
ENDMDL
MODEL 6
REMARK VINA RESULT:      -5.9      1.811      2.430
REMARK  8 active torsions:
REMARK  status: ('A' for Active; 'I' for Inactive)
REMARK    1  A    between atoms: O_1  and  C_2 
REMARK    2  A    between atoms: C_2  and  C_3 
REMARK    3  A    between atoms: N_12  and  C_13 
REMARK    4  A    between atoms: C_13  and  C_14 
REMARK    5  A    between atoms: C_14  and  O_15 
REMARK    6  A    between atoms: C_14  and  C_16 
REMARK    7  A    between atoms: C_16  and  O_17 
REMARK    8  A    between atoms: O_17  and  C_18 
ROOT
HETATM    1  C   UNL     1     -40.660 -50.014  12.788  1.00  0.00     0.108 A 
HETATM    2  N   UNL     1     -41.348 -48.927  13.087  1.00  0.00    -0.342 N 
ATOM      3  HN  UNL     1     -41.320 -48.030  12.601  1.00  0.00     0.167 HD
HETATM    4  C   UNL     1     -42.104 -49.248  14.181  1.00  0.00     0.060 A 
HETATM    5  C   UNL     1     -43.010 -48.449  14.895  1.00  0.00     0.032 A 
HETATM    6  C   UNL     1     -43.675 -49.000  15.996  1.00  0.00     0.002 A 
HETATM    7  C   UNL     1     -43.445 -50.323  16.374  1.00  0.00     0.002 A 
HETATM    8  C   UNL     1     -42.554 -51.139  15.663  1.00  0.00     0.032 A 
HETATM    9  C   UNL     1     -41.892 -50.569  14.566  1.00  0.00     0.062 A 
HETATM   10  N   UNL     1     -40.975 -51.046  13.652  1.00  0.00    -0.330 N 
ENDROOT
BRANCH  10  11
HETATM   11  C   UNL     1     -40.533 -52.429  13.534  1.00  0.00     0.164 C 
BRANCH  11  12
HETATM   12  C   UNL     1     -41.446 -53.316  12.672  1.00  0.00     0.160 C 
BRANCH  12  13
HETATM   13  O   UNL     1     -40.689 -54.225  11.861  1.00  0.00    -0.392 OA
HETATM   14  H   UNL     1     -40.848 -55.132  12.169  1.00  0.00     0.210 HD
ENDBRANCH  12  13
BRANCH  12  15
HETATM   15  C   UNL     1     -42.414 -54.141  13.542  1.00  0.00     0.209 C 
BRANCH  15  16
HETATM   16  O   UNL     1     -43.729 -54.107  12.986  1.00  0.00    -0.349 OA
BRANCH  16  17
HETATM   17  C   UNL     1     -44.663 -53.391  13.682  1.00  0.00     0.069 A 
HETATM   18  C   UNL     1     -45.009 -52.159  13.116  1.00  0.00     0.040 A 
HETATM   19  C   UNL     1     -45.966 -51.341  13.722  1.00  0.00     0.045 A 
HETATM   20  C   UNL     1     -46.589 -51.773  14.886  1.00  0.00     0.116 A 
HETATM   21  F   UNL     1     -47.513 -50.996  15.470  1.00  0.00    -0.206 F 
HETATM   22  C   UNL     1     -46.273 -53.003  15.450  1.00  0.00     0.045 A 
HETATM   23  C   UNL     1     -45.308 -53.817  14.847  1.00  0.00     0.040 A 
ENDBRANCH  16  17
ENDBRANCH  15  16
ENDBRANCH  12  15
ENDBRANCH  11  12
ENDBRANCH  10  11
BRANCH   1  24
HETATM   24  C   UNL     1     -39.709 -50.120  11.645  1.00  0.00     0.240 C 
BRANCH  24  25
HETATM   25  O   UNL     1     -40.464 -50.130  10.441  1.00  0.00    -0.393 OA
HETATM   26  H   UNL     1     -39.902 -50.546   9.766  1.00  0.00     0.209 HD
ENDBRANCH  24  25
ENDBRANCH   1  24
TORSDOF 8
ENDMDL
MODEL 7
REMARK VINA RESULT:      -5.9      3.085      6.231
REMARK  8 active torsions:
REMARK  status: ('A' for Active; 'I' for Inactive)
REMARK    1  A    between atoms: O_1  and  C_2 
REMARK    2  A    between atoms: C_2  and  C_3 
REMARK    3  A    between atoms: N_12  and  C_13 
REMARK    4  A    between atoms: C_13  and  C_14 
REMARK    5  A    between atoms: C_14  and  O_15 
REMARK    6  A    between atoms: C_14  and  C_16 
REMARK    7  A    between atoms: C_16  and  O_17 
REMARK    8  A    between atoms: O_17  and  C_18 
ROOT
HETATM    1  C   UNL     1     -40.780 -54.137  14.056  1.00  0.00     0.108 A 
HETATM    2  N   UNL     1     -41.596 -54.718  14.916  1.00  0.00    -0.342 N 
ATOM      3  HN  UNL     1     -41.338 -55.201  15.777  1.00  0.00     0.167 HD
HETATM    4  C   UNL     1     -42.858 -54.543  14.417  1.00  0.00     0.060 A 
HETATM    5  C   UNL     1     -44.086 -54.969  14.945  1.00  0.00     0.032 A 
HETATM    6  C   UNL     1     -45.262 -54.671  14.249  1.00  0.00     0.002 A 
HETATM    7  C   UNL     1     -45.215 -53.958  13.050  1.00  0.00     0.002 A 
HETATM    8  C   UNL     1     -43.999 -53.513  12.515  1.00  0.00     0.032 A 
HETATM    9  C   UNL     1     -42.830 -53.825  13.225  1.00  0.00     0.062 A 
HETATM   10  N   UNL     1     -41.490 -53.562  13.018  1.00  0.00    -0.330 N 
ENDROOT
BRANCH  10  11
HETATM   11  C   UNL     1     -40.943 -52.707  11.974  1.00  0.00     0.164 C 
BRANCH  11  12
HETATM   12  C   UNL     1     -40.329 -51.393  12.485  1.00  0.00     0.160 C 
BRANCH  12  13
HETATM   13  O   UNL     1     -39.054 -51.135  11.881  1.00  0.00    -0.392 OA
HETATM   14  H   UNL     1     -38.359 -51.245  12.551  1.00  0.00     0.210 HD
ENDBRANCH  12  13
BRANCH  12  15
HETATM   15  C   UNL     1     -41.249 -50.192  12.197  1.00  0.00     0.209 C 
BRANCH  15  16
HETATM   16  O   UNL     1     -40.869 -49.561  10.973  1.00  0.00    -0.349 OA
BRANCH  16  17
HETATM   17  C   UNL     1     -40.942 -48.196  10.947  1.00  0.00     0.069 A 
HETATM   18  C   UNL     1     -42.042 -47.673  10.258  1.00  0.00     0.040 A 
HETATM   19  C   UNL     1     -42.238 -46.292  10.176  1.00  0.00     0.045 A 
HETATM   20  C   UNL     1     -41.338 -45.439  10.802  1.00  0.00     0.116 A 
HETATM   21  F   UNL     1     -41.524 -44.113  10.731  1.00  0.00    -0.206 F 
HETATM   22  C   UNL     1     -40.252 -45.942  11.508  1.00  0.00     0.045 A 
HETATM   23  C   UNL     1     -40.052 -47.325  11.583  1.00  0.00     0.040 A 
ENDBRANCH  16  17
ENDBRANCH  15  16
ENDBRANCH  12  15
ENDBRANCH  11  12
ENDBRANCH  10  11
BRANCH   1  24
HETATM   24  C   UNL     1     -39.300 -54.073  14.213  1.00  0.00     0.240 C 
BRANCH  24  25
HETATM   25  O   UNL     1     -38.721 -55.042  13.350  1.00  0.00    -0.393 OA
HETATM   26  H   UNL     1     -39.449 -55.418  12.828  1.00  0.00     0.209 HD
ENDBRANCH  24  25
ENDBRANCH   1  24
TORSDOF 8
ENDMDL
MODEL 8
REMARK VINA RESULT:      -5.8      2.798      4.250
REMARK  8 active torsions:
REMARK  status: ('A' for Active; 'I' for Inactive)
REMARK    1  A    between atoms: O_1  and  C_2 
REMARK    2  A    between atoms: C_2  and  C_3 
REMARK    3  A    between atoms: N_12  and  C_13 
REMARK    4  A    between atoms: C_13  and  C_14 
REMARK    5  A    between atoms: C_14  and  O_15 
REMARK    6  A    between atoms: C_14  and  C_16 
REMARK    7  A    between atoms: C_16  and  O_17 
REMARK    8  A    between atoms: O_17  and  C_18 
ROOT
HETATM    1  C   UNL     1     -40.705 -48.069  11.240  1.00  0.00     0.108 A 
HETATM    2  N   UNL     1     -40.957 -46.985  10.530  1.00  0.00    -0.342 N 
ATOM      3  HN  UNL     1     -41.462 -46.934   9.644  1.00  0.00     0.167 HD
HETATM    4  C   UNL     1     -40.404 -45.943  11.223  1.00  0.00     0.060 A 
HETATM    5  C   UNL     1     -40.388 -44.577  10.903  1.00  0.00     0.032 A 
HETATM    6  C   UNL     1     -39.753 -43.686  11.774  1.00  0.00     0.002 A 
HETATM    7  C   UNL     1     -39.148 -44.147  12.943  1.00  0.00     0.002 A 
HETATM    8  C   UNL     1     -39.166 -45.505  13.285  1.00  0.00     0.032 A 
HETATM    9  C   UNL     1     -39.804 -46.385  12.398  1.00  0.00     0.062 A 
HETATM   10  N   UNL     1     -40.020 -47.749  12.397  1.00  0.00    -0.330 N 
ENDROOT
BRANCH  10  11
HETATM   11  C   UNL     1     -39.711 -48.659  13.491  1.00  0.00     0.164 C 
BRANCH  11  12
HETATM   12  C   UNL     1     -38.330 -49.327  13.391  1.00  0.00     0.160 C 
BRANCH  12  13
HETATM   13  O   UNL     1     -37.361 -48.670  14.220  1.00  0.00    -0.392 OA
HETATM   14  H   UNL     1     -37.548 -47.717  14.229  1.00  0.00     0.210 HD
ENDBRANCH  12  13
BRANCH  12  15
HETATM   15  C   UNL     1     -38.390 -50.810  13.806  1.00  0.00     0.209 C 
BRANCH  15  16
HETATM   16  O   UNL     1     -39.143 -51.559  12.853  1.00  0.00    -0.349 OA
BRANCH  16  17
HETATM   17  C   UNL     1     -40.011 -52.487  13.359  1.00  0.00     0.069 A 
HETATM   18  C   UNL     1     -41.175 -52.684  12.608  1.00  0.00     0.040 A 
HETATM   19  C   UNL     1     -42.132 -53.619  13.011  1.00  0.00     0.045 A 
HETATM   20  C   UNL     1     -41.908 -54.369  14.159  1.00  0.00     0.116 A 
HETATM   21  F   UNL     1     -42.819 -55.272  14.547  1.00  0.00    -0.206 F 
HETATM   22  C   UNL     1     -40.747 -54.202  14.904  1.00  0.00     0.045 A 
HETATM   23  C   UNL     1     -39.793 -53.259  14.505  1.00  0.00     0.040 A 
ENDBRANCH  16  17
ENDBRANCH  15  16
ENDBRANCH  12  15
ENDBRANCH  11  12
ENDBRANCH  10  11
BRANCH   1  24
HETATM   24  C   UNL     1     -41.142 -49.443  10.861  1.00  0.00     0.240 C 
BRANCH  24  25
HETATM   25  O   UNL     1     -40.028 -50.124  10.303  1.00  0.00    -0.393 OA
HETATM   26  H   UNL     1     -39.922 -50.945  10.811  1.00  0.00     0.209 HD
ENDBRANCH  24  25
ENDBRANCH   1  24
TORSDOF 8
ENDMDL
MODEL 9
REMARK VINA RESULT:      -5.7      1.540      1.625
REMARK  8 active torsions:
REMARK  status: ('A' for Active; 'I' for Inactive)
REMARK    1  A    between atoms: O_1  and  C_2 
REMARK    2  A    between atoms: C_2  and  C_3 
REMARK    3  A    between atoms: N_12  and  C_13 
REMARK    4  A    between atoms: C_13  and  C_14 
REMARK    5  A    between atoms: C_14  and  O_15 
REMARK    6  A    between atoms: C_14  and  C_16 
REMARK    7  A    between atoms: C_16  and  O_17 
REMARK    8  A    between atoms: O_17  and  C_18 
ROOT
HETATM    1  C   UNL     1     -39.465 -49.264  12.120  1.00  0.00     0.108 A 
HETATM    2  N   UNL     1     -39.479 -48.219  11.313  1.00  0.00    -0.342 N 
ATOM      3  HN  UNL     1     -38.676 -47.782  10.861  1.00  0.00     0.167 HD
HETATM    4  C   UNL     1     -40.790 -47.841  11.209  1.00  0.00     0.060 A 
HETATM    5  C   UNL     1     -41.349 -46.784  10.474  1.00  0.00     0.032 A 
HETATM    6  C   UNL     1     -42.733 -46.586  10.521  1.00  0.00     0.002 A 
HETATM    7  C   UNL     1     -43.544 -47.427  11.284  1.00  0.00     0.002 A 
HETATM    8  C   UNL     1     -43.004 -48.495  12.013  1.00  0.00     0.032 A 
HETATM    9  C   UNL     1     -41.614 -48.676  11.957  1.00  0.00     0.062 A 
HETATM   10  N   UNL     1     -40.748 -49.590  12.522  1.00  0.00    -0.330 N 
ENDROOT
BRANCH  10  11
HETATM   11  C   UNL     1     -41.135 -50.770  13.282  1.00  0.00     0.164 C 
BRANCH  11  12
HETATM   12  C   UNL     1     -41.472 -51.999  12.422  1.00  0.00     0.160 C 
BRANCH  12  13
HETATM   13  O   UNL     1     -40.981 -51.858  11.081  1.00  0.00    -0.392 OA
HETATM   14  H   UNL     1     -40.023 -52.011  11.078  1.00  0.00     0.210 HD
ENDBRANCH  12  13
BRANCH  12  15
HETATM   15  C   UNL     1     -40.873 -53.287  13.019  1.00  0.00     0.209 C 
BRANCH  15  16
HETATM   16  O   UNL     1     -41.825 -54.349  12.957  1.00  0.00    -0.349 OA
BRANCH  16  17
HETATM   17  C   UNL     1     -42.942 -54.209  13.734  1.00  0.00     0.069 A 
HETATM   18  C   UNL     1     -44.158 -54.367  13.061  1.00  0.00     0.040 A 
HETATM   19  C   UNL     1     -45.370 -54.267  13.748  1.00  0.00     0.045 A 
HETATM   20  C   UNL     1     -45.358 -54.026  15.116  1.00  0.00     0.116 A 
HETATM   21  F   UNL     1     -46.517 -53.935  15.783  1.00  0.00    -0.206 F 
HETATM   22  C   UNL     1     -44.159 -53.888  15.805  1.00  0.00     0.045 A 
HETATM   23  C   UNL     1     -42.945 -53.981  15.114  1.00  0.00     0.040 A 
ENDBRANCH  16  17
ENDBRANCH  15  16
ENDBRANCH  12  15
ENDBRANCH  11  12
ENDBRANCH  10  11
BRANCH   1  24
HETATM   24  C   UNL     1     -38.236 -50.014  12.504  1.00  0.00     0.240 C 
BRANCH  24  25
HETATM   25  O   UNL     1     -38.018 -51.032  11.536  1.00  0.00    -0.393 OA
HETATM   26  H   UNL     1     -37.564 -50.609  10.788  1.00  0.00     0.209 HD
ENDBRANCH  24  25
ENDBRANCH   1  24
TORSDOF 8
ENDMDL
