MODEL 1
REMARK VINA RESULT:      -5.9      0.000      0.000
REMARK  6 active torsions:
REMARK  status: ('A' for Active; 'I' for Inactive)
REMARK    1  A    between atoms: C_2  and  C_3 
REMARK       I    between atoms: N_5  and  C_9 
REMARK    2  A    between atoms: C_9  and  C_11 
REMARK    3  A    between atoms: C_11  and  N_12 
REMARK    4  A    between atoms: N_12  and  C_13 
REMARK    5  A    between atoms: C_13  and  C_15 
REMARK    6  A    between atoms: C_15  and  N_17 
ROOT
HETATM    1  N   UNL     1     -43.338 -49.788  12.230  1.00  0.00     0.098 N 
HETATM    2  H   UNL     1     -44.326 -49.875  11.965  1.00  0.00     0.317 HD
ENDROOT
BRANCH   1   3
HETATM    3  C   UNL     1     -43.161 -50.571  13.466  1.00  0.00     0.372 C 
BRANCH   3   4
HETATM    4  C   UNL     1     -43.101 -52.078  13.151  1.00  0.00     0.248 C 
HETATM    5  N   UNL     1     -43.660 -52.928  14.094  1.00  0.00    -0.346 N 
HETATM    6  C   UNL     1     -44.313 -52.525  15.343  1.00  0.00     0.157 C 
HETATM    7  C   UNL     1     -43.506 -54.376  13.951  1.00  0.00     0.152 C 
HETATM    8  C   UNL     1     -45.643 -53.281  15.552  1.00  0.00     0.139 C 
HETATM    9  O   UNL     1     -45.440 -54.706  15.426  1.00  0.00    -0.383 OA
HETATM   10  C   UNL     1     -44.841 -55.085  14.174  1.00  0.00     0.188 C 
HETATM   11  O   UNL     1     -42.605 -52.504  12.105  1.00  0.00    -0.271 OA
BRANCH   8  12
HETATM   12  C   UNL     1     -46.795 -52.824  14.640  1.00  0.00     0.029 C 
HETATM   13  C   UNL     1     -46.781 -51.338  14.314  1.00  0.00     0.007 C 
ENDBRANCH   8  12
ENDBRANCH   3   4
ENDBRANCH   1   3
BRANCH   1  14
HETATM   14  C   UNL     1     -42.966 -48.367  12.372  1.00  0.00     0.241 C 
HETATM   15  C   UNL     1     -42.403 -48.110  13.780  1.00  0.00     0.045 C 
BRANCH  14  16
HETATM   16  C   UNL     1     -41.932 -47.907  11.297  1.00  0.00     0.136 C 
HETATM   17  C   UNL     1     -40.876 -48.964  10.949  1.00  0.00     0.036 C 
BRANCH  16  18
HETATM   18  N   UNL     1     -42.592 -47.377  10.102  1.00  0.00    -0.297 N 
HETATM   19  C   UNL     1     -43.137 -46.135   9.923  1.00  0.00     0.112 A 
HETATM   20  C   UNL     1     -43.675 -46.127   8.658  1.00  0.00     0.037 A 
HETATM   21  C   UNL     1     -43.392 -47.403   8.145  1.00  0.00     0.108 A 
HETATM   22  N   UNL     1     -42.722 -48.166   9.013  1.00  0.00    -0.310 N 
ATOM     23  HN  UNL     1     -42.386 -49.121   8.883  1.00  0.00     0.186 HD
ENDBRANCH  16  18
ENDBRANCH  14  16
ENDBRANCH   1  14
TORSDOF 6
ENDMDL
MODEL 2
REMARK VINA RESULT:      -5.6      1.977      3.149
REMARK  6 active torsions:
REMARK  status: ('A' for Active; 'I' for Inactive)
REMARK    1  A    between atoms: C_2  and  C_3 
REMARK       I    between atoms: N_5  and  C_9 
REMARK    2  A    between atoms: C_9  and  C_11 
REMARK    3  A    between atoms: C_11  and  N_12 
REMARK    4  A    between atoms: N_12  and  C_13 
REMARK    5  A    between atoms: C_13  and  C_15 
REMARK    6  A    between atoms: C_15  and  N_17 
ROOT
HETATM    1  N   UNL     1     -41.831 -50.331  11.567  1.00  0.00     0.098 N 
HETATM    2  H   UNL     1     -42.768 -50.112  11.211  1.00  0.00     0.317 HD
ENDROOT
BRANCH   1   3
HETATM    3  C   UNL     1     -42.020 -51.105  12.807  1.00  0.00     0.372 C 
BRANCH   3   4
HETATM    4  C   UNL     1     -43.435 -50.886  13.375  1.00  0.00     0.248 C 
HETATM    5  N   UNL     1     -44.343 -51.917  13.183  1.00  0.00    -0.346 N 
HETATM    6  C   UNL     1     -44.075 -53.192  12.512  1.00  0.00     0.157 C 
HETATM    7  C   UNL     1     -45.747 -51.728  13.549  1.00  0.00     0.152 C 
HETATM    8  C   UNL     1     -44.638 -54.382  13.320  1.00  0.00     0.139 C 
HETATM    9  O   UNL     1     -46.030 -54.164  13.638  1.00  0.00    -0.383 OA
HETATM   10  C   UNL     1     -46.266 -52.929  14.337  1.00  0.00     0.188 C 
HETATM   11  O   UNL     1     -43.738 -49.859  13.988  1.00  0.00    -0.271 OA
BRANCH   8  12
HETATM   12  C   UNL     1     -43.848 -54.728  14.594  1.00  0.00     0.029 C 
HETATM   13  C   UNL     1     -42.342 -54.565  14.458  1.00  0.00     0.007 C 
ENDBRANCH   8  12
ENDBRANCH   3   4
ENDBRANCH   1   3
BRANCH   1  14
HETATM   14  C   UNL     1     -41.051 -49.092  11.757  1.00  0.00     0.241 C 
HETATM   15  C   UNL     1     -39.553 -49.381  11.566  1.00  0.00     0.045 C 
BRANCH  14  16
HETATM   16  C   UNL     1     -41.496 -47.949  10.791  1.00  0.00     0.136 C 
HETATM   17  C   UNL     1     -43.017 -47.777  10.681  1.00  0.00     0.036 C 
BRANCH  16  18
HETATM   18  N   UNL     1     -40.821 -46.686  11.100  1.00  0.00    -0.297 N 
HETATM   19  C   UNL     1     -40.789 -46.019  12.294  1.00  0.00     0.112 A 
HETATM   20  C   UNL     1     -40.072 -44.868  12.076  1.00  0.00     0.037 A 
HETATM   21  C   UNL     1     -39.698 -44.934  10.723  1.00  0.00     0.108 A 
HETATM   22  N   UNL     1     -40.140 -46.044  10.126  1.00  0.00    -0.310 N 
ATOM     23  HN  UNL     1     -39.996 -46.339   9.159  1.00  0.00     0.186 HD
ENDBRANCH  16  18
ENDBRANCH  14  16
ENDBRANCH   1  14
TORSDOF 6
ENDMDL
MODEL 3
REMARK VINA RESULT:      -5.6      2.570      3.137
REMARK  6 active torsions:
REMARK  status: ('A' for Active; 'I' for Inactive)
REMARK    1  A    between atoms: C_2  and  C_3 
REMARK       I    between atoms: N_5  and  C_9 
REMARK    2  A    between atoms: C_9  and  C_11 
REMARK    3  A    between atoms: C_11  and  N_12 
REMARK    4  A    between atoms: N_12  and  C_13 
REMARK    5  A    between atoms: C_13  and  C_15 
REMARK    6  A    between atoms: C_15  and  N_17 
ROOT
HETATM    1  N   UNL     1     -40.483 -50.978  11.243  1.00  0.00     0.098 N 
HETATM    2  H   UNL     1     -40.393 -51.244  10.256  1.00  0.00     0.317 HD
ENDROOT
BRANCH   1   3
HETATM    3  C   UNL     1     -41.522 -51.848  11.822  1.00  0.00     0.372 C 
BRANCH   3   4
HETATM    4  C   UNL     1     -40.929 -52.740  12.929  1.00  0.00     0.248 C 
HETATM    5  N   UNL     1     -41.737 -52.973  14.033  1.00  0.00    -0.346 N 
HETATM    6  C   UNL     1     -43.098 -52.467  14.230  1.00  0.00     0.157 C 
HETATM    7  C   UNL     1     -41.195 -53.675  15.196  1.00  0.00     0.152 C 
HETATM    8  C   UNL     1     -44.042 -53.578  14.740  1.00  0.00     0.139 C 
HETATM    9  O   UNL     1     -43.480 -54.227  15.901  1.00  0.00    -0.383 OA
HETATM   10  C   UNL     1     -42.163 -54.757  15.672  1.00  0.00     0.188 C 
HETATM   11  O   UNL     1     -39.806 -53.241  12.828  1.00  0.00    -0.271 OA
BRANCH   8  12
HETATM   12  C   UNL     1     -44.437 -54.624  13.683  1.00  0.00     0.029 C 
HETATM   13  C   UNL     1     -45.779 -55.292  13.936  1.00  0.00     0.007 C 
ENDBRANCH   8  12
ENDBRANCH   3   4
ENDBRANCH   1   3
BRANCH   1  14
HETATM   14  C   UNL     1     -40.783 -49.538  11.362  1.00  0.00     0.241 C 
HETATM   15  C   UNL     1     -42.122 -49.339  12.091  1.00  0.00     0.045 C 
BRANCH  14  16
HETATM   16  C   UNL     1     -39.657 -48.750  12.102  1.00  0.00     0.136 C 
HETATM   17  C   UNL     1     -38.243 -49.289  11.848  1.00  0.00     0.036 C 
BRANCH  16  18
HETATM   18  N   UNL     1     -39.748 -47.310  11.849  1.00  0.00    -0.297 N 
HETATM   19  C   UNL     1     -39.700 -46.291  12.761  1.00  0.00     0.112 A 
HETATM   20  C   UNL     1     -39.871 -45.127  12.051  1.00  0.00     0.037 A 
HETATM   21  C   UNL     1     -39.999 -45.543  10.715  1.00  0.00     0.108 A 
HETATM   22  N   UNL     1     -39.912 -46.869  10.583  1.00  0.00    -0.310 N 
ATOM     23  HN  UNL     1     -39.959 -47.420   9.725  1.00  0.00     0.186 HD
ENDBRANCH  16  18
ENDBRANCH  14  16
ENDBRANCH   1  14
TORSDOF 6
ENDMDL
MODEL 4
REMARK VINA RESULT:      -5.6      1.619      2.256
REMARK  6 active torsions:
REMARK  status: ('A' for Active; 'I' for Inactive)
REMARK    1  A    between atoms: C_2  and  C_3 
REMARK       I    between atoms: N_5  and  C_9 
REMARK    2  A    between atoms: C_9  and  C_11 
REMARK    3  A    between atoms: C_11  and  N_12 
REMARK    4  A    between atoms: N_12  and  C_13 
REMARK    5  A    between atoms: C_13  and  C_15 
REMARK    6  A    between atoms: C_15  and  N_17 
ROOT
HETATM    1  N   UNL     1     -42.457 -49.985  11.716  1.00  0.00     0.098 N 
HETATM    2  H   UNL     1     -43.340 -49.563  11.406  1.00  0.00     0.317 HD
ENDROOT
BRANCH   1   3
HETATM    3  C   UNL     1     -42.711 -50.575  13.042  1.00  0.00     0.372 C 
BRANCH   3   4
HETATM    4  C   UNL     1     -42.530 -52.104  13.001  1.00  0.00     0.248 C 
HETATM    5  N   UNL     1     -43.129 -52.824  14.024  1.00  0.00    -0.346 N 
HETATM    6  C   UNL     1     -43.928 -52.269  15.120  1.00  0.00     0.157 C 
HETATM    7  C   UNL     1     -42.875 -54.260  14.149  1.00  0.00     0.152 C 
HETATM    8  C   UNL     1     -45.225 -53.079  15.337  1.00  0.00     0.139 C 
HETATM    9  O   UNL     1     -44.925 -54.485  15.480  1.00  0.00    -0.383 OA
HETATM   10  C   UNL     1     -44.181 -55.021  14.372  1.00  0.00     0.188 C 
HETATM   11  O   UNL     1     -41.906 -52.661  12.094  1.00  0.00    -0.271 OA
BRANCH   8  12
HETATM   12  C   UNL     1     -46.304 -52.870  14.260  1.00  0.00     0.029 C 
HETATM   13  C   UNL     1     -46.501 -51.420  13.847  1.00  0.00     0.007 C 
ENDBRANCH   8  12
ENDBRANCH   3   4
ENDBRANCH   1   3
BRANCH   1  14
HETATM   14  C   UNL     1     -41.377 -48.979  11.713  1.00  0.00     0.241 C 
HETATM   15  C   UNL     1     -40.020 -49.666  11.495  1.00  0.00     0.045 C 
BRANCH  14  16
HETATM   16  C   UNL     1     -41.590 -47.873  10.632  1.00  0.00     0.136 C 
HETATM   17  C   UNL     1     -43.058 -47.651  10.242  1.00  0.00     0.036 C 
BRANCH  16  18
HETATM   18  N   UNL     1     -40.925 -46.622  10.999  1.00  0.00    -0.297 N 
HETATM   19  C   UNL     1     -41.031 -45.924  12.171  1.00  0.00     0.112 A 
HETATM   20  C   UNL     1     -40.256 -44.799  12.024  1.00  0.00     0.037 A 
HETATM   21  C   UNL     1     -39.708 -44.912  10.736  1.00  0.00     0.108 A 
HETATM   22  N   UNL     1     -40.101 -46.025  10.110  1.00  0.00    -0.310 N 
ATOM     23  HN  UNL     1     -39.838 -46.349   9.178  1.00  0.00     0.186 HD
ENDBRANCH  16  18
ENDBRANCH  14  16
ENDBRANCH   1  14
TORSDOF 6
ENDMDL
MODEL 5
REMARK VINA RESULT:      -5.6      2.978      6.564
REMARK  6 active torsions:
REMARK  status: ('A' for Active; 'I' for Inactive)
REMARK    1  A    between atoms: C_2  and  C_3 
REMARK       I    between atoms: N_5  and  C_9 
REMARK    2  A    between atoms: C_9  and  C_11 
REMARK    3  A    between atoms: C_11  and  N_12 
REMARK    4  A    between atoms: N_12  and  C_13 
REMARK    5  A    between atoms: C_13  and  C_15 
REMARK    6  A    between atoms: C_15  and  N_17 
ROOT
HETATM    1  N   UNL     1     -42.774 -52.624  13.318  1.00  0.00     0.098 N 
HETATM    2  H   UNL     1     -43.611 -52.030  13.308  1.00  0.00     0.317 HD
ENDROOT
BRANCH   1   3
HETATM    3  C   UNL     1     -42.026 -52.325  12.084  1.00  0.00     0.372 C 
BRANCH   3   4
HETATM    4  C   UNL     1     -40.554 -52.002  12.404  1.00  0.00     0.248 C 
HETATM    5  N   UNL     1     -40.103 -50.744  12.035  1.00  0.00    -0.346 N 
HETATM    6  C   UNL     1     -40.899 -49.695  11.390  1.00  0.00     0.157 C 
HETATM    7  C   UNL     1     -38.683 -50.414  12.158  1.00  0.00     0.152 C 
HETATM    8  C   UNL     1     -40.668 -48.323  12.060  1.00  0.00     0.139 C 
HETATM    9  O   UNL     1     -39.257 -48.028  12.139  1.00  0.00    -0.383 OA
HETATM   10  C   UNL     1     -38.502 -49.048  12.816  1.00  0.00     0.188 C 
HETATM   11  O   UNL     1     -39.823 -52.812  12.981  1.00  0.00    -0.271 OA
BRANCH   8  12
HETATM   12  C   UNL     1     -41.325 -48.162  13.443  1.00  0.00     0.029 C 
HETATM   13  C   UNL     1     -42.735 -48.724  13.533  1.00  0.00     0.007 C 
ENDBRANCH   8  12
ENDBRANCH   3   4
ENDBRANCH   1   3
BRANCH   1  14
HETATM   14  C   UNL     1     -43.154 -54.045  13.448  1.00  0.00     0.241 C 
HETATM   15  C   UNL     1     -42.854 -54.540  14.872  1.00  0.00     0.045 C 
BRANCH  14  16
HETATM   16  C   UNL     1     -44.656 -54.298  13.105  1.00  0.00     0.136 C 
HETATM   17  C   UNL     1     -45.284 -55.472  13.868  1.00  0.00     0.036 C 
BRANCH  16  18
HETATM   18  N   UNL     1     -45.452 -53.075  13.227  1.00  0.00    -0.297 N 
HETATM   19  C   UNL     1     -45.914 -52.482  14.371  1.00  0.00     0.112 A 
HETATM   20  C   UNL     1     -46.644 -51.389  13.972  1.00  0.00     0.037 A 
HETATM   21  C   UNL     1     -46.555 -51.394  12.570  1.00  0.00     0.108 A 
HETATM   22  N   UNL     1     -45.820 -52.411  12.110  1.00  0.00    -0.310 N 
ATOM     23  HN  UNL     1     -45.590 -52.632  11.141  1.00  0.00     0.186 HD
ENDBRANCH  16  18
ENDBRANCH  14  16
ENDBRANCH   1  14
TORSDOF 6
ENDMDL
MODEL 6
REMARK VINA RESULT:      -5.5      2.202      2.557
REMARK  6 active torsions:
REMARK  status: ('A' for Active; 'I' for Inactive)
REMARK    1  A    between atoms: C_2  and  C_3 
REMARK       I    between atoms: N_5  and  C_9 
REMARK    2  A    between atoms: C_9  and  C_11 
REMARK    3  A    between atoms: C_11  and  N_12 
REMARK    4  A    between atoms: N_12  and  C_13 
REMARK    5  A    between atoms: C_13  and  C_15 
REMARK    6  A    between atoms: C_15  and  N_17 
ROOT
HETATM    1  N   UNL     1     -39.630 -50.320  13.871  1.00  0.00     0.098 N 
HETATM    2  H   UNL     1     -39.323 -50.921  13.098  1.00  0.00     0.317 HD
ENDROOT
BRANCH   1   3
HETATM    3  C   UNL     1     -41.086 -50.508  14.000  1.00  0.00     0.372 C 
BRANCH   3   4
HETATM    4  C   UNL     1     -41.566 -51.667  13.105  1.00  0.00     0.248 C 
HETATM    5  N   UNL     1     -42.502 -52.529  13.660  1.00  0.00    -0.346 N 
HETATM    6  C   UNL     1     -43.083 -52.426  15.001  1.00  0.00     0.157 C 
HETATM    7  C   UNL     1     -42.891 -53.741  12.939  1.00  0.00     0.152 C 
HETATM    8  C   UNL     1     -44.614 -52.624  14.966  1.00  0.00     0.139 C 
HETATM    9  O   UNL     1     -44.952 -53.843  14.268  1.00  0.00    -0.383 OA
HETATM   10  C   UNL     1     -44.410 -53.903  12.937  1.00  0.00     0.188 C 
HETATM   11  O   UNL     1     -41.159 -51.806  11.949  1.00  0.00    -0.271 OA
BRANCH   8  12
HETATM   12  C   UNL     1     -45.405 -51.439  14.383  1.00  0.00     0.029 C 
HETATM   13  C   UNL     1     -46.865 -51.396  14.804  1.00  0.00     0.007 C 
ENDBRANCH   8  12
ENDBRANCH   3   4
ENDBRANCH   1   3
BRANCH   1  14
HETATM   14  C   UNL     1     -39.235 -48.920  13.622  1.00  0.00     0.241 C 
HETATM   15  C   UNL     1     -38.019 -48.556  14.490  1.00  0.00     0.045 C 
BRANCH  14  16
HETATM   16  C   UNL     1     -38.914 -48.645  12.120  1.00  0.00     0.136 C 
HETATM   17  C   UNL     1     -38.242 -49.819  11.396  1.00  0.00     0.036 C 
BRANCH  16  18
HETATM   18  N   UNL     1     -40.089 -48.155  11.396  1.00  0.00    -0.297 N 
HETATM   19  C   UNL     1     -40.553 -46.870  11.315  1.00  0.00     0.112 A 
HETATM   20  C   UNL     1     -41.702 -46.918  10.564  1.00  0.00     0.037 A 
HETATM   21  C   UNL     1     -41.844 -48.273  10.222  1.00  0.00     0.108 A 
HETATM   22  N   UNL     1     -40.860 -49.030  10.714  1.00  0.00    -0.310 N 
ATOM     23  HN  UNL     1     -40.721 -50.035  10.600  1.00  0.00     0.186 HD
ENDBRANCH  16  18
ENDBRANCH  14  16
ENDBRANCH   1  14
TORSDOF 6
ENDMDL
MODEL 7
REMARK VINA RESULT:      -5.4      1.484      2.431
REMARK  6 active torsions:
REMARK  status: ('A' for Active; 'I' for Inactive)
REMARK    1  A    between atoms: C_2  and  C_3 
REMARK       I    between atoms: N_5  and  C_9 
REMARK    2  A    between atoms: C_9  and  C_11 
REMARK    3  A    between atoms: C_11  and  N_12 
REMARK    4  A    between atoms: N_12  and  C_13 
REMARK    5  A    between atoms: C_13  and  C_15 
REMARK    6  A    between atoms: C_15  and  N_17 
ROOT
HETATM    1  N   UNL     1     -42.795 -49.793  11.834  1.00  0.00     0.098 N 
HETATM    2  H   UNL     1     -43.639 -49.244  12.036  1.00  0.00     0.317 HD
ENDROOT
BRANCH   1   3
HETATM    3  C   UNL     1     -42.752 -50.884  12.824  1.00  0.00     0.372 C 
BRANCH   3   4
HETATM    4  C   UNL     1     -43.883 -50.725  13.858  1.00  0.00     0.248 C 
HETATM    5  N   UNL     1     -44.883 -51.687  13.832  1.00  0.00    -0.346 N 
HETATM    6  C   UNL     1     -44.949 -52.840  12.930  1.00  0.00     0.157 C 
HETATM    7  C   UNL     1     -46.071 -51.524  14.669  1.00  0.00     0.152 C 
HETATM    8  C   UNL     1     -45.311 -54.132  13.696  1.00  0.00     0.139 C 
HETATM    9  O   UNL     1     -46.501 -53.934  14.489  1.00  0.00    -0.383 OA
HETATM   10  C   UNL     1     -46.398 -52.825  15.400  1.00  0.00     0.188 C 
HETATM   11  O   UNL     1     -43.887 -49.805  14.681  1.00  0.00    -0.271 OA
BRANCH   8  12
HETATM   12  C   UNL     1     -44.178 -54.703  14.567  1.00  0.00     0.029 C 
HETATM   13  C   UNL     1     -42.787 -54.524  13.979  1.00  0.00     0.007 C 
ENDBRANCH   8  12
ENDBRANCH   3   4
ENDBRANCH   1   3
BRANCH   1  14
HETATM   14  C   UNL     1     -41.601 -48.926  11.858  1.00  0.00     0.241 C 
HETATM   15  C   UNL     1     -40.462 -49.578  11.056  1.00  0.00     0.045 C 
BRANCH  14  16
HETATM   16  C   UNL     1     -41.887 -47.495  11.302  1.00  0.00     0.136 C 
HETATM   17  C   UNL     1     -40.627 -46.704  10.927  1.00  0.00     0.036 C 
BRANCH  16  18
HETATM   18  N   UNL     1     -42.862 -47.524  10.210  1.00  0.00    -0.297 N 
HETATM   19  C   UNL     1     -44.212 -47.312  10.281  1.00  0.00     0.112 A 
HETATM   20  C   UNL     1     -44.699 -47.488   9.008  1.00  0.00     0.037 A 
HETATM   21  C   UNL     1     -43.567 -47.788   8.233  1.00  0.00     0.108 A 
HETATM   22  N   UNL     1     -42.443 -47.799   8.955  1.00  0.00    -0.310 N 
ATOM     23  HN  UNL     1     -41.490 -47.975   8.634  1.00  0.00     0.186 HD
ENDBRANCH  16  18
ENDBRANCH  14  16
ENDBRANCH   1  14
TORSDOF 6
ENDMDL
MODEL 8
REMARK VINA RESULT:      -5.4      2.022      2.489
REMARK  6 active torsions:
REMARK  status: ('A' for Active; 'I' for Inactive)
REMARK    1  A    between atoms: C_2  and  C_3 
REMARK       I    between atoms: N_5  and  C_9 
REMARK    2  A    between atoms: C_9  and  C_11 
REMARK    3  A    between atoms: C_11  and  N_12 
REMARK    4  A    between atoms: N_12  and  C_13 
REMARK    5  A    between atoms: C_13  and  C_15 
REMARK    6  A    between atoms: C_15  and  N_17 
ROOT
HETATM    1  N   UNL     1     -42.290 -48.301  13.321  1.00  0.00     0.098 N 
HETATM    2  H   UNL     1     -41.298 -48.278  13.057  1.00  0.00     0.317 HD
ENDROOT
BRANCH   1   3
HETATM    3  C   UNL     1     -42.839 -49.562  12.792  1.00  0.00     0.372 C 
BRANCH   3   4
HETATM    4  C   UNL     1     -41.707 -50.556  12.470  1.00  0.00     0.248 C 
HETATM    5  N   UNL     1     -41.714 -51.750  13.177  1.00  0.00    -0.346 N 
HETATM    6  C   UNL     1     -42.704 -52.156  14.178  1.00  0.00     0.157 C 
HETATM    7  C   UNL     1     -40.591 -52.678  13.048  1.00  0.00     0.152 C 
HETATM    8  C   UNL     1     -43.166 -53.612  13.953  1.00  0.00     0.139 C 
HETATM    9  O   UNL     1     -42.028 -54.496  13.856  1.00  0.00    -0.383 OA
HETATM   10  C   UNL     1     -41.092 -54.106  12.836  1.00  0.00     0.188 C 
HETATM   11  O   UNL     1     -40.853 -50.313  11.613  1.00  0.00    -0.271 OA
BRANCH   8  12
HETATM   12  C   UNL     1     -44.101 -53.813  12.747  1.00  0.00     0.029 C 
HETATM   13  C   UNL     1     -45.221 -52.789  12.649  1.00  0.00     0.007 C 
ENDBRANCH   8  12
ENDBRANCH   3   4
ENDBRANCH   1   3
BRANCH   1  14
HETATM   14  C   UNL     1     -42.984 -47.098  12.822  1.00  0.00     0.241 C 
HETATM   15  C   UNL     1     -43.203 -46.103  13.973  1.00  0.00     0.045 C 
BRANCH  14  16
HETATM   16  C   UNL     1     -42.213 -46.400  11.658  1.00  0.00     0.136 C 
HETATM   17  C   UNL     1     -40.723 -46.759  11.588  1.00  0.00     0.036 C 
BRANCH  16  18
HETATM   18  N   UNL     1     -42.885 -46.593  10.371  1.00  0.00    -0.297 N 
HETATM   19  C   UNL     1     -42.822 -47.681   9.544  1.00  0.00     0.112 A 
HETATM   20  C   UNL     1     -43.583 -47.374   8.442  1.00  0.00     0.037 A 
HETATM   21  C   UNL     1     -44.078 -46.085   8.701  1.00  0.00     0.108 A 
HETATM   22  N   UNL     1     -43.668 -45.608   9.879  1.00  0.00    -0.310 N 
ATOM     23  HN  UNL     1     -43.894 -44.710  10.307  1.00  0.00     0.186 HD
ENDBRANCH  16  18
ENDBRANCH  14  16
ENDBRANCH   1  14
TORSDOF 6
ENDMDL
MODEL 9
REMARK VINA RESULT:      -5.4      1.456      2.523
REMARK  6 active torsions:
REMARK  status: ('A' for Active; 'I' for Inactive)
REMARK    1  A    between atoms: C_2  and  C_3 
REMARK       I    between atoms: N_5  and  C_9 
REMARK    2  A    between atoms: C_9  and  C_11 
REMARK    3  A    between atoms: C_11  and  N_12 
REMARK    4  A    between atoms: N_12  and  C_13 
REMARK    5  A    between atoms: C_13  and  C_15 
REMARK    6  A    between atoms: C_15  and  N_17 
ROOT
HETATM    1  N   UNL     1     -43.330 -49.625  12.079  1.00  0.00     0.098 N 
HETATM    2  H   UNL     1     -44.341 -49.752  11.954  1.00  0.00     0.317 HD
ENDROOT
BRANCH   1   3
HETATM    3  C   UNL     1     -42.989 -50.209  13.388  1.00  0.00     0.372 C 
BRANCH   3   4
HETATM    4  C   UNL     1     -42.668 -51.709  13.247  1.00  0.00     0.248 C 
HETATM    5  N   UNL     1     -43.182 -52.545  14.229  1.00  0.00    -0.346 N 
HETATM    6  C   UNL     1     -44.010 -52.135  15.366  1.00  0.00     0.157 C 
HETATM    7  C   UNL     1     -42.795 -53.955  14.259  1.00  0.00     0.152 C 
HETATM    8  C   UNL     1     -45.223 -53.075  15.545  1.00  0.00     0.139 C 
HETATM    9  O   UNL     1     -44.793 -54.453  15.594  1.00  0.00    -0.383 OA
HETATM   10  C   UNL     1     -44.021 -54.847  14.447  1.00  0.00     0.188 C 
HETATM   11  O   UNL     1     -42.011 -52.147  12.299  1.00  0.00    -0.271 OA
BRANCH   8  12
HETATM   12  C   UNL     1     -46.335 -52.900  14.496  1.00  0.00     0.029 C 
HETATM   13  C   UNL     1     -46.631 -51.453  14.136  1.00  0.00     0.007 C 
ENDBRANCH   8  12
ENDBRANCH   3   4
ENDBRANCH   1   3
BRANCH   1  14
HETATM   14  C   UNL     1     -42.972 -48.198  11.957  1.00  0.00     0.241 C 
HETATM   15  C   UNL     1     -42.538 -47.647  13.325  1.00  0.00     0.045 C 
BRANCH  14  16
HETATM   16  C   UNL     1     -41.846 -47.950  10.905  1.00  0.00     0.136 C 
HETATM   17  C   UNL     1     -41.614 -46.471  10.569  1.00  0.00     0.036 C 
BRANCH  16  18
HETATM   18  N   UNL     1     -40.602 -48.630  11.273  1.00  0.00    -0.297 N 
HETATM   19  C   UNL     1     -39.562 -48.140  12.015  1.00  0.00     0.112 A 
HETATM   20  C   UNL     1     -38.610 -49.130  12.050  1.00  0.00     0.037 A 
HETATM   21  C   UNL     1     -39.171 -50.187  11.314  1.00  0.00     0.108 A 
HETATM   22  N   UNL     1     -40.389 -49.895  10.849  1.00  0.00    -0.310 N 
ATOM     23  HN  UNL     1     -41.012 -50.490  10.302  1.00  0.00     0.186 HD
ENDBRANCH  16  18
ENDBRANCH  14  16
ENDBRANCH   1  14
TORSDOF 6
ENDMDL
