MODEL 1
REMARK VINA RESULT:      -6.3      0.000      0.000
REMARK  8 active torsions:
REMARK  status: ('A' for Active; 'I' for Inactive)
REMARK    1  A    between atoms: O_1  and  C_2 
REMARK    2  A    between atoms: C_4  and  C_19 
REMARK    3  A    between atoms: C_7  and  S_8 
REMARK    4  A    between atoms: S_8  and  C_9 
REMARK    5  A    between atoms: C_9  and  C_10 
REMARK    6  A    between atoms: C_10  and  O_11 
REMARK    7  A    between atoms: O_11  and  C_12 
REMARK    8  A    between atoms: C_12  and  C_13 
ROOT
HETATM    1  C   UNL     1     -41.576 -52.358  11.900  1.00  0.00     0.143 A 
HETATM    2  C   UNL     1     -42.739 -52.841  12.453  1.00  0.00     0.081 A 
HETATM    3  C   UNL     1     -43.641 -51.897  12.903  1.00  0.00     0.019 A 
HETATM    4  N   UNL     1     -43.372 -50.579  12.785  1.00  0.00    -0.340 N 
ATOM      5  HN  UNL     1     -44.038 -49.879  13.112  1.00  0.00     0.168 HD
HETATM    6  C   UNL     1     -42.207 -50.215  12.225  1.00  0.00     0.146 A 
HETATM    7  N   UNL     1     -41.281 -51.062  11.774  1.00  0.00    -0.318 N 
ATOM      8  HN  UNL     1     -40.406 -50.741  11.360  1.00  0.00     0.170 HD
ENDROOT
BRANCH   6   9
HETATM    9  S   UNL     1     -41.935 -48.466  12.085  1.00  0.00    -0.092 SA
BRANCH   9  10
HETATM   10  C   UNL     1     -43.411 -47.966  11.144  1.00  0.00     0.108 C 
BRANCH  10  11
HETATM   11  C   UNL     1     -42.981 -47.515   9.750  1.00  0.00     0.178 C 
BRANCH  11  12
HETATM   12  O   UNL     1     -44.033 -47.778   8.814  1.00  0.00    -0.382 OA
BRANCH  12  13
HETATM   13  C   UNL     1     -45.298 -47.302   9.304  1.00  0.00     0.285 C 
BRANCH  13  14
HETATM   14  C   UNL     1     -46.482 -48.193   8.919  1.00  0.00     0.408 C 
HETATM   15  F   UNL     1     -46.383 -48.700   7.672  1.00  0.00    -0.169 F 
HETATM   16  F   UNL     1     -46.592 -49.237   9.775  1.00  0.00    -0.169 F 
HETATM   17  F   UNL     1     -47.645 -47.501   8.986  1.00  0.00    -0.169 F 
ENDBRANCH  13  14
ENDBRANCH  12  13
ENDBRANCH  11  12
ENDBRANCH  10  11
ENDBRANCH   9  10
ENDBRANCH   6   9
BRANCH   3  18
HETATM   18  C   UNL     1     -44.976 -52.277  13.498  1.00  0.00     0.036 A 
HETATM   19  C   UNL     1     -46.221 -52.052  12.665  1.00  0.00     0.011 A 
HETATM   20  C   UNL     1     -46.009 -51.260  13.920  1.00  0.00     0.011 A 
ENDBRANCH   3  18
BRANCH   1  21
HETATM   21  O   UNL     1     -40.617 -53.202  11.423  1.00  0.00    -0.346 OA
HETATM   22  H   UNL     1     -39.746 -52.836  11.630  1.00  0.00     0.219 HD
ENDBRANCH   1  21
TORSDOF 8
ENDMDL
MODEL 2
REMARK VINA RESULT:      -5.8      2.696      5.579
REMARK  8 active torsions:
REMARK  status: ('A' for Active; 'I' for Inactive)
REMARK    1  A    between atoms: O_1  and  C_2 
REMARK    2  A    between atoms: C_4  and  C_19 
REMARK    3  A    between atoms: C_7  and  S_8 
REMARK    4  A    between atoms: S_8  and  C_9 
REMARK    5  A    between atoms: C_9  and  C_10 
REMARK    6  A    between atoms: C_10  and  O_11 
REMARK    7  A    between atoms: O_11  and  C_12 
REMARK    8  A    between atoms: C_12  and  C_13 
ROOT
HETATM    1  C   UNL     1     -41.567 -46.311  10.006  1.00  0.00     0.143 A 
HETATM    2  C   UNL     1     -42.914 -46.289   9.734  1.00  0.00     0.081 A 
HETATM    3  C   UNL     1     -43.623 -47.428  10.062  1.00  0.00     0.019 A 
HETATM    4  N   UNL     1     -43.002 -48.485  10.626  1.00  0.00    -0.340 N 
ATOM      5  HN  UNL     1     -43.524 -49.327  10.874  1.00  0.00     0.168 HD
HETATM    6  C   UNL     1     -41.681 -48.401  10.853  1.00  0.00     0.146 A 
HETATM    7  N   UNL     1     -40.925 -47.343  10.559  1.00  0.00    -0.318 N 
ATOM      8  HN  UNL     1     -39.922 -47.324  10.745  1.00  0.00     0.170 HD
ENDROOT
BRANCH   6   9
HETATM    9  S   UNL     1     -40.941 -49.822  11.617  1.00  0.00    -0.092 SA
BRANCH   9  10
HETATM   10  C   UNL     1     -42.340 -50.452  12.596  1.00  0.00     0.108 C 
BRANCH  10  11
HETATM   11  C   UNL     1     -42.380 -51.974  12.484  1.00  0.00     0.178 C 
BRANCH  11  12
HETATM   12  O   UNL     1     -43.437 -52.488  13.301  1.00  0.00    -0.382 OA
BRANCH  12  13
HETATM   13  C   UNL     1     -44.493 -53.046  12.499  1.00  0.00     0.285 C 
BRANCH  13  14
HETATM   14  C   UNL     1     -45.847 -52.361  12.700  1.00  0.00     0.408 C 
HETATM   15  F   UNL     1     -45.740 -51.073  13.088  1.00  0.00    -0.169 F 
HETATM   16  F   UNL     1     -46.568 -52.382  11.553  1.00  0.00    -0.169 F 
HETATM   17  F   UNL     1     -46.577 -53.009  13.640  1.00  0.00    -0.169 F 
ENDBRANCH  13  14
ENDBRANCH  12  13
ENDBRANCH  11  12
ENDBRANCH  10  11
ENDBRANCH   9  10
ENDBRANCH   6   9
BRANCH   3  18
HETATM   18  C   UNL     1     -45.117 -47.535   9.856  1.00  0.00     0.036 A 
HETATM   19  C   UNL     1     -45.621 -48.012   8.511  1.00  0.00     0.011 A 
HETATM   20  C   UNL     1     -45.891 -46.606   8.953  1.00  0.00     0.011 A 
ENDBRANCH   3  18
BRANCH   1  21
HETATM   21  O   UNL     1     -40.772 -45.240   9.724  1.00  0.00    -0.346 OA
HETATM   22  H   UNL     1     -40.194 -45.466   8.982  1.00  0.00     0.219 HD
ENDBRANCH   1  21
TORSDOF 8
ENDMDL
MODEL 3
REMARK VINA RESULT:      -5.8      0.946      1.341
REMARK  8 active torsions:
REMARK  status: ('A' for Active; 'I' for Inactive)
REMARK    1  A    between atoms: O_1  and  C_2 
REMARK    2  A    between atoms: C_4  and  C_19 
REMARK    3  A    between atoms: C_7  and  S_8 
REMARK    4  A    between atoms: S_8  and  C_9 
REMARK    5  A    between atoms: C_9  and  C_10 
REMARK    6  A    between atoms: C_10  and  O_11 
REMARK    7  A    between atoms: O_11  and  C_12 
REMARK    8  A    between atoms: C_12  and  C_13 
ROOT
HETATM    1  C   UNL     1     -41.743 -52.363  11.950  1.00  0.00     0.143 A 
HETATM    2  C   UNL     1     -42.943 -52.912  12.337  1.00  0.00     0.081 A 
HETATM    3  C   UNL     1     -43.886 -52.033  12.831  1.00  0.00     0.019 A 
HETATM    4  N   UNL     1     -43.620 -50.712  12.910  1.00  0.00    -0.340 N 
ATOM      5  HN  UNL     1     -44.317 -50.059  13.270  1.00  0.00     0.168 HD
HETATM    6  C   UNL     1     -42.416 -50.280  12.501  1.00  0.00     0.146 A 
HETATM    7  N   UNL     1     -41.450 -51.063  12.020  1.00  0.00    -0.318 N 
ATOM      8  HN  UNL     1     -40.546 -50.692  11.725  1.00  0.00     0.170 HD
ENDROOT
BRANCH   6   9
HETATM    9  S   UNL     1     -42.149 -48.528  12.615  1.00  0.00    -0.092 SA
BRANCH   9  10
HETATM   10  C   UNL     1     -41.230 -48.223  11.074  1.00  0.00     0.108 C 
BRANCH  10  11
HETATM   11  C   UNL     1     -42.224 -48.059   9.927  1.00  0.00     0.178 C 
BRANCH  11  12
HETATM   12  O   UNL     1     -43.412 -47.422  10.408  1.00  0.00    -0.382 OA
BRANCH  12  13
HETATM   13  C   UNL     1     -44.136 -46.790   9.338  1.00  0.00     0.285 C 
BRANCH  13  14
HETATM   14  C   UNL     1     -45.437 -47.506   8.967  1.00  0.00     0.408 C 
HETATM   15  F   UNL     1     -45.871 -48.353   9.925  1.00  0.00    -0.169 F 
HETATM   16  F   UNL     1     -46.427 -46.610   8.738  1.00  0.00    -0.169 F 
HETATM   17  F   UNL     1     -45.281 -48.225   7.829  1.00  0.00    -0.169 F 
ENDBRANCH  13  14
ENDBRANCH  12  13
ENDBRANCH  11  12
ENDBRANCH  10  11
ENDBRANCH   9  10
ENDBRANCH   6   9
BRANCH   3  18
HETATM   18  C   UNL     1     -45.263 -52.486  13.259  1.00  0.00     0.036 A 
HETATM   19  C   UNL     1     -46.447 -52.082  12.405  1.00  0.00     0.011 A 
HETATM   20  C   UNL     1     -46.310 -51.539  13.796  1.00  0.00     0.011 A 
ENDBRANCH   3  18
BRANCH   1  21
HETATM   21  O   UNL     1     -40.741 -53.140  11.447  1.00  0.00    -0.346 OA
HETATM   22  H   UNL     1     -40.038 -52.565  11.113  1.00  0.00     0.219 HD
ENDBRANCH   1  21
TORSDOF 8
ENDMDL
MODEL 4
REMARK VINA RESULT:      -5.7      3.299      5.927
REMARK  8 active torsions:
REMARK  status: ('A' for Active; 'I' for Inactive)
REMARK    1  A    between atoms: O_1  and  C_2 
REMARK    2  A    between atoms: C_4  and  C_19 
REMARK    3  A    between atoms: C_7  and  S_8 
REMARK    4  A    between atoms: S_8  and  C_9 
REMARK    5  A    between atoms: C_9  and  C_10 
REMARK    6  A    between atoms: C_10  and  O_11 
REMARK    7  A    between atoms: O_11  and  C_12 
REMARK    8  A    between atoms: C_12  and  C_13 
ROOT
HETATM    1  C   UNL     1     -41.788 -49.293  11.370  1.00  0.00     0.143 A 
HETATM    2  C   UNL     1     -40.444 -49.007  11.435  1.00  0.00     0.081 A 
HETATM    3  C   UNL     1     -39.670 -49.872  12.184  1.00  0.00     0.019 A 
HETATM    4  N   UNL     1     -40.228 -50.936  12.799  1.00  0.00    -0.340 N 
ATOM      5  HN  UNL     1     -39.658 -51.579  13.349  1.00  0.00     0.168 HD
HETATM    6  C   UNL     1     -41.550 -51.126  12.668  1.00  0.00     0.146 A 
HETATM    7  N   UNL     1     -42.367 -50.335  11.971  1.00  0.00    -0.318 N 
ATOM      8  HN  UNL     1     -43.369 -50.515  11.902  1.00  0.00     0.170 HD
ENDROOT
BRANCH   6   9
HETATM    9  S   UNL     1     -42.206 -52.558  13.488  1.00  0.00    -0.092 SA
BRANCH   9  10
HETATM   10  C   UNL     1     -43.525 -53.039  12.329  1.00  0.00     0.108 C 
BRANCH  10  11
HETATM   11  C   UNL     1     -44.399 -54.105  12.986  1.00  0.00     0.178 C 
BRANCH  11  12
HETATM   12  O   UNL     1     -45.771 -53.702  12.934  1.00  0.00    -0.382 OA
BRANCH  12  13
HETATM   13  C   UNL     1     -46.162 -53.023  14.140  1.00  0.00     0.285 C 
BRANCH  13  14
HETATM   14  C   UNL     1     -46.418 -51.526  13.948  1.00  0.00     0.408 C 
HETATM   15  F   UNL     1     -45.308 -50.772  14.094  1.00  0.00    -0.169 F 
HETATM   16  F   UNL     1     -46.917 -51.281  12.713  1.00  0.00    -0.169 F 
HETATM   17  F   UNL     1     -47.334 -51.078  14.842  1.00  0.00    -0.169 F 
ENDBRANCH  13  14
ENDBRANCH  12  13
ENDBRANCH  11  12
ENDBRANCH  10  11
ENDBRANCH   9  10
ENDBRANCH   6   9
BRANCH   3  18
HETATM   18  C   UNL     1     -38.174 -49.706  12.314  1.00  0.00     0.036 A 
HETATM   19  C   UNL     1     -37.304 -50.113  11.144  1.00  0.00     0.011 A 
HETATM   20  C   UNL     1     -37.224 -50.873  12.433  1.00  0.00     0.011 A 
ENDBRANCH   3  18
BRANCH   1  21
HETATM   21  O   UNL     1     -42.644 -48.507  10.657  1.00  0.00    -0.346 OA
HETATM   22  H   UNL     1     -43.469 -48.991  10.516  1.00  0.00     0.219 HD
ENDBRANCH   1  21
TORSDOF 8
ENDMDL
MODEL 5
REMARK VINA RESULT:      -5.6      5.180      6.394
REMARK  8 active torsions:
REMARK  status: ('A' for Active; 'I' for Inactive)
REMARK    1  A    between atoms: O_1  and  C_2 
REMARK    2  A    between atoms: C_4  and  C_19 
REMARK    3  A    between atoms: C_7  and  S_8 
REMARK    4  A    between atoms: S_8  and  C_9 
REMARK    5  A    between atoms: C_9  and  C_10 
REMARK    6  A    between atoms: C_10  and  O_11 
REMARK    7  A    between atoms: O_11  and  C_12 
REMARK    8  A    between atoms: C_12  and  C_13 
ROOT
HETATM    1  C   UNL     1     -46.154 -52.281  12.346  1.00  0.00     0.143 A 
HETATM    2  C   UNL     1     -46.643 -51.749  13.516  1.00  0.00     0.081 A 
HETATM    3  C   UNL     1     -45.765 -51.703  14.581  1.00  0.00     0.019 A 
HETATM    4  N   UNL     1     -44.500 -52.156  14.449  1.00  0.00    -0.340 N 
ATOM      5  HN  UNL     1     -43.848 -52.120  15.233  1.00  0.00     0.168 HD
HETATM    6  C   UNL     1     -44.123 -52.653  13.260  1.00  0.00     0.146 A 
HETATM    7  N   UNL     1     -44.910 -52.739  12.187  1.00  0.00    -0.318 N 
ATOM      8  HN  UNL     1     -44.582 -53.129  11.303  1.00  0.00     0.170 HD
ENDROOT
BRANCH   6   9
HETATM    9  S   UNL     1     -42.439 -53.208  13.158  1.00  0.00    -0.092 SA
BRANCH   9  10
HETATM   10  C   UNL     1     -41.549 -51.653  13.481  1.00  0.00     0.108 C 
BRANCH  10  11
HETATM   11  C   UNL     1     -40.081 -51.970  13.759  1.00  0.00     0.178 C 
BRANCH  11  12
HETATM   12  O   UNL     1     -39.332 -51.887  12.542  1.00  0.00    -0.382 OA
BRANCH  12  13
HETATM   13  C   UNL     1     -39.143 -50.520  12.137  1.00  0.00     0.285 C 
BRANCH  13  14
HETATM   14  C   UNL     1     -37.674 -50.092  12.079  1.00  0.00     0.408 C 
HETATM   15  F   UNL     1     -37.314 -49.590  10.879  1.00  0.00    -0.169 F 
HETATM   16  F   UNL     1     -37.416 -49.143  13.011  1.00  0.00    -0.169 F 
HETATM   17  F   UNL     1     -36.858 -51.141  12.343  1.00  0.00    -0.169 F 
ENDBRANCH  13  14
ENDBRANCH  12  13
ENDBRANCH  11  12
ENDBRANCH  10  11
ENDBRANCH   9  10
ENDBRANCH   6   9
BRANCH   3  18
HETATM   18  C   UNL     1     -46.150 -51.111  15.917  1.00  0.00     0.036 A 
HETATM   19  C   UNL     1     -46.499 -52.059  17.046  1.00  0.00     0.011 A 
HETATM   20  C   UNL     1     -47.555 -51.166  16.467  1.00  0.00     0.011 A 
ENDBRANCH   3  18
BRANCH   1  21
HETATM   21  O   UNL     1     -46.934 -52.372  11.231  1.00  0.00    -0.346 OA
HETATM   22  H   UNL     1     -47.858 -52.459  11.502  1.00  0.00     0.219 HD
ENDBRANCH   1  21
TORSDOF 8
ENDMDL
MODEL 6
REMARK VINA RESULT:      -5.5      3.040      5.035
REMARK  8 active torsions:
REMARK  status: ('A' for Active; 'I' for Inactive)
REMARK    1  A    between atoms: O_1  and  C_2 
REMARK    2  A    between atoms: C_4  and  C_19 
REMARK    3  A    between atoms: C_7  and  S_8 
REMARK    4  A    between atoms: S_8  and  C_9 
REMARK    5  A    between atoms: C_9  and  C_10 
REMARK    6  A    between atoms: C_10  and  O_11 
REMARK    7  A    between atoms: O_11  and  C_12 
REMARK    8  A    between atoms: C_12  and  C_13 
ROOT
HETATM    1  C   UNL     1     -39.435 -49.551  11.755  1.00  0.00     0.143 A 
HETATM    2  C   UNL     1     -40.441 -48.618  11.654  1.00  0.00     0.081 A 
HETATM    3  C   UNL     1     -41.733 -49.104  11.700  1.00  0.00     0.019 A 
HETATM    4  N   UNL     1     -41.965 -50.425  11.846  1.00  0.00    -0.340 N 
ATOM      5  HN  UNL     1     -42.918 -50.787  11.885  1.00  0.00     0.168 HD
HETATM    6  C   UNL     1     -40.910 -51.251  11.939  1.00  0.00     0.146 A 
HETATM    7  N   UNL     1     -39.635 -50.864  11.895  1.00  0.00    -0.318 N 
ATOM      8  HN  UNL     1     -38.863 -51.527  11.964  1.00  0.00     0.170 HD
ENDROOT
BRANCH   6   9
HETATM    9  S   UNL     1     -41.297 -52.971  12.150  1.00  0.00    -0.092 SA
BRANCH   9  10
HETATM   10  C   UNL     1     -42.648 -52.870  13.364  1.00  0.00     0.108 C 
BRANCH  10  11
HETATM   11  C   UNL     1     -43.662 -53.973  13.073  1.00  0.00     0.178 C 
BRANCH  11  12
HETATM   12  O   UNL     1     -44.765 -53.431  12.338  1.00  0.00    -0.382 OA
BRANCH  12  13
HETATM   13  C   UNL     1     -45.842 -53.055  13.214  1.00  0.00     0.285 C 
BRANCH  13  14
HETATM   14  C   UNL     1     -46.301 -51.605  13.038  1.00  0.00     0.408 C 
HETATM   15  F   UNL     1     -47.122 -51.431  11.981  1.00  0.00    -0.169 F 
HETATM   16  F   UNL     1     -46.962 -51.177  14.141  1.00  0.00    -0.169 F 
HETATM   17  F   UNL     1     -45.238 -50.782  12.868  1.00  0.00    -0.169 F 
ENDBRANCH  13  14
ENDBRANCH  12  13
ENDBRANCH  11  12
ENDBRANCH  10  11
ENDBRANCH   9  10
ENDBRANCH   6   9
BRANCH   3  18
HETATM   18  C   UNL     1     -42.938 -48.194  11.640  1.00  0.00     0.036 A 
HETATM   19  C   UNL     1     -43.361 -47.655  10.290  1.00  0.00     0.011 A 
HETATM   20  C   UNL     1     -42.840 -46.718  11.338  1.00  0.00     0.011 A 
ENDBRANCH   3  18
BRANCH   1  21
HETATM   21  O   UNL     1     -38.123 -49.182  11.722  1.00  0.00    -0.346 OA
HETATM   22  H   UNL     1     -37.574 -49.963  11.880  1.00  0.00     0.219 HD
ENDBRANCH   1  21
TORSDOF 8
ENDMDL
MODEL 7
REMARK VINA RESULT:      -5.4      4.543      6.210
REMARK  8 active torsions:
REMARK  status: ('A' for Active; 'I' for Inactive)
REMARK    1  A    between atoms: O_1  and  C_2 
REMARK    2  A    between atoms: C_4  and  C_19 
REMARK    3  A    between atoms: C_7  and  S_8 
REMARK    4  A    between atoms: S_8  and  C_9 
REMARK    5  A    between atoms: C_9  and  C_10 
REMARK    6  A    between atoms: C_10  and  O_11 
REMARK    7  A    between atoms: O_11  and  C_12 
REMARK    8  A    between atoms: C_12  and  C_13 
ROOT
HETATM    1  C   UNL     1     -45.840 -52.008  12.737  1.00  0.00     0.143 A 
HETATM    2  C   UNL     1     -46.524 -51.823  13.915  1.00  0.00     0.081 A 
HETATM    3  C   UNL     1     -45.804 -51.279  14.961  1.00  0.00     0.019 A 
HETATM    4  N   UNL     1     -44.505 -50.949  14.802  1.00  0.00    -0.340 N 
ATOM      5  HN  UNL     1     -43.971 -50.543  15.571  1.00  0.00     0.168 HD
HETATM    6  C   UNL     1     -43.933 -51.169  13.607  1.00  0.00     0.146 A 
HETATM    7  N   UNL     1     -44.555 -51.696  12.552  1.00  0.00    -0.318 N 
ATOM      8  HN  UNL     1     -44.080 -51.850  11.662  1.00  0.00     0.170 HD
ENDROOT
BRANCH   6   9
HETATM    9  S   UNL     1     -42.229 -50.690  13.470  1.00  0.00    -0.092 SA
BRANCH   9  10
HETATM   10  C   UNL     1     -41.715 -51.671  12.025  1.00  0.00     0.108 C 
BRANCH  10  11
HETATM   11  C   UNL     1     -41.115 -52.989  12.508  1.00  0.00     0.178 C 
BRANCH  11  12
HETATM   12  O   UNL     1     -41.194 -53.059  13.936  1.00  0.00    -0.382 OA
BRANCH  12  13
HETATM   13  C   UNL     1     -41.453 -54.402  14.379  1.00  0.00     0.285 C 
BRANCH  13  14
HETATM   14  C   UNL     1     -42.927 -54.673  14.696  1.00  0.00     0.408 C 
HETATM   15  F   UNL     1     -43.437 -53.829  15.618  1.00  0.00    -0.169 F 
HETATM   16  F   UNL     1     -43.684 -54.561  13.578  1.00  0.00    -0.169 F 
HETATM   17  F   UNL     1     -43.093 -55.934  15.163  1.00  0.00    -0.169 F 
ENDBRANCH  13  14
ENDBRANCH  12  13
ENDBRANCH  11  12
ENDBRANCH  10  11
ENDBRANCH   9  10
ENDBRANCH   6   9
BRANCH   3  18
HETATM   18  C   UNL     1     -46.431 -50.982  16.303  1.00  0.00     0.036 A 
HETATM   19  C   UNL     1     -46.761 -52.148  17.212  1.00  0.00     0.011 A 
HETATM   20  C   UNL     1     -47.866 -51.318  16.632  1.00  0.00     0.011 A 
ENDBRANCH   3  18
BRANCH   1  21
HETATM   21  O   UNL     1     -46.454 -52.537  11.640  1.00  0.00    -0.346 OA
HETATM   22  H   UNL     1     -47.175 -53.112  11.932  1.00  0.00     0.219 HD
ENDBRANCH   1  21
TORSDOF 8
ENDMDL
MODEL 8
REMARK VINA RESULT:      -5.3      3.996      6.247
REMARK  8 active torsions:
REMARK  status: ('A' for Active; 'I' for Inactive)
REMARK    1  A    between atoms: O_1  and  C_2 
REMARK    2  A    between atoms: C_4  and  C_19 
REMARK    3  A    between atoms: C_7  and  S_8 
REMARK    4  A    between atoms: S_8  and  C_9 
REMARK    5  A    between atoms: C_9  and  C_10 
REMARK    6  A    between atoms: C_10  and  O_11 
REMARK    7  A    between atoms: O_11  and  C_12 
REMARK    8  A    between atoms: C_12  and  C_13 
ROOT
HETATM    1  C   UNL     1     -39.713 -44.963  10.130  1.00  0.00     0.143 A 
HETATM    2  C   UNL     1     -40.205 -43.948  10.916  1.00  0.00     0.081 A 
HETATM    3  C   UNL     1     -40.619 -44.302  12.184  1.00  0.00     0.019 A 
HETATM    4  N   UNL     1     -40.527 -45.581  12.605  1.00  0.00    -0.340 N 
ATOM      5  HN  UNL     1     -40.828 -45.845  13.544  1.00  0.00     0.168 HD
HETATM    6  C   UNL     1     -40.028 -46.496  11.758  1.00  0.00     0.146 A 
HETATM    7  N   UNL     1     -39.614 -46.237  10.517  1.00  0.00    -0.318 N 
ATOM      8  HN  UNL     1     -39.245 -46.965   9.905  1.00  0.00     0.170 HD
ENDROOT
BRANCH   6   9
HETATM    9  S   UNL     1     -39.918 -48.151  12.391  1.00  0.00    -0.092 SA
BRANCH   9  10
HETATM   10  C   UNL     1     -40.880 -49.058  11.140  1.00  0.00     0.108 C 
BRANCH  10  11
HETATM   11  C   UNL     1     -42.250 -48.401  10.994  1.00  0.00     0.178 C 
BRANCH  11  12
HETATM   12  O   UNL     1     -42.378 -47.842   9.683  1.00  0.00    -0.382 OA
BRANCH  12  13
HETATM   13  C   UNL     1     -43.242 -46.692   9.687  1.00  0.00     0.285 C 
BRANCH  13  14
HETATM   14  C   UNL     1     -44.630 -46.963   9.100  1.00  0.00     0.408 C 
HETATM   15  F   UNL     1     -45.494 -47.485   9.996  1.00  0.00    -0.169 F 
HETATM   16  F   UNL     1     -45.179 -45.819   8.625  1.00  0.00    -0.169 F 
HETATM   17  F   UNL     1     -44.551 -47.827   8.060  1.00  0.00    -0.169 F 
ENDBRANCH  13  14
ENDBRANCH  12  13
ENDBRANCH  11  12
ENDBRANCH  10  11
ENDBRANCH   9  10
ENDBRANCH   6   9
BRANCH   3  18
HETATM   18  C   UNL     1     -41.146 -43.287  13.173  1.00  0.00     0.036 A 
HETATM   19  C   UNL     1     -42.586 -42.840  13.040  1.00  0.00     0.011 A 
HETATM   20  C   UNL     1     -41.476 -41.863  12.792  1.00  0.00     0.011 A 
ENDBRANCH   3  18
BRANCH   1  21
HETATM   21  O   UNL     1     -39.275 -44.726   8.861  1.00  0.00    -0.346 OA
HETATM   22  H   UNL     1     -38.822 -43.871   8.841  1.00  0.00     0.219 HD
ENDBRANCH   1  21
TORSDOF 8
ENDMDL
MODEL 9
REMARK VINA RESULT:      -5.1      4.646      5.882
REMARK  8 active torsions:
REMARK  status: ('A' for Active; 'I' for Inactive)
REMARK    1  A    between atoms: O_1  and  C_2 
REMARK    2  A    between atoms: C_4  and  C_19 
REMARK    3  A    between atoms: C_7  and  S_8 
REMARK    4  A    between atoms: S_8  and  C_9 
REMARK    5  A    between atoms: C_9  and  C_10 
REMARK    6  A    between atoms: C_10  and  O_11 
REMARK    7  A    between atoms: O_11  and  C_12 
REMARK    8  A    between atoms: C_12  and  C_13 
ROOT
HETATM    1  C   UNL     1     -42.023 -52.452  12.237  1.00  0.00     0.143 A 
HETATM    2  C   UNL     1     -43.380 -52.661  12.318  1.00  0.00     0.081 A 
HETATM    3  C   UNL     1     -43.972 -52.372  13.531  1.00  0.00     0.019 A 
HETATM    4  N   UNL     1     -43.235 -51.901  14.560  1.00  0.00    -0.340 N 
ATOM      5  HN  UNL     1     -43.670 -51.682  15.457  1.00  0.00     0.168 HD
HETATM    6  C   UNL     1     -41.917 -51.729  14.373  1.00  0.00     0.146 A 
HETATM    7  N   UNL     1     -41.269 -51.992  13.238  1.00  0.00    -0.318 N 
ATOM      8  HN  UNL     1     -40.263 -51.851  13.141  1.00  0.00     0.170 HD
ENDROOT
BRANCH   6   9
HETATM    9  S   UNL     1     -41.020 -51.088  15.765  1.00  0.00    -0.092 SA
BRANCH   9  10
HETATM   10  C   UNL     1     -39.751 -50.091  14.922  1.00  0.00     0.108 C 
BRANCH  10  11
HETATM   11  C   UNL     1     -38.448 -50.886  14.870  1.00  0.00     0.178 C 
BRANCH  11  12
HETATM   12  O   UNL     1     -38.364 -51.591  13.628  1.00  0.00    -0.382 OA
BRANCH  12  13
HETATM   13  C   UNL     1     -37.308 -51.071  12.802  1.00  0.00     0.285 C 
BRANCH  13  14
HETATM   14  C   UNL     1     -37.757 -49.954  11.856  1.00  0.00     0.408 C 
HETATM   15  F   UNL     1     -37.765 -48.736  12.437  1.00  0.00    -0.169 F 
HETATM   16  F   UNL     1     -36.941 -49.885  10.777  1.00  0.00    -0.169 F 
HETATM   17  F   UNL     1     -39.008 -50.193  11.394  1.00  0.00    -0.169 F 
ENDBRANCH  13  14
ENDBRANCH  12  13
ENDBRANCH  11  12
ENDBRANCH  10  11
ENDBRANCH   9  10
ENDBRANCH   6   9
BRANCH   3  18
HETATM   18  C   UNL     1     -45.459 -52.516  13.757  1.00  0.00     0.036 A 
HETATM   19  C   UNL     1     -46.386 -51.543  13.060  1.00  0.00     0.011 A 
HETATM   20  C   UNL     1     -46.270 -51.523  14.554  1.00  0.00     0.011 A 
ENDBRANCH   3  18
BRANCH   1  21
HETATM   21  O   UNL     1     -41.337 -52.704  11.085  1.00  0.00    -0.346 OA
HETATM   22  H   UNL     1     -41.006 -51.868  10.729  1.00  0.00     0.219 HD
ENDBRANCH   1  21
TORSDOF 8
ENDMDL
