MODEL 1
REMARK VINA RESULT:      -6.9      0.000      0.000
REMARK  4 active torsions:
REMARK  status: ('A' for Active; 'I' for Inactive)
REMARK    1  A    between atoms: N_4  and  C_5 
REMARK    2  A    between atoms: C_5  and  C_6 
REMARK    3  A    between atoms: C_6  and  N_7 
REMARK       I    between atoms: N_7  and  C_8 
REMARK       I    between atoms: C_8  and  N_10 
REMARK    4  A    between atoms: N_10  and  C_11 
ROOT
HETATM    1  N   UNL     1     -41.654 -49.900  11.339  1.00  0.00    -0.341 N 
HETATM    2  C   UNL     1     -40.775 -48.881  11.125  1.00  0.00     0.322 C 
HETATM    3  O   UNL     1     -39.648 -48.848  11.606  1.00  0.00    -0.247 OA
HETATM    4  N   UNL     1     -41.226 -47.823  10.391  1.00  0.00    -0.288 N 
HETATM    5  H   UNL     1     -42.500 -49.909  10.776  1.00  0.00     0.164 HD
HETATM    6  H   UNL     1     -40.626 -47.016  10.348  1.00  0.00     0.172 HD
ENDROOT
BRANCH   1   7
HETATM    7  C   UNL     1     -41.339 -51.112  12.061  1.00  0.00     0.154 C 
BRANCH   7   8
HETATM    8  C   UNL     1     -41.936 -51.147  13.480  1.00  0.00     0.292 C 
BRANCH   8   9
HETATM    9  N   UNL     1     -43.092 -52.053  13.607  1.00  0.00     0.095 N 
HETATM   10  C   UNL     1     -42.955 -53.271  12.783  1.00  0.00     0.303 C 
HETATM   11  C   UNL     1     -44.188 -54.190  12.908  1.00  0.00     0.146 C 
HETATM   12  C   UNL     1     -44.297 -54.846  14.285  1.00  0.00     0.041 C 
HETATM   13  O   UNL     1     -45.393 -53.488  12.560  1.00  0.00    -0.378 OA
HETATM   14  C   UNL     1     -45.563 -52.278  13.315  1.00  0.00     0.146 C 
HETATM   15  C   UNL     1     -44.330 -51.356  13.193  1.00  0.00     0.303 C 
HETATM   16  C   UNL     1     -46.811 -51.586  12.784  1.00  0.00     0.041 C 
ENDBRANCH   8   9
ENDBRANCH   7   8
ENDBRANCH   1   7
BRANCH   4  17
HETATM   17  C   UNL     1     -42.424 -47.797   9.736  1.00  0.00     0.169 A 
HETATM   18  N   UNL     1     -42.701 -48.259   8.537  1.00  0.00    -0.279 N 
HETATM   19  N   UNL     1     -44.028 -48.102   8.219  1.00  0.00    -0.296 N 
ATOM     20  HN  UNL     1     -42.012 -48.684   7.917  1.00  0.00     0.189 HD
HETATM   21  C   UNL     1     -44.701 -47.540   9.200  1.00  0.00     0.066 A 
ATOM     22  HN  UNL     1     -44.440 -48.386   7.331  1.00  0.00     0.187 HD
HETATM   23  C   UNL     1     -46.166 -47.312   9.180  1.00  0.00     0.078 C 
HETATM   24  S   UNL     1     -43.742 -47.111  10.566  1.00  0.00    -0.038 SA
ENDBRANCH   4  17
TORSDOF 4
ENDMDL
MODEL 2
REMARK VINA RESULT:      -6.7      2.297      2.798
REMARK  4 active torsions:
REMARK  status: ('A' for Active; 'I' for Inactive)
REMARK    1  A    between atoms: N_4  and  C_5 
REMARK    2  A    between atoms: C_5  and  C_6 
REMARK    3  A    between atoms: C_6  and  N_7 
REMARK       I    between atoms: N_7  and  C_8 
REMARK       I    between atoms: C_8  and  N_10 
REMARK    4  A    between atoms: N_10  and  C_11 
ROOT
HETATM    1  N   UNL     1     -40.697 -51.260  13.450  1.00  0.00    -0.341 N 
HETATM    2  C   UNL     1     -39.446 -51.464  12.953  1.00  0.00     0.322 C 
HETATM    3  O   UNL     1     -38.680 -52.322  13.378  1.00  0.00    -0.247 OA
HETATM    4  N   UNL     1     -39.024 -50.608  11.979  1.00  0.00    -0.288 N 
HETATM    5  H   UNL     1     -41.307 -50.633  12.933  1.00  0.00     0.164 HD
HETATM    6  H   UNL     1     -38.056 -50.673  11.709  1.00  0.00     0.172 HD
ENDROOT
BRANCH   1   7
HETATM    7  C   UNL     1     -41.321 -52.089  14.458  1.00  0.00     0.154 C 
BRANCH   7   8
HETATM    8  C   UNL     1     -42.709 -51.582  14.889  1.00  0.00     0.292 C 
BRANCH   8   9
HETATM    9  N   UNL     1     -43.820 -52.396  14.364  1.00  0.00     0.095 N 
HETATM   10  C   UNL     1     -43.359 -53.489  13.484  1.00  0.00     0.303 C 
HETATM   11  C   UNL     1     -44.538 -54.308  12.921  1.00  0.00     0.146 C 
HETATM   12  C   UNL     1     -45.239 -55.145  13.993  1.00  0.00     0.041 C 
HETATM   13  O   UNL     1     -45.466 -53.465  12.219  1.00  0.00    -0.378 OA
HETATM   14  C   UNL     1     -45.927 -52.366  13.022  1.00  0.00     0.146 C 
HETATM   15  C   UNL     1     -44.749 -51.544  13.588  1.00  0.00     0.303 C 
HETATM   16  C   UNL     1     -46.815 -51.501  12.138  1.00  0.00     0.041 C 
ENDBRANCH   8   9
ENDBRANCH   7   8
ENDBRANCH   1   7
BRANCH   4  17
HETATM   17  C   UNL     1     -39.822 -49.680  11.372  1.00  0.00     0.169 A 
HETATM   18  N   UNL     1     -40.604 -49.845  10.327  1.00  0.00    -0.279 N 
HETATM   19  N   UNL     1     -41.298 -48.701  10.020  1.00  0.00    -0.296 N 
ATOM     20  HN  UNL     1     -40.684 -50.719   9.808  1.00  0.00     0.189 HD
HETATM   21  C   UNL     1     -41.023 -47.723  10.856  1.00  0.00     0.066 A 
ATOM     22  HN  UNL     1     -41.948 -48.620   9.238  1.00  0.00     0.187 HD
HETATM   23  C   UNL     1     -41.675 -46.393  10.824  1.00  0.00     0.078 C 
HETATM   24  S   UNL     1     -39.845 -48.119  12.050  1.00  0.00    -0.038 SA
ENDBRANCH   4  17
TORSDOF 4
ENDMDL
MODEL 3
REMARK VINA RESULT:      -6.2      2.770      6.575
REMARK  4 active torsions:
REMARK  status: ('A' for Active; 'I' for Inactive)
REMARK    1  A    between atoms: N_4  and  C_5 
REMARK    2  A    between atoms: C_5  and  C_6 
REMARK    3  A    between atoms: C_6  and  N_7 
REMARK       I    between atoms: N_7  and  C_8 
REMARK       I    between atoms: C_8  and  N_10 
REMARK    4  A    between atoms: N_10  and  C_11 
ROOT
HETATM    1  N   UNL     1     -41.948 -51.047  11.870  1.00  0.00    -0.341 N 
HETATM    2  C   UNL     1     -41.666 -52.360  12.099  1.00  0.00     0.322 C 
HETATM    3  O   UNL     1     -40.559 -52.856  11.922  1.00  0.00    -0.247 OA
HETATM    4  N   UNL     1     -42.707 -53.155  12.480  1.00  0.00    -0.288 N 
HETATM    5  H   UNL     1     -42.848 -50.702  12.191  1.00  0.00     0.164 HD
HETATM    6  H   UNL     1     -42.528 -54.145  12.518  1.00  0.00     0.172 HD
ENDROOT
BRANCH   1   7
HETATM    7  C   UNL     1     -40.965 -50.054  11.496  1.00  0.00     0.154 C 
BRANCH   7   8
HETATM    8  C   UNL     1     -41.149 -48.711  12.225  1.00  0.00     0.292 C 
BRANCH   8   9
HETATM    9  N   UNL     1     -41.132 -47.546  11.322  1.00  0.00     0.095 N 
HETATM   10  C   UNL     1     -40.921 -46.272  12.039  1.00  0.00     0.303 C 
HETATM   11  C   UNL     1     -40.937 -45.064  11.080  1.00  0.00     0.146 C 
HETATM   12  C   UNL     1     -39.715 -45.026  10.160  1.00  0.00     0.041 C 
HETATM   13  O   UNL     1     -42.163 -45.014  10.332  1.00  0.00    -0.378 OA
HETATM   14  C   UNL     1     -42.432 -46.242   9.635  1.00  0.00     0.146 C 
HETATM   15  C   UNL     1     -42.416 -47.453  10.591  1.00  0.00     0.303 C 
HETATM   16  C   UNL     1     -43.795 -46.094   8.971  1.00  0.00     0.041 C 
ENDBRANCH   8   9
ENDBRANCH   7   8
ENDBRANCH   1   7
BRANCH   4  17
HETATM   17  C   UNL     1     -43.953 -52.693  12.793  1.00  0.00     0.169 A 
HETATM   18  N   UNL     1     -45.011 -52.627  12.015  1.00  0.00    -0.279 N 
HETATM   19  N   UNL     1     -46.111 -52.148  12.682  1.00  0.00    -0.296 N 
ATOM     20  HN  UNL     1     -45.014 -52.899  11.032  1.00  0.00     0.189 HD
HETATM   21  C   UNL     1     -45.842 -51.887  13.943  1.00  0.00     0.066 A 
ATOM     22  HN  UNL     1     -47.026 -52.012  12.253  1.00  0.00     0.187 HD
HETATM   23  C   UNL     1     -46.847 -51.430  14.932  1.00  0.00     0.078 C 
HETATM   24  S   UNL     1     -44.199 -52.156  14.389  1.00  0.00    -0.038 SA
ENDBRANCH   4  17
TORSDOF 4
ENDMDL
MODEL 4
REMARK VINA RESULT:      -6.0      3.213      4.284
REMARK  4 active torsions:
REMARK  status: ('A' for Active; 'I' for Inactive)
REMARK    1  A    between atoms: N_4  and  C_5 
REMARK    2  A    between atoms: C_5  and  C_6 
REMARK    3  A    between atoms: C_6  and  N_7 
REMARK       I    between atoms: N_7  and  C_8 
REMARK       I    between atoms: C_8  and  N_10 
REMARK    4  A    between atoms: N_10  and  C_11 
ROOT
HETATM    1  N   UNL     1     -41.711 -46.570  11.789  1.00  0.00    -0.341 N 
HETATM    2  C   UNL     1     -41.001 -46.194  10.688  1.00  0.00     0.322 C 
HETATM    3  O   UNL     1     -39.782 -46.065  10.681  1.00  0.00    -0.247 OA
HETATM    4  N   UNL     1     -41.718 -45.883   9.570  1.00  0.00    -0.288 N 
HETATM    5  H   UNL     1     -42.692 -46.795  11.654  1.00  0.00     0.164 HD
HETATM    6  H   UNL     1     -41.206 -45.477   8.804  1.00  0.00     0.172 HD
ENDROOT
BRANCH   1   7
HETATM    7  C   UNL     1     -41.118 -46.967  13.046  1.00  0.00     0.154 C 
BRANCH   7   8
HETATM    8  C   UNL     1     -41.645 -48.316  13.568  1.00  0.00     0.292 C 
BRANCH   8   9
HETATM    9  N   UNL     1     -40.998 -49.482  12.940  1.00  0.00     0.095 N 
HETATM   10  C   UNL     1     -40.902 -50.640  13.851  1.00  0.00     0.303 C 
HETATM   11  C   UNL     1     -40.194 -51.838  13.184  1.00  0.00     0.146 C 
HETATM   12  C   UNL     1     -41.033 -52.476  12.076  1.00  0.00     0.041 C 
HETATM   13  O   UNL     1     -38.888 -51.469  12.712  1.00  0.00    -0.378 OA
HETATM   14  C   UNL     1     -38.920 -50.327  11.840  1.00  0.00     0.146 C 
HETATM   15  C   UNL     1     -39.628 -49.127  12.504  1.00  0.00     0.303 C 
HETATM   16  C   UNL     1     -37.477 -49.982  11.495  1.00  0.00     0.041 C 
ENDBRANCH   8   9
ENDBRANCH   7   8
ENDBRANCH   1   7
BRANCH   4  17
HETATM   17  C   UNL     1     -43.064 -46.076   9.442  1.00  0.00     0.169 A 
HETATM   18  N   UNL     1     -44.014 -45.167   9.418  1.00  0.00    -0.279 N 
HETATM   19  N   UNL     1     -45.254 -45.724   9.227  1.00  0.00    -0.296 N 
ATOM     20  HN  UNL     1     -43.848 -44.167   9.528  1.00  0.00     0.189 HD
HETATM   21  C   UNL     1     -45.187 -47.032   9.100  1.00  0.00     0.066 A 
ATOM     22  HN  UNL     1     -46.121 -45.189   9.189  1.00  0.00     0.187 HD
HETATM   23  C   UNL     1     -46.353 -47.900   8.808  1.00  0.00     0.078 C 
HETATM   24  S   UNL     1     -43.599 -47.682   9.262  1.00  0.00    -0.038 SA
ENDBRANCH   4  17
TORSDOF 4
ENDMDL
MODEL 5
REMARK VINA RESULT:      -6.0      2.523      3.411
REMARK  4 active torsions:
REMARK  status: ('A' for Active; 'I' for Inactive)
REMARK    1  A    between atoms: N_4  and  C_5 
REMARK    2  A    between atoms: C_5  and  C_6 
REMARK    3  A    between atoms: C_6  and  N_7 
REMARK       I    between atoms: N_7  and  C_8 
REMARK       I    between atoms: C_8  and  N_10 
REMARK    4  A    between atoms: N_10  and  C_11 
ROOT
HETATM    1  N   UNL     1     -39.240 -51.322  13.044  1.00  0.00    -0.341 N 
HETATM    2  C   UNL     1     -38.160 -51.035  12.265  1.00  0.00     0.322 C 
HETATM    3  O   UNL     1     -37.069 -51.579  12.394  1.00  0.00    -0.247 OA
HETATM    4  N   UNL     1     -38.310 -50.036  11.349  1.00  0.00    -0.288 N 
HETATM    5  H   UNL     1     -40.134 -50.931  12.761  1.00  0.00     0.164 HD
HETATM    6  H   UNL     1     -37.477 -49.734  10.870  1.00  0.00     0.172 HD
ENDROOT
BRANCH   1   7
HETATM    7  C   UNL     1     -39.274 -52.370  14.040  1.00  0.00     0.154 C 
BRANCH   7   8
HETATM    8  C   UNL     1     -40.298 -53.475  13.726  1.00  0.00     0.292 C 
BRANCH   8   9
HETATM    9  N   UNL     1     -41.696 -53.015  13.791  1.00  0.00     0.095 N 
HETATM   10  C   UNL     1     -42.001 -52.293  15.044  1.00  0.00     0.303 C 
HETATM   11  C   UNL     1     -43.476 -51.847  15.105  1.00  0.00     0.146 C 
HETATM   12  C   UNL     1     -43.797 -50.734  14.105  1.00  0.00     0.041 C 
HETATM   13  O   UNL     1     -44.362 -52.967  14.950  1.00  0.00    -0.378 OA
HETATM   14  C   UNL     1     -44.092 -53.723  13.759  1.00  0.00     0.146 C 
HETATM   15  C   UNL     1     -42.616 -54.171  13.694  1.00  0.00     0.303 C 
HETATM   16  C   UNL     1     -45.023 -54.928  13.767  1.00  0.00     0.041 C 
ENDBRANCH   8   9
ENDBRANCH   7   8
ENDBRANCH   1   7
BRANCH   4  17
HETATM   17  C   UNL     1     -39.499 -49.429  11.061  1.00  0.00     0.169 A 
HETATM   18  N   UNL     1     -40.457 -49.860  10.271  1.00  0.00    -0.279 N 
HETATM   19  N   UNL     1     -41.534 -49.008  10.256  1.00  0.00    -0.296 N 
ATOM     20  HN  UNL     1     -40.406 -50.725   9.732  1.00  0.00     0.189 HD
HETATM   21  C   UNL     1     -41.350 -47.975  11.050  1.00  0.00     0.066 A 
ATOM     22  HN  UNL     1     -42.374 -49.158   9.697  1.00  0.00     0.187 HD
HETATM   23  C   UNL     1     -42.367 -46.927  11.300  1.00  0.00     0.078 C 
HETATM   24  S   UNL     1     -39.814 -47.944  11.831  1.00  0.00    -0.038 SA
ENDBRANCH   4  17
TORSDOF 4
ENDMDL
MODEL 6
REMARK VINA RESULT:      -5.8      4.241      5.467
REMARK  4 active torsions:
REMARK  status: ('A' for Active; 'I' for Inactive)
REMARK    1  A    between atoms: N_4  and  C_5 
REMARK    2  A    between atoms: C_5  and  C_6 
REMARK    3  A    between atoms: C_6  and  N_7 
REMARK       I    between atoms: N_7  and  C_8 
REMARK       I    between atoms: C_8  and  N_10 
REMARK    4  A    between atoms: N_10  and  C_11 
ROOT
HETATM    1  N   UNL     1     -42.208 -46.316  11.435  1.00  0.00    -0.341 N 
HETATM    2  C   UNL     1     -41.576 -45.832  10.330  1.00  0.00     0.322 C 
HETATM    3  O   UNL     1     -40.403 -45.474  10.323  1.00  0.00    -0.247 OA
HETATM    4  N   UNL     1     -42.332 -45.683   9.205  1.00  0.00    -0.288 N 
HETATM    5  H   UNL     1     -43.128 -46.727  11.303  1.00  0.00     0.164 HD
HETATM    6  H   UNL     1     -41.902 -45.201   8.433  1.00  0.00     0.172 HD
ENDROOT
BRANCH   1   7
HETATM    7  C   UNL     1     -41.558 -46.572  12.702  1.00  0.00     0.154 C 
BRANCH   7   8
HETATM    8  C   UNL     1     -41.299 -48.067  12.962  1.00  0.00     0.292 C 
BRANCH   8   9
HETATM    9  N   UNL     1     -39.878 -48.443  12.853  1.00  0.00     0.095 N 
HETATM   10  C   UNL     1     -39.680 -49.904  12.763  1.00  0.00     0.303 C 
HETATM   11  C   UNL     1     -38.185 -50.276  12.679  1.00  0.00     0.146 C 
HETATM   12  C   UNL     1     -37.549 -49.868  11.350  1.00  0.00     0.041 C 
HETATM   13  O   UNL     1     -37.457 -49.746  13.799  1.00  0.00    -0.378 OA
HETATM   14  C   UNL     1     -37.636 -48.328  13.950  1.00  0.00     0.146 C 
HETATM   15  C   UNL     1     -39.131 -47.951  14.033  1.00  0.00     0.303 C 
HETATM   16  C   UNL     1     -36.902 -47.913  15.218  1.00  0.00     0.041 C 
ENDBRANCH   8   9
ENDBRANCH   7   8
ENDBRANCH   1   7
BRANCH   4  17
HETATM   17  C   UNL     1     -43.616 -46.131   9.076  1.00  0.00     0.169 A 
HETATM   18  N   UNL     1     -44.728 -45.432   9.142  1.00  0.00    -0.279 N 
HETATM   19  N   UNL     1     -45.837 -46.209   8.919  1.00  0.00    -0.296 N 
ATOM     20  HN  UNL     1     -44.761 -44.431   9.336  1.00  0.00     0.189 HD
HETATM   21  C   UNL     1     -45.516 -47.462   8.679  1.00  0.00     0.066 A 
ATOM     22  HN  UNL     1     -46.794 -45.857   8.938  1.00  0.00     0.187 HD
HETATM   23  C   UNL     1     -46.494 -48.519   8.328  1.00  0.00     0.078 C 
HETATM   24  S   UNL     1     -43.827 -47.791   8.765  1.00  0.00    -0.038 SA
ENDBRANCH   4  17
TORSDOF 4
ENDMDL
MODEL 7
REMARK VINA RESULT:      -5.8      3.025      6.783
REMARK  4 active torsions:
REMARK  status: ('A' for Active; 'I' for Inactive)
REMARK    1  A    between atoms: N_4  and  C_5 
REMARK    2  A    between atoms: C_5  and  C_6 
REMARK    3  A    between atoms: C_6  and  N_7 
REMARK       I    between atoms: N_7  and  C_8 
REMARK       I    between atoms: C_8  and  N_10 
REMARK    4  A    between atoms: N_10  and  C_11 
ROOT
HETATM    1  N   UNL     1     -41.254 -50.713  11.625  1.00  0.00    -0.341 N 
HETATM    2  C   UNL     1     -40.730 -51.760  12.321  1.00  0.00     0.322 C 
HETATM    3  O   UNL     1     -39.527 -51.938  12.473  1.00  0.00    -0.247 OA
HETATM    4  N   UNL     1     -41.614 -52.681  12.803  1.00  0.00    -0.288 N 
HETATM    5  H   UNL     1     -42.258 -50.569  11.686  1.00  0.00     0.164 HD
HETATM    6  H   UNL     1     -41.220 -53.520  13.197  1.00  0.00     0.172 HD
ENDROOT
BRANCH   1   7
HETATM    7  C   UNL     1     -40.474 -49.627  11.074  1.00  0.00     0.154 C 
BRANCH   7   8
HETATM    8  C   UNL     1     -41.324 -48.404  10.685  1.00  0.00     0.292 C 
BRANCH   8   9
HETATM    9  N   UNL     1     -41.024 -47.203  11.485  1.00  0.00     0.095 N 
HETATM   10  C   UNL     1     -40.539 -46.076  10.662  1.00  0.00     0.303 C 
HETATM   11  C   UNL     1     -40.203 -44.840  11.522  1.00  0.00     0.146 C 
HETATM   12  C   UNL     1     -41.447 -44.181  12.118  1.00  0.00     0.041 C 
HETATM   13  O   UNL     1     -39.239 -45.164  12.538  1.00  0.00    -0.378 OA
HETATM   14  C   UNL     1     -39.649 -46.274  13.352  1.00  0.00     0.146 C 
HETATM   15  C   UNL     1     -39.987 -47.513  12.495  1.00  0.00     0.303 C 
HETATM   16  C   UNL     1     -38.506 -46.576  14.313  1.00  0.00     0.041 C 
ENDBRANCH   8   9
ENDBRANCH   7   8
ENDBRANCH   1   7
BRANCH   4  17
HETATM   17  C   UNL     1     -42.971 -52.536  12.769  1.00  0.00     0.169 A 
HETATM   18  N   UNL     1     -43.821 -53.066  11.918  1.00  0.00    -0.279 N 
HETATM   19  N   UNL     1     -45.120 -52.738  12.217  1.00  0.00    -0.296 N 
ATOM     20  HN  UNL     1     -43.547 -53.651  11.128  1.00  0.00     0.189 HD
HETATM   21  C   UNL     1     -45.199 -51.986  13.294  1.00  0.00     0.066 A 
ATOM     22  HN  UNL     1     -45.927 -53.042  11.671  1.00  0.00     0.187 HD
HETATM   23  C   UNL     1     -46.473 -51.538  13.905  1.00  0.00     0.078 C 
HETATM   24  S   UNL     1     -43.675 -51.576  13.987  1.00  0.00    -0.038 SA
ENDBRANCH   4  17
TORSDOF 4
ENDMDL
MODEL 8
REMARK VINA RESULT:      -5.6      4.681      8.335
REMARK  4 active torsions:
REMARK  status: ('A' for Active; 'I' for Inactive)
REMARK    1  A    between atoms: N_4  and  C_5 
REMARK    2  A    between atoms: C_5  and  C_6 
REMARK    3  A    between atoms: C_6  and  N_7 
REMARK       I    between atoms: N_7  and  C_8 
REMARK       I    between atoms: C_8  and  N_10 
REMARK    4  A    between atoms: N_10  and  C_11 
ROOT
HETATM    1  N   UNL     1     -40.741 -46.747  10.594  1.00  0.00    -0.341 N 
HETATM    2  C   UNL     1     -41.922 -47.315  10.222  1.00  0.00     0.322 C 
HETATM    3  O   UNL     1     -42.817 -46.704   9.650  1.00  0.00    -0.247 OA
HETATM    4  N   UNL     1     -42.118 -48.617  10.581  1.00  0.00    -0.288 N 
HETATM    5  H   UNL     1     -40.008 -47.369  10.922  1.00  0.00     0.164 HD
HETATM    6  H   UNL     1     -43.039 -48.993  10.426  1.00  0.00     0.172 HD
ENDROOT
BRANCH   1   7
HETATM    7  C   UNL     1     -40.349 -45.393  10.270  1.00  0.00     0.154 C 
BRANCH   7   8
HETATM    8  C   UNL     1     -39.596 -44.688  11.413  1.00  0.00     0.292 C 
BRANCH   8   9
HETATM    9  N   UNL     1     -40.139 -43.357  11.739  1.00  0.00     0.095 N 
HETATM   10  C   UNL     1     -40.050 -43.042  13.179  1.00  0.00     0.303 C 
HETATM   11  C   UNL     1     -40.651 -41.659  13.503  1.00  0.00     0.146 C 
HETATM   12  C   UNL     1     -39.806 -40.507  12.955  1.00  0.00     0.041 C 
HETATM   13  O   UNL     1     -42.015 -41.571  13.059  1.00  0.00    -0.378 OA
HETATM   14  C   UNL     1     -42.163 -41.895  11.667  1.00  0.00     0.146 C 
HETATM   15  C   UNL     1     -41.562 -43.278  11.340  1.00  0.00     0.303 C 
HETATM   16  C   UNL     1     -43.653 -41.863  11.353  1.00  0.00     0.041 C 
ENDBRANCH   8   9
ENDBRANCH   7   8
ENDBRANCH   1   7
BRANCH   4  17
HETATM   17  C   UNL     1     -41.158 -49.414  11.137  1.00  0.00     0.169 A 
HETATM   18  N   UNL     1     -40.190 -50.060  10.526  1.00  0.00    -0.279 N 
HETATM   19  N   UNL     1     -39.380 -50.728  11.410  1.00  0.00    -0.296 N 
ATOM     20  HN  UNL     1     -40.056 -50.064   9.515  1.00  0.00     0.189 HD
HETATM   21  C   UNL     1     -39.762 -50.546  12.656  1.00  0.00     0.066 A 
ATOM     22  HN  UNL     1     -38.579 -51.297  11.135  1.00  0.00     0.187 HD
HETATM   23  C   UNL     1     -39.039 -51.080  13.835  1.00  0.00     0.078 C 
HETATM   24  S   UNL     1     -41.182 -49.585  12.830  1.00  0.00    -0.038 SA
ENDBRANCH   4  17
TORSDOF 4
ENDMDL
MODEL 9
REMARK VINA RESULT:      -5.5      3.923      5.325
REMARK  4 active torsions:
REMARK  status: ('A' for Active; 'I' for Inactive)
REMARK    1  A    between atoms: N_4  and  C_5 
REMARK    2  A    between atoms: C_5  and  C_6 
REMARK    3  A    between atoms: C_6  and  N_7 
REMARK       I    between atoms: N_7  and  C_8 
REMARK       I    between atoms: C_8  and  N_10 
REMARK    4  A    between atoms: N_10  and  C_11 
ROOT
HETATM    1  N   UNL     1     -42.995 -54.092  13.946  1.00  0.00    -0.341 N 
HETATM    2  C   UNL     1     -43.838 -53.899  12.894  1.00  0.00     0.322 C 
HETATM    3  O   UNL     1     -44.912 -54.477  12.773  1.00  0.00    -0.247 OA
HETATM    4  N   UNL     1     -43.406 -53.066  11.904  1.00  0.00    -0.288 N 
HETATM    5  H   UNL     1     -42.207 -53.456  14.033  1.00  0.00     0.164 HD
HETATM    6  H   UNL     1     -43.967 -53.030  11.068  1.00  0.00     0.172 HD
ENDROOT
BRANCH   1   7
HETATM    7  C   UNL     1     -43.300 -54.910  15.099  1.00  0.00     0.154 C 
BRANCH   7   8
HETATM    8  C   UNL     1     -43.317 -54.120  16.420  1.00  0.00     0.292 C 
BRANCH   8   9
HETATM    9  N   UNL     1     -43.884 -52.766  16.286  1.00  0.00     0.095 N 
HETATM   10  C   UNL     1     -43.526 -51.884  17.416  1.00  0.00     0.303 C 
HETATM   11  C   UNL     1     -44.155 -50.483  17.271  1.00  0.00     0.146 C 
HETATM   12  C   UNL     1     -43.535 -49.673  16.131  1.00  0.00     0.041 C 
HETATM   13  O   UNL     1     -45.584 -50.568  17.142  1.00  0.00    -0.378 OA
HETATM   14  C   UNL     1     -45.989 -51.438  16.072  1.00  0.00     0.146 C 
HETATM   15  C   UNL     1     -45.361 -52.841  16.213  1.00  0.00     0.303 C 
HETATM   16  C   UNL     1     -47.509 -51.519  16.107  1.00  0.00     0.041 C 
ENDBRANCH   8   9
ENDBRANCH   7   8
ENDBRANCH   1   7
BRANCH   4  17
HETATM   17  C   UNL     1     -42.275 -52.305  11.979  1.00  0.00     0.169 A 
HETATM   18  N   UNL     1     -41.107 -52.534  11.421  1.00  0.00    -0.279 N 
HETATM   19  N   UNL     1     -40.209 -51.526  11.675  1.00  0.00    -0.296 N 
ATOM     20  HN  UNL     1     -40.893 -53.363  10.866  1.00  0.00     0.189 HD
HETATM   21  C   UNL     1     -40.743 -50.569  12.402  1.00  0.00     0.066 A 
ATOM     22  HN  UNL     1     -39.246 -51.521  11.340  1.00  0.00     0.187 HD
HETATM   23  C   UNL     1     -40.043 -49.315  12.771  1.00  0.00     0.078 C 
HETATM   24  S   UNL     1     -42.373 -50.862  12.878  1.00  0.00    -0.038 SA
ENDBRANCH   4  17
TORSDOF 4
ENDMDL
