MODEL 1
REMARK VINA RESULT:      -6.0      0.000      0.000
REMARK  6 active torsions:
REMARK  status: ('A' for Active; 'I' for Inactive)
REMARK    1  A    between atoms: N_6  and  C_7 
REMARK    2  A    between atoms: C_7  and  C_8 
REMARK       I    between atoms: C_8  and  N_10 
REMARK    3  A    between atoms: N_10  and  C_11 
REMARK    4  A    between atoms: C_11  and  C_13 
REMARK    5  A    between atoms: C_11  and  C_15 
REMARK    6  A    between atoms: C_13  and  O_14 
ROOT
HETATM    1  C   UNL     1     -42.623 -53.154  14.508  1.00  0.00     0.238 C 
HETATM    2  O   UNL     1     -42.651 -54.168  13.818  1.00  0.00    -0.272 OA
HETATM    3  N   UNL     1     -41.634 -52.187  14.462  1.00  0.00    -0.348 N 
HETATM    4  H   UNL     1     -41.804 -51.353  15.019  1.00  0.00     0.163 HD
ENDROOT
BRANCH   3   5
HETATM    5  C   UNL     1     -40.389 -52.192  13.656  1.00  0.00     0.054 C 
HETATM    6  C   UNL     1     -39.490 -53.430  13.919  1.00  0.00     0.041 C 
BRANCH   5   7
HETATM    7  C   UNL     1     -40.815 -52.283  12.154  1.00  0.00     0.195 C 
BRANCH   7   8
HETATM    8  O   UNL     1     -40.548 -53.574  11.604  1.00  0.00    -0.398 OA
HETATM    9  H   UNL     1     -40.069 -53.427  10.767  1.00  0.00     0.209 HD
ENDBRANCH   7   8
ENDBRANCH   5   7
BRANCH   5  10
HETATM   10  C   UNL     1     -39.532 -50.883  13.913  1.00  0.00     0.015 C 
HETATM   11  C   UNL     1     -39.957 -49.655  13.072  1.00  0.00     0.007 C 
HETATM   12  C   UNL     1     -39.342 -49.597  11.675  1.00  0.00     0.000 C 
HETATM   13  C   UNL     1     -37.826 -49.700  11.722  1.00  0.00     0.000 C 
HETATM   14  C   UNL     1     -37.367 -50.939  12.479  1.00  0.00     0.000 C 
HETATM   15  C   UNL     1     -37.992 -51.022  13.870  1.00  0.00     0.007 C 
ENDBRANCH   5  10
ENDBRANCH   3   5
BRANCH   1  16
HETATM   16  C   UNL     1     -43.711 -52.887  15.523  1.00  0.00     0.251 C 
BRANCH  16  17
HETATM   17  N   UNL     1     -44.888 -52.349  14.879  1.00  0.00    -0.288 N 
HETATM   18  C   UNL     1     -45.887 -51.595  15.435  1.00  0.00     0.027 A 
HETATM   19  C   UNL     1     -46.767 -51.331  14.403  1.00  0.00     0.052 A 
HETATM   20  C   UNL     1     -45.936 -51.202  16.866  1.00  0.00     0.070 C 
HETATM   21  C   UNL     1     -46.208 -51.957  13.268  1.00  0.00     0.024 A 
HETATM   22  C   UNL     1     -46.743 -51.982  11.887  1.00  0.00     0.070 C 
HETATM   23  N   UNL     1     -45.064 -52.584  13.562  1.00  0.00    -0.303 N 
ATOM     24  HN  UNL     1     -44.463 -53.118  12.935  1.00  0.00     0.186 HD
ENDBRANCH  16  17
ENDBRANCH   1  16
TORSDOF 6
ENDMDL
MODEL 2
REMARK VINA RESULT:      -5.9      3.835      5.272
REMARK  6 active torsions:
REMARK  status: ('A' for Active; 'I' for Inactive)
REMARK    1  A    between atoms: N_6  and  C_7 
REMARK    2  A    between atoms: C_7  and  C_8 
REMARK       I    between atoms: C_8  and  N_10 
REMARK    3  A    between atoms: N_10  and  C_11 
REMARK    4  A    between atoms: C_11  and  C_13 
REMARK    5  A    between atoms: C_11  and  C_15 
REMARK    6  A    between atoms: C_13  and  O_14 
ROOT
HETATM    1  C   UNL     1     -41.573 -49.054  11.947  1.00  0.00     0.238 C 
HETATM    2  O   UNL     1     -42.762 -49.219  12.196  1.00  0.00    -0.272 OA
HETATM    3  N   UNL     1     -40.565 -49.957  12.239  1.00  0.00    -0.348 N 
HETATM    4  H   UNL     1     -39.644 -49.726  11.876  1.00  0.00     0.163 HD
ENDROOT
BRANCH   3   5
HETATM    5  C   UNL     1     -40.678 -51.248  12.962  1.00  0.00     0.054 C 
HETATM    6  C   UNL     1     -41.559 -51.164  14.237  1.00  0.00     0.041 C 
BRANCH   5   7
HETATM    7  C   UNL     1     -41.404 -52.248  12.005  1.00  0.00     0.195 C 
BRANCH   7   8
HETATM    8  O   UNL     1     -40.506 -53.228  11.480  1.00  0.00    -0.398 OA
HETATM    9  H   UNL     1     -39.663 -53.120  11.959  1.00  0.00     0.209 HD
ENDBRANCH   7   8
ENDBRANCH   5   7
BRANCH   5  10
HETATM   10  C   UNL     1     -39.251 -51.804  13.370  1.00  0.00     0.015 C 
HETATM   11  C   UNL     1     -39.080 -52.107  14.878  1.00  0.00     0.007 C 
HETATM   12  C   UNL     1     -38.682 -50.902  15.728  1.00  0.00     0.000 C 
HETATM   13  C   UNL     1     -37.437 -50.217  15.187  1.00  0.00     0.000 C 
HETATM   14  C   UNL     1     -37.593 -49.835  13.722  1.00  0.00     0.000 C 
HETATM   15  C   UNL     1     -38.014 -51.026  12.863  1.00  0.00     0.007 C 
ENDBRANCH   5  10
ENDBRANCH   3   5
BRANCH   1  16
HETATM   16  C   UNL     1     -41.095 -47.779  11.290  1.00  0.00     0.251 C 
BRANCH  16  17
HETATM   17  N   UNL     1     -42.035 -47.344  10.281  1.00  0.00    -0.288 N 
HETATM   18  C   UNL     1     -42.598 -46.104  10.128  1.00  0.00     0.027 A 
HETATM   19  C   UNL     1     -43.413 -46.205   9.017  1.00  0.00     0.052 A 
HETATM   20  C   UNL     1     -42.336 -44.953  11.028  1.00  0.00     0.070 C 
HETATM   21  C   UNL     1     -43.268 -47.535   8.568  1.00  0.00     0.024 A 
HETATM   22  C   UNL     1     -43.916 -48.178   7.402  1.00  0.00     0.070 C 
HETATM   23  N   UNL     1     -42.430 -48.231   9.346  1.00  0.00    -0.303 N 
ATOM     24  HN  UNL     1     -42.155 -49.208   9.252  1.00  0.00     0.186 HD
ENDBRANCH  16  17
ENDBRANCH   1  16
TORSDOF 6
ENDMDL
MODEL 3
REMARK VINA RESULT:      -5.9      3.072      6.347
REMARK  6 active torsions:
REMARK  status: ('A' for Active; 'I' for Inactive)
REMARK    1  A    between atoms: N_6  and  C_7 
REMARK    2  A    between atoms: C_7  and  C_8 
REMARK       I    between atoms: C_8  and  N_10 
REMARK    3  A    between atoms: N_10  and  C_11 
REMARK    4  A    between atoms: C_11  and  C_13 
REMARK    5  A    between atoms: C_11  and  C_15 
REMARK    6  A    between atoms: C_13  and  O_14 
ROOT
HETATM    1  C   UNL     1     -43.274 -50.393  13.089  1.00  0.00     0.238 C 
HETATM    2  O   UNL     1     -43.605 -49.526  13.891  1.00  0.00    -0.272 OA
HETATM    3  N   UNL     1     -44.012 -51.526  12.792  1.00  0.00    -0.348 N 
HETATM    4  H   UNL     1     -43.659 -52.098  12.029  1.00  0.00     0.163 HD
ENDROOT
BRANCH   3   5
HETATM    5  C   UNL     1     -45.285 -51.973  13.408  1.00  0.00     0.054 C 
HETATM    6  C   UNL     1     -45.576 -51.301  14.777  1.00  0.00     0.041 C 
BRANCH   5   7
HETATM    7  C   UNL     1     -46.440 -51.523  12.456  1.00  0.00     0.195 C 
BRANCH   7   8
HETATM    8  O   UNL     1     -46.706 -52.496  11.445  1.00  0.00    -0.398 OA
HETATM    9  H   UNL     1     -46.882 -53.338  11.906  1.00  0.00     0.209 HD
ENDBRANCH   7   8
ENDBRANCH   5   7
BRANCH   5  10
HETATM   10  C   UNL     1     -45.308 -53.546  13.604  1.00  0.00     0.015 C 
HETATM   11  C   UNL     1     -45.509 -54.015  15.065  1.00  0.00     0.007 C 
HETATM   12  C   UNL     1     -44.227 -54.085  15.894  1.00  0.00     0.000 C 
HETATM   13  C   UNL     1     -43.163 -54.932  15.214  1.00  0.00     0.000 C 
HETATM   14  C   UNL     1     -42.882 -54.455  13.796  1.00  0.00     0.000 C 
HETATM   15  C   UNL     1     -44.157 -54.358  12.962  1.00  0.00     0.007 C 
ENDBRANCH   5  10
ENDBRANCH   3   5
BRANCH   1  16
HETATM   16  C   UNL     1     -41.961 -50.292  12.347  1.00  0.00     0.251 C 
BRANCH  16  17
HETATM   17  N   UNL     1     -41.892 -49.056  11.600  1.00  0.00    -0.288 N 
HETATM   18  C   UNL     1     -40.823 -48.211  11.460  1.00  0.00     0.027 A 
HETATM   19  C   UNL     1     -41.269 -47.186  10.649  1.00  0.00     0.052 A 
HETATM   20  C   UNL     1     -39.499 -48.429  12.097  1.00  0.00     0.070 C 
HETATM   21  C   UNL     1     -42.609 -47.505  10.346  1.00  0.00     0.024 A 
HETATM   22  C   UNL     1     -43.558 -46.743   9.503  1.00  0.00     0.070 C 
HETATM   23  N   UNL     1     -42.990 -48.645  10.934  1.00  0.00    -0.303 N 
ATOM     24  HN  UNL     1     -43.903 -49.099  10.889  1.00  0.00     0.186 HD
ENDBRANCH  16  17
ENDBRANCH   1  16
TORSDOF 6
ENDMDL
MODEL 4
REMARK VINA RESULT:      -5.9      2.281      3.495
REMARK  6 active torsions:
REMARK  status: ('A' for Active; 'I' for Inactive)
REMARK    1  A    between atoms: N_6  and  C_7 
REMARK    2  A    between atoms: C_7  and  C_8 
REMARK       I    between atoms: C_8  and  N_10 
REMARK    3  A    between atoms: N_10  and  C_11 
REMARK    4  A    between atoms: C_11  and  C_13 
REMARK    5  A    between atoms: C_11  and  C_15 
REMARK    6  A    between atoms: C_13  and  O_14 
ROOT
HETATM    1  C   UNL     1     -44.058 -54.715  14.259  1.00  0.00     0.238 C 
HETATM    2  O   UNL     1     -43.750 -55.622  15.025  1.00  0.00    -0.272 OA
HETATM    3  N   UNL     1     -43.181 -53.771  13.750  1.00  0.00    -0.348 N 
HETATM    4  H   UNL     1     -43.564 -53.146  13.044  1.00  0.00     0.163 HD
ENDROOT
BRANCH   3   5
HETATM    5  C   UNL     1     -41.741 -53.601  14.062  1.00  0.00     0.054 C 
HETATM    6  C   UNL     1     -41.281 -54.411  15.304  1.00  0.00     0.041 C 
BRANCH   5   7
HETATM    7  C   UNL     1     -40.938 -54.180  12.852  1.00  0.00     0.195 C 
BRANCH   7   8
HETATM    8  O   UNL     1     -39.553 -54.344  13.163  1.00  0.00    -0.398 OA
HETATM    9  H   UNL     1     -39.481 -54.330  14.136  1.00  0.00     0.209 HD
ENDBRANCH   7   8
ENDBRANCH   5   7
BRANCH   5  10
HETATM   10  C   UNL     1     -41.379 -52.075  14.292  1.00  0.00     0.015 C 
HETATM   11  C   UNL     1     -41.855 -51.493  15.645  1.00  0.00     0.007 C 
HETATM   12  C   UNL     1     -43.297 -50.992  15.651  1.00  0.00     0.000 C 
HETATM   13  C   UNL     1     -43.552 -49.993  14.533  1.00  0.00     0.000 C 
HETATM   14  C   UNL     1     -43.165 -50.557  13.173  1.00  0.00     0.000 C 
HETATM   15  C   UNL     1     -41.732 -51.084  13.159  1.00  0.00     0.007 C 
ENDBRANCH   5  10
ENDBRANCH   3   5
BRANCH   1  16
HETATM   16  C   UNL     1     -45.491 -54.539  13.812  1.00  0.00     0.251 C 
BRANCH  16  17
HETATM   17  N   UNL     1     -46.079 -53.374  14.434  1.00  0.00    -0.288 N 
HETATM   18  C   UNL     1     -46.538 -52.233  13.831  1.00  0.00     0.027 A 
HETATM   19  C   UNL     1     -47.007 -51.437  14.858  1.00  0.00     0.052 A 
HETATM   20  C   UNL     1     -46.490 -51.987  12.367  1.00  0.00     0.070 C 
HETATM   21  C   UNL     1     -46.795 -52.184  16.035  1.00  0.00     0.024 A 
HETATM   22  C   UNL     1     -47.124 -51.801  17.428  1.00  0.00     0.070 C 
HETATM   23  N   UNL     1     -46.222 -53.365  15.775  1.00  0.00    -0.303 N 
ATOM     24  HN  UNL     1     -45.954 -54.091  16.439  1.00  0.00     0.186 HD
ENDBRANCH  16  17
ENDBRANCH   1  16
TORSDOF 6
ENDMDL
MODEL 5
REMARK VINA RESULT:      -5.8      2.106      2.908
REMARK  6 active torsions:
REMARK  status: ('A' for Active; 'I' for Inactive)
REMARK    1  A    between atoms: N_6  and  C_7 
REMARK    2  A    between atoms: C_7  and  C_8 
REMARK       I    between atoms: C_8  and  N_10 
REMARK    3  A    between atoms: N_10  and  C_11 
REMARK    4  A    between atoms: C_11  and  C_13 
REMARK    5  A    between atoms: C_11  and  C_15 
REMARK    6  A    between atoms: C_13  and  O_14 
ROOT
HETATM    1  C   UNL     1     -41.323 -51.960  13.005  1.00  0.00     0.238 C 
HETATM    2  O   UNL     1     -41.949 -51.208  13.744  1.00  0.00    -0.272 OA
HETATM    3  N   UNL     1     -40.088 -51.679  12.444  1.00  0.00    -0.348 N 
HETATM    4  H   UNL     1     -39.648 -52.444  11.939  1.00  0.00     0.163 HD
ENDROOT
BRANCH   3   5
HETATM    5  C   UNL     1     -39.306 -50.423  12.542  1.00  0.00     0.054 C 
HETATM    6  C   UNL     1     -37.824 -50.584  12.108  1.00  0.00     0.041 C 
BRANCH   5   7
HETATM    7  C   UNL     1     -39.939 -49.407  11.536  1.00  0.00     0.195 C 
BRANCH   7   8
HETATM    8  O   UNL     1     -40.279 -50.030  10.296  1.00  0.00    -0.398 OA
HETATM    9  H   UNL     1     -41.043 -50.611  10.474  1.00  0.00     0.209 HD
ENDBRANCH   7   8
ENDBRANCH   5   7
BRANCH   5  10
HETATM   10  C   UNL     1     -39.339 -49.839  14.016  1.00  0.00     0.015 C 
HETATM   11  C   UNL     1     -39.160 -48.305  14.110  1.00  0.00     0.007 C 
HETATM   12  C   UNL     1     -37.707 -47.833  14.121  1.00  0.00     0.000 C 
HETATM   13  C   UNL     1     -36.899 -48.522  15.210  1.00  0.00     0.000 C 
HETATM   14  C   UNL     1     -36.990 -50.038  15.106  1.00  0.00     0.000 C 
HETATM   15  C   UNL     1     -38.437 -50.523  15.070  1.00  0.00     0.007 C 
ENDBRANCH   5  10
ENDBRANCH   3   5
BRANCH   1  16
HETATM   16  C   UNL     1     -41.893 -53.304  12.615  1.00  0.00     0.251 C 
BRANCH  16  17
HETATM   17  N   UNL     1     -43.309 -53.359  12.903  1.00  0.00    -0.288 N 
HETATM   18  C   UNL     1     -43.954 -54.125  13.838  1.00  0.00     0.027 A 
HETATM   19  C   UNL     1     -45.292 -53.803  13.718  1.00  0.00     0.052 A 
HETATM   20  C   UNL     1     -43.272 -55.086  14.742  1.00  0.00     0.070 C 
HETATM   21  C   UNL     1     -45.352 -52.833  12.695  1.00  0.00     0.024 A 
HETATM   22  C   UNL     1     -46.549 -52.140  12.167  1.00  0.00     0.070 C 
HETATM   23  N   UNL     1     -44.140 -52.568  12.194  1.00  0.00    -0.303 N 
ATOM     24  HN  UNL     1     -43.900 -51.916  11.447  1.00  0.00     0.186 HD
ENDBRANCH  16  17
ENDBRANCH   1  16
TORSDOF 6
ENDMDL
MODEL 6
REMARK VINA RESULT:      -5.8      3.872      6.159
REMARK  6 active torsions:
REMARK  status: ('A' for Active; 'I' for Inactive)
REMARK    1  A    between atoms: N_6  and  C_7 
REMARK    2  A    between atoms: C_7  and  C_8 
REMARK       I    between atoms: C_8  and  N_10 
REMARK    3  A    between atoms: N_10  and  C_11 
REMARK    4  A    between atoms: C_11  and  C_13 
REMARK    5  A    between atoms: C_11  and  C_15 
REMARK    6  A    between atoms: C_13  and  O_14 
ROOT
HETATM    1  C   UNL     1     -42.776 -49.318  12.545  1.00  0.00     0.238 C 
HETATM    2  O   UNL     1     -43.178 -48.630  13.476  1.00  0.00    -0.272 OA
HETATM    3  N   UNL     1     -42.963 -50.685  12.426  1.00  0.00    -0.348 N 
HETATM    4  H   UNL     1     -42.664 -51.098  11.545  1.00  0.00     0.163 HD
ENDROOT
BRANCH   3   5
HETATM    5  C   UNL     1     -43.599 -51.607  13.398  1.00  0.00     0.054 C 
HETATM    6  C   UNL     1     -43.040 -51.465  14.839  1.00  0.00     0.041 C 
BRANCH   5   7
HETATM    7  C   UNL     1     -45.110 -51.212  13.484  1.00  0.00     0.195 C 
BRANCH   7   8
HETATM    8  O   UNL     1     -45.712 -51.131  12.191  1.00  0.00    -0.398 OA
HETATM    9  H   UNL     1     -46.055 -52.020  11.985  1.00  0.00     0.209 HD
ENDBRANCH   7   8
ENDBRANCH   5   7
BRANCH   5  10
HETATM   10  C   UNL     1     -43.444 -53.118  12.943  1.00  0.00     0.015 C 
HETATM   11  C   UNL     1     -44.601 -54.049  13.380  1.00  0.00     0.007 C 
HETATM   12  C   UNL     1     -44.461 -54.620  14.789  1.00  0.00     0.000 C 
HETATM   13  C   UNL     1     -43.125 -55.319  14.984  1.00  0.00     0.000 C 
HETATM   14  C   UNL     1     -41.956 -54.409  14.635  1.00  0.00     0.000 C 
HETATM   15  C   UNL     1     -42.093 -53.812  13.237  1.00  0.00     0.007 C 
ENDBRANCH   5  10
ENDBRANCH   3   5
BRANCH   1  16
HETATM   16  C   UNL     1     -41.990 -48.696  11.413  1.00  0.00     0.251 C 
BRANCH  16  17
HETATM   17  N   UNL     1     -42.820 -47.785  10.657  1.00  0.00    -0.288 N 
HETATM   18  C   UNL     1     -42.496 -46.543  10.180  1.00  0.00     0.027 A 
HETATM   19  C   UNL     1     -43.626 -46.095   9.523  1.00  0.00     0.052 A 
HETATM   20  C   UNL     1     -41.179 -45.888  10.387  1.00  0.00     0.070 C 
HETATM   21  C   UNL     1     -44.569 -47.136   9.652  1.00  0.00     0.024 A 
HETATM   22  C   UNL     1     -45.952 -47.182   9.124  1.00  0.00     0.070 C 
HETATM   23  N   UNL     1     -44.077 -48.166  10.351  1.00  0.00    -0.303 N 
ATOM     24  HN  UNL     1     -44.546 -49.038  10.595  1.00  0.00     0.186 HD
ENDBRANCH  16  17
ENDBRANCH   1  16
TORSDOF 6
ENDMDL
MODEL 7
REMARK VINA RESULT:      -5.8      3.504      5.479
REMARK  6 active torsions:
REMARK  status: ('A' for Active; 'I' for Inactive)
REMARK    1  A    between atoms: N_6  and  C_7 
REMARK    2  A    between atoms: C_7  and  C_8 
REMARK       I    between atoms: C_8  and  N_10 
REMARK    3  A    between atoms: N_10  and  C_11 
REMARK    4  A    between atoms: C_11  and  C_13 
REMARK    5  A    between atoms: C_11  and  C_15 
REMARK    6  A    between atoms: C_13  and  O_14 
ROOT
HETATM    1  C   UNL     1     -41.175 -49.600  11.923  1.00  0.00     0.238 C 
HETATM    2  O   UNL     1     -41.493 -48.907  12.883  1.00  0.00    -0.272 OA
HETATM    3  N   UNL     1     -40.662 -50.884  12.003  1.00  0.00    -0.348 N 
HETATM    4  H   UNL     1     -40.546 -51.370  11.117  1.00  0.00     0.163 HD
ENDROOT
BRANCH   3   5
HETATM    5  C   UNL     1     -40.322 -51.657  13.222  1.00  0.00     0.054 C 
HETATM    6  C   UNL     1     -41.242 -51.337  14.431  1.00  0.00     0.041 C 
BRANCH   5   7
HETATM    7  C   UNL     1     -40.559 -53.166  12.891  1.00  0.00     0.195 C 
BRANCH   7   8
HETATM    8  O   UNL     1     -40.560 -53.407  11.483  1.00  0.00    -0.398 OA
HETATM    9  H   UNL     1     -39.929 -54.134  11.323  1.00  0.00     0.209 HD
ENDBRANCH   7   8
ENDBRANCH   5   7
BRANCH   5  10
HETATM   10  C   UNL     1     -38.817 -51.412  13.656  1.00  0.00     0.015 C 
HETATM   11  C   UNL     1     -38.642 -50.580  14.949  1.00  0.00     0.007 C 
HETATM   12  C   UNL     1     -38.666 -49.067  14.741  1.00  0.00     0.000 C 
HETATM   13  C   UNL     1     -37.655 -48.626  13.694  1.00  0.00     0.000 C 
HETATM   14  C   UNL     1     -37.842 -49.371  12.379  1.00  0.00     0.000 C 
HETATM   15  C   UNL     1     -37.844 -50.885  12.575  1.00  0.00     0.007 C 
ENDBRANCH   5  10
ENDBRANCH   3   5
BRANCH   1  16
HETATM   16  C   UNL     1     -41.304 -49.067  10.514  1.00  0.00     0.251 C 
BRANCH  16  17
HETATM   17  N   UNL     1     -41.433 -47.627  10.526  1.00  0.00    -0.288 N 
HETATM   18  C   UNL     1     -42.576 -46.879  10.415  1.00  0.00     0.027 A 
HETATM   19  C   UNL     1     -42.162 -45.563  10.491  1.00  0.00     0.052 A 
HETATM   20  C   UNL     1     -43.934 -47.453  10.238  1.00  0.00     0.070 C 
HETATM   21  C   UNL     1     -40.763 -45.621  10.656  1.00  0.00     0.024 A 
HETATM   22  C   UNL     1     -39.816 -44.491  10.799  1.00  0.00     0.070 C 
HETATM   23  N   UNL     1     -40.318 -46.883  10.670  1.00  0.00    -0.303 N 
ATOM     24  HN  UNL     1     -39.356 -47.207  10.767  1.00  0.00     0.186 HD
ENDBRANCH  16  17
ENDBRANCH   1  16
TORSDOF 6
ENDMDL
MODEL 8
REMARK VINA RESULT:      -5.7      3.421      6.628
REMARK  6 active torsions:
REMARK  status: ('A' for Active; 'I' for Inactive)
REMARK    1  A    between atoms: N_6  and  C_7 
REMARK    2  A    between atoms: C_7  and  C_8 
REMARK       I    between atoms: C_8  and  N_10 
REMARK    3  A    between atoms: N_10  and  C_11 
REMARK    4  A    between atoms: C_11  and  C_13 
REMARK    5  A    between atoms: C_11  and  C_15 
REMARK    6  A    between atoms: C_13  and  O_14 
ROOT
HETATM    1  C   UNL     1     -42.201 -49.780  12.339  1.00  0.00     0.238 C 
HETATM    2  O   UNL     1     -42.503 -49.040  13.269  1.00  0.00    -0.272 OA
HETATM    3  N   UNL     1     -42.632 -51.088  12.190  1.00  0.00    -0.348 N 
HETATM    4  H   UNL     1     -42.383 -51.539  11.314  1.00  0.00     0.163 HD
ENDROOT
BRANCH   3   5
HETATM    5  C   UNL     1     -43.462 -51.887  13.125  1.00  0.00     0.054 C 
HETATM    6  C   UNL     1     -43.967 -53.221  12.513  1.00  0.00     0.041 C 
BRANCH   5   7
HETATM    7  C   UNL     1     -42.545 -52.287  14.326  1.00  0.00     0.195 C 
BRANCH   7   8
HETATM    8  O   UNL     1     -42.572 -53.694  14.570  1.00  0.00    -0.398 OA
HETATM    9  H   UNL     1     -41.784 -53.900  15.108  1.00  0.00     0.209 HD
ENDBRANCH   7   8
ENDBRANCH   5   7
BRANCH   5  10
HETATM   10  C   UNL     1     -44.714 -51.058  13.633  1.00  0.00     0.015 C 
HETATM   11  C   UNL     1     -44.766 -50.834  15.163  1.00  0.00     0.007 C 
HETATM   12  C   UNL     1     -45.398 -51.979  15.953  1.00  0.00     0.000 C 
HETATM   13  C   UNL     1     -46.782 -52.329  15.427  1.00  0.00     0.000 C 
HETATM   14  C   UNL     1     -46.760 -52.629  13.935  1.00  0.00     0.000 C 
HETATM   15  C   UNL     1     -46.109 -51.503  13.135  1.00  0.00     0.007 C 
ENDBRANCH   5  10
ENDBRANCH   3   5
BRANCH   1  16
HETATM   16  C   UNL     1     -41.273 -49.302  11.246  1.00  0.00     0.251 C 
BRANCH  16  17
HETATM   17  N   UNL     1     -41.752 -48.061  10.679  1.00  0.00    -0.288 N 
HETATM   18  C   UNL     1     -41.167 -46.823  10.738  1.00  0.00     0.027 A 
HETATM   19  C   UNL     1     -42.012 -45.983  10.039  1.00  0.00     0.052 A 
HETATM   20  C   UNL     1     -39.892 -46.536  11.443  1.00  0.00     0.070 C 
HETATM   21  C   UNL     1     -43.068 -46.806   9.591  1.00  0.00     0.024 A 
HETATM   22  C   UNL     1     -44.247 -46.415   8.785  1.00  0.00     0.070 C 
HETATM   23  N   UNL     1     -42.910 -48.073   9.989  1.00  0.00    -0.303 N 
ATOM     24  HN  UNL     1     -43.526 -48.867   9.812  1.00  0.00     0.186 HD
ENDBRANCH  16  17
ENDBRANCH   1  16
TORSDOF 6
ENDMDL
MODEL 9
REMARK VINA RESULT:      -5.7      2.189      2.961
REMARK  6 active torsions:
REMARK  status: ('A' for Active; 'I' for Inactive)
REMARK    1  A    between atoms: N_6  and  C_7 
REMARK    2  A    between atoms: C_7  and  C_8 
REMARK       I    between atoms: C_8  and  N_10 
REMARK    3  A    between atoms: N_10  and  C_11 
REMARK    4  A    between atoms: C_11  and  C_13 
REMARK    5  A    between atoms: C_11  and  C_15 
REMARK    6  A    between atoms: C_13  and  O_14 
ROOT
HETATM    1  C   UNL     1     -42.233 -51.812  12.850  1.00  0.00     0.238 C 
HETATM    2  O   UNL     1     -41.893 -52.311  11.783  1.00  0.00    -0.272 OA
HETATM    3  N   UNL     1     -41.812 -50.580  13.322  1.00  0.00    -0.348 N 
HETATM    4  H   UNL     1     -42.263 -50.255  14.174  1.00  0.00     0.163 HD
ENDROOT
BRANCH   3   5
HETATM    5  C   UNL     1     -40.833 -49.653  12.706  1.00  0.00     0.054 C 
HETATM    6  C   UNL     1     -39.417 -50.269  12.546  1.00  0.00     0.041 C 
BRANCH   5   7
HETATM    7  C   UNL     1     -41.335 -49.352  11.256  1.00  0.00     0.195 C 
BRANCH   7   8
HETATM    8  O   UNL     1     -40.528 -49.997  10.269  1.00  0.00    -0.398 OA
HETATM    9  H   UNL     1     -39.618 -50.016  10.620  1.00  0.00     0.209 HD
ENDBRANCH   7   8
ENDBRANCH   5   7
BRANCH   5  10
HETATM   10  C   UNL     1     -40.707 -48.311  13.541  1.00  0.00     0.015 C 
HETATM   11  C   UNL     1     -42.045 -47.570  13.782  1.00  0.00     0.007 C 
HETATM   12  C   UNL     1     -42.472 -46.642  12.646  1.00  0.00     0.000 C 
HETATM   13  C   UNL     1     -41.378 -45.646  12.291  1.00  0.00     0.000 C 
HETATM   14  C   UNL     1     -40.062 -46.343  11.974  1.00  0.00     0.000 C 
HETATM   15  C   UNL     1     -39.634 -47.292  13.091  1.00  0.00     0.007 C 
ENDBRANCH   5  10
ENDBRANCH   3   5
BRANCH   1  16
HETATM   16  C   UNL     1     -43.164 -52.552  13.783  1.00  0.00     0.251 C 
BRANCH  16  17
HETATM   17  N   UNL     1     -44.533 -52.142  13.566  1.00  0.00    -0.288 N 
HETATM   18  C   UNL     1     -45.400 -51.581  14.466  1.00  0.00     0.027 A 
HETATM   19  C   UNL     1     -46.572 -51.370  13.765  1.00  0.00     0.052 A 
HETATM   20  C   UNL     1     -45.065 -51.305  15.886  1.00  0.00     0.070 C 
HETATM   21  C   UNL     1     -46.310 -51.826  12.456  1.00  0.00     0.024 A 
HETATM   22  C   UNL     1     -47.226 -51.825  11.291  1.00  0.00     0.070 C 
HETATM   23  N   UNL     1     -45.066 -52.303  12.338  1.00  0.00    -0.303 N 
ATOM     24  HN  UNL     1     -44.622 -52.699  11.509  1.00  0.00     0.186 HD
ENDBRANCH  16  17
ENDBRANCH   1  16
TORSDOF 6
ENDMDL
