MODEL 1
REMARK VINA RESULT:      -6.6      0.000      0.000
REMARK  5 active torsions:
REMARK  status: ('A' for Active; 'I' for Inactive)
REMARK    1  A    between atoms: O_2  and  C_3 
REMARK    2  A    between atoms: C_3  and  C_4 
REMARK    3  A    between atoms: C_4  and  N_5 
REMARK    4  A    between atoms: C_8  and  C_13 
REMARK       I    between atoms: C_13  and  N_15 
REMARK    5  A    between atoms: N_15  and  C_16 
ROOT
HETATM    1  C   UNL     1     -41.505 -49.863  11.686  1.00  0.00     0.269 C 
HETATM    2  O   UNL     1     -40.318 -50.145  11.717  1.00  0.00    -0.266 OA
HETATM    3  N   UNL     1     -42.535 -50.692  12.072  1.00  0.00    -0.351 N 
HETATM    4  H   UNL     1     -43.472 -50.342  11.899  1.00  0.00     0.163 HD
ENDROOT
BRANCH   1   5
HETATM    5  C   UNL     1     -41.954 -48.469  11.232  1.00  0.00     0.116 C 
HETATM    6  N   UNL     1     -42.412 -48.311  10.025  1.00  0.00    -0.290 N 
HETATM    7  N   UNL     1     -42.799 -47.023   9.672  1.00  0.00    -0.255 N 
ATOM      8  HN  UNL     1     -42.483 -49.091   9.372  1.00  0.00     0.187 HD
HETATM    9  C   UNL     1     -42.618 -45.904  10.481  1.00  0.00     0.262 C 
HETATM   10  C   UNL     1     -42.155 -46.169  11.858  1.00  0.00     0.078 C 
HETATM   11  O   UNL     1     -42.815 -44.741  10.147  1.00  0.00    -0.267 OA
HETATM   12  C   UNL     1     -41.857 -47.406  12.251  1.00  0.00     0.042 C 
BRANCH   7  13
HETATM   13  C   UNL     1     -43.476 -46.861   8.385  1.00  0.00     0.178 C 
BRANCH  13  14
HETATM   14  C   UNL     1     -44.667 -47.808   8.240  1.00  0.00     0.189 C 
BRANCH  14  15
HETATM   15  O   UNL     1     -45.490 -47.767   9.411  1.00  0.00    -0.394 OA
HETATM   16  C   UNL     1     -46.761 -47.190   9.144  1.00  0.00     0.201 C 
ENDBRANCH  14  15
ENDBRANCH  13  14
ENDBRANCH   7  13
ENDBRANCH   1   5
BRANCH   3  17
HETATM   17  C   UNL     1     -42.323 -51.994  12.683  1.00  0.00     0.089 C 
HETATM   18  C   UNL     1     -43.529 -52.932  12.538  1.00  0.00     0.066 C 
HETATM   19  C   UNL     1     -44.690 -52.658  13.524  1.00  0.00     0.153 C 
HETATM   20  C   UNL     1     -45.602 -51.513  13.041  1.00  0.00     0.048 C 
HETATM   21  C   UNL     1     -45.596 -53.916  13.564  1.00  0.00     0.048 C 
HETATM   22  N   UNL     1     -44.228 -52.448  14.910  1.00  0.00     0.101 N 
HETATM   23  C   UNL     1     -43.066 -51.565  15.117  1.00  0.00     0.153 C 
HETATM   24  H   UNL     1     -44.007 -53.360  15.317  1.00  0.00     0.317 HD
HETATM   25  C   UNL     1     -43.457 -50.078  15.057  1.00  0.00     0.048 C 
HETATM   26  C   UNL     1     -42.563 -51.806  16.562  1.00  0.00     0.048 C 
HETATM   27  C   UNL     1     -41.917 -51.932  14.161  1.00  0.00     0.066 C 
ENDBRANCH   3  17
TORSDOF 5
ENDMDL
MODEL 2
REMARK VINA RESULT:      -6.5      1.769      2.455
REMARK  5 active torsions:
REMARK  status: ('A' for Active; 'I' for Inactive)
REMARK    1  A    between atoms: O_2  and  C_3 
REMARK    2  A    between atoms: C_3  and  C_4 
REMARK    3  A    between atoms: C_4  and  N_5 
REMARK    4  A    between atoms: C_8  and  C_13 
REMARK       I    between atoms: C_13  and  N_15 
REMARK    5  A    between atoms: N_15  and  C_16 
ROOT
HETATM    1  C   UNL     1     -41.590 -51.956  11.968  1.00  0.00     0.269 C 
HETATM    2  O   UNL     1     -40.745 -52.816  11.777  1.00  0.00    -0.266 OA
HETATM    3  N   UNL     1     -42.885 -52.183  12.376  1.00  0.00    -0.351 N 
HETATM    4  H   UNL     1     -43.490 -51.367  12.401  1.00  0.00     0.163 HD
ENDROOT
BRANCH   1   5
HETATM    5  C   UNL     1     -41.232 -50.475  11.802  1.00  0.00     0.116 C 
HETATM    6  N   UNL     1     -42.181 -49.612  11.586  1.00  0.00    -0.290 N 
HETATM    7  N   UNL     1     -41.792 -48.285  11.440  1.00  0.00    -0.255 N 
ATOM      8  HN  UNL     1     -43.160 -49.894  11.526  1.00  0.00     0.187 HD
HETATM    9  C   UNL     1     -40.467 -47.860  11.397  1.00  0.00     0.262 C 
HETATM   10  C   UNL     1     -39.450 -48.882  11.715  1.00  0.00     0.078 C 
HETATM   11  O   UNL     1     -40.088 -46.725  11.129  1.00  0.00    -0.267 OA
HETATM   12  C   UNL     1     -39.801 -50.146  11.943  1.00  0.00     0.042 C 
BRANCH   7  13
HETATM   13  C   UNL     1     -42.857 -47.284  11.371  1.00  0.00     0.178 C 
BRANCH  13  14
HETATM   14  C   UNL     1     -43.659 -47.387  10.074  1.00  0.00     0.189 C 
BRANCH  14  15
HETATM   15  O   UNL     1     -42.829 -47.848   9.002  1.00  0.00    -0.394 OA
HETATM   16  C   UNL     1     -43.528 -47.870   7.765  1.00  0.00     0.201 C 
ENDBRANCH  14  15
ENDBRANCH  13  14
ENDBRANCH   7  13
ENDBRANCH   1   5
BRANCH   3  17
HETATM   17  C   UNL     1     -43.386 -53.497  12.746  1.00  0.00     0.089 C 
HETATM   18  C   UNL     1     -44.905 -53.527  12.958  1.00  0.00     0.066 C 
HETATM   19  C   UNL     1     -45.385 -52.962  14.316  1.00  0.00     0.153 C 
HETATM   20  C   UNL     1     -45.480 -51.424  14.303  1.00  0.00     0.048 C 
HETATM   21  C   UNL     1     -46.832 -53.461  14.562  1.00  0.00     0.048 C 
HETATM   22  N   UNL     1     -44.588 -53.456  15.456  1.00  0.00     0.101 N 
HETATM   23  C   UNL     1     -43.121 -53.463  15.313  1.00  0.00     0.153 C 
HETATM   24  H   UNL     1     -44.888 -54.410  15.670  1.00  0.00     0.317 HD
HETATM   25  C   UNL     1     -42.515 -52.067  15.537  1.00  0.00     0.048 C 
HETATM   26  C   UNL     1     -42.556 -54.350  16.451  1.00  0.00     0.048 C 
HETATM   27  C   UNL     1     -42.700 -54.103  13.977  1.00  0.00     0.066 C 
ENDBRANCH   3  17
TORSDOF 5
ENDMDL
MODEL 3
REMARK VINA RESULT:      -6.2      2.947      6.543
REMARK  5 active torsions:
REMARK  status: ('A' for Active; 'I' for Inactive)
REMARK    1  A    between atoms: O_2  and  C_3 
REMARK    2  A    between atoms: C_3  and  C_4 
REMARK    3  A    between atoms: C_4  and  N_5 
REMARK    4  A    between atoms: C_8  and  C_13 
REMARK       I    between atoms: C_13  and  N_15 
REMARK    5  A    between atoms: N_15  and  C_16 
ROOT
HETATM    1  C   UNL     1     -41.202 -51.689  12.206  1.00  0.00     0.269 C 
HETATM    2  O   UNL     1     -40.054 -52.100  12.139  1.00  0.00    -0.266 OA
HETATM    3  N   UNL     1     -41.631 -50.445  11.801  1.00  0.00    -0.351 N 
HETATM    4  H   UNL     1     -42.600 -50.224  12.009  1.00  0.00     0.163 HD
ENDROOT
BRANCH   1   5
HETATM    5  C   UNL     1     -42.317 -52.600  12.733  1.00  0.00     0.116 C 
HETATM    6  N   UNL     1     -43.557 -52.291  12.491  1.00  0.00    -0.290 N 
HETATM    7  N   UNL     1     -44.522 -53.155  12.999  1.00  0.00    -0.255 N 
ATOM      8  HN  UNL     1     -43.808 -51.460  11.957  1.00  0.00     0.187 HD
HETATM    9  C   UNL     1     -44.241 -54.237  13.829  1.00  0.00     0.262 C 
HETATM   10  C   UNL     1     -42.813 -54.564  14.005  1.00  0.00     0.078 C 
HETATM   11  O   UNL     1     -45.073 -54.929  14.406  1.00  0.00    -0.267 OA
HETATM   12  C   UNL     1     -41.866 -53.803  13.459  1.00  0.00     0.042 C 
BRANCH   7  13
HETATM   13  C   UNL     1     -45.906 -52.919  12.589  1.00  0.00     0.178 C 
BRANCH  13  14
HETATM   14  C   UNL     1     -46.379 -51.510  12.948  1.00  0.00     0.189 C 
BRANCH  14  15
HETATM   15  O   UNL     1     -45.925 -51.142  14.254  1.00  0.00    -0.394 OA
HETATM   16  C   UNL     1     -46.850 -51.524  15.262  1.00  0.00     0.201 C 
ENDBRANCH  14  15
ENDBRANCH  13  14
ENDBRANCH   7  13
ENDBRANCH   1   5
BRANCH   3  17
HETATM   17  C   UNL     1     -40.771 -49.486  11.126  1.00  0.00     0.089 C 
HETATM   18  C   UNL     1     -39.758 -48.818  12.065  1.00  0.00     0.066 C 
HETATM   19  C   UNL     1     -40.335 -47.683  12.945  1.00  0.00     0.153 C 
HETATM   20  C   UNL     1     -41.045 -48.226  14.200  1.00  0.00     0.048 C 
HETATM   21  C   UNL     1     -39.151 -46.836  13.477  1.00  0.00     0.048 C 
HETATM   22  N   UNL     1     -41.191 -46.749  12.187  1.00  0.00     0.101 N 
HETATM   23  C   UNL     1     -42.180 -47.327  11.259  1.00  0.00     0.153 C 
HETATM   24  H   UNL     1     -40.588 -46.120  11.652  1.00  0.00     0.317 HD
HETATM   25  C   UNL     1     -43.435 -47.828  11.995  1.00  0.00     0.048 C 
HETATM   26  C   UNL     1     -42.666 -46.180  10.339  1.00  0.00     0.048 C 
HETATM   27  C   UNL     1     -41.533 -48.397  10.360  1.00  0.00     0.066 C 
ENDBRANCH   3  17
TORSDOF 5
ENDMDL
MODEL 4
REMARK VINA RESULT:      -5.8      1.949      3.440
REMARK  5 active torsions:
REMARK  status: ('A' for Active; 'I' for Inactive)
REMARK    1  A    between atoms: O_2  and  C_3 
REMARK    2  A    between atoms: C_3  and  C_4 
REMARK    3  A    between atoms: C_4  and  N_5 
REMARK    4  A    between atoms: C_8  and  C_13 
REMARK       I    between atoms: C_13  and  N_15 
REMARK    5  A    between atoms: N_15  and  C_16 
ROOT
HETATM    1  C   UNL     1     -42.099 -48.996  13.614  1.00  0.00     0.269 C 
HETATM    2  O   UNL     1     -41.156 -48.899  14.385  1.00  0.00    -0.266 OA
HETATM    3  N   UNL     1     -43.177 -49.837  13.770  1.00  0.00    -0.351 N 
HETATM    4  H   UNL     1     -43.831 -49.865  12.994  1.00  0.00     0.163 HD
ENDROOT
BRANCH   1   5
HETATM    5  C   UNL     1     -42.172 -48.100  12.372  1.00  0.00     0.116 C 
HETATM    6  N   UNL     1     -41.171 -47.318  12.093  1.00  0.00    -0.290 N 
HETATM    7  N   UNL     1     -41.299 -46.527  10.956  1.00  0.00    -0.255 N 
ATOM      8  HN  UNL     1     -40.336 -47.285  12.678  1.00  0.00     0.187 HD
HETATM    9  C   UNL     1     -42.458 -46.446  10.189  1.00  0.00     0.262 C 
HETATM   10  C   UNL     1     -43.526 -47.409  10.525  1.00  0.00     0.078 C 
HETATM   11  O   UNL     1     -42.653 -45.658   9.269  1.00  0.00    -0.267 OA
HETATM   12  C   UNL     1     -43.395 -48.238  11.559  1.00  0.00     0.042 C 
BRANCH   7  13
HETATM   13  C   UNL     1     -40.118 -45.775  10.533  1.00  0.00     0.178 C 
BRANCH  13  14
HETATM   14  C   UNL     1     -39.975 -44.456  11.291  1.00  0.00     0.189 C 
BRANCH  14  15
HETATM   15  O   UNL     1     -40.560 -43.380  10.549  1.00  0.00    -0.394 OA
HETATM   16  C   UNL     1     -41.594 -42.735  11.280  1.00  0.00     0.201 C 
ENDBRANCH  14  15
ENDBRANCH  13  14
ENDBRANCH   7  13
ENDBRANCH   1   5
BRANCH   3  17
HETATM   17  C   UNL     1     -43.386 -50.653  14.955  1.00  0.00     0.089 C 
HETATM   18  C   UNL     1     -42.690 -52.019  14.879  1.00  0.00     0.066 C 
HETATM   19  C   UNL     1     -43.423 -53.077  14.020  1.00  0.00     0.153 C 
HETATM   20  C   UNL     1     -43.125 -52.911  12.517  1.00  0.00     0.048 C 
HETATM   21  C   UNL     1     -42.866 -54.474  14.397  1.00  0.00     0.048 C 
HETATM   22  N   UNL     1     -44.872 -53.132  14.292  1.00  0.00     0.101 N 
HETATM   23  C   UNL     1     -45.599 -51.853  14.388  1.00  0.00     0.153 C 
HETATM   24  H   UNL     1     -45.017 -53.643  15.166  1.00  0.00     0.317 HD
HETATM   25  C   UNL     1     -45.916 -51.267  13.001  1.00  0.00     0.048 C 
HETATM   26  C   UNL     1     -46.973 -52.158  15.035  1.00  0.00     0.048 C 
HETATM   27  C   UNL     1     -44.862 -50.868  15.313  1.00  0.00     0.066 C 
ENDBRANCH   3  17
TORSDOF 5
ENDMDL
MODEL 5
REMARK VINA RESULT:      -5.6      3.302      6.908
REMARK  5 active torsions:
REMARK  status: ('A' for Active; 'I' for Inactive)
REMARK    1  A    between atoms: O_2  and  C_3 
REMARK    2  A    between atoms: C_3  and  C_4 
REMARK    3  A    between atoms: C_4  and  N_5 
REMARK    4  A    between atoms: C_8  and  C_13 
REMARK       I    between atoms: C_13  and  N_15 
REMARK    5  A    between atoms: N_15  and  C_16 
ROOT
HETATM    1  C   UNL     1     -39.804 -52.243  13.352  1.00  0.00     0.269 C 
HETATM    2  O   UNL     1     -38.615 -52.518  13.341  1.00  0.00    -0.266 OA
HETATM    3  N   UNL     1     -40.366 -51.101  12.826  1.00  0.00    -0.351 N 
HETATM    4  H   UNL     1     -41.360 -50.980  12.997  1.00  0.00     0.163 HD
ENDROOT
BRANCH   1   5
HETATM    5  C   UNL     1     -40.818 -53.230  13.944  1.00  0.00     0.116 C 
HETATM    6  N   UNL     1     -42.045 -53.215  13.513  1.00  0.00    -0.290 N 
HETATM    7  N   UNL     1     -42.917 -54.131  14.091  1.00  0.00    -0.255 N 
ATOM      8  HN  UNL     1     -42.351 -52.566  12.788  1.00  0.00     0.187 HD
HETATM    9  C   UNL     1     -42.583 -54.959  15.160  1.00  0.00     0.262 C 
HETATM   10  C   UNL     1     -41.159 -54.968  15.552  1.00  0.00     0.078 C 
HETATM   11  O   UNL     1     -43.362 -55.671  15.784  1.00  0.00    -0.267 OA
HETATM   12  C   UNL     1     -40.283 -54.161  14.956  1.00  0.00     0.042 C 
BRANCH   7  13
HETATM   13  C   UNL     1     -44.249 -54.247  13.498  1.00  0.00     0.178 C 
BRANCH  13  14
HETATM   14  C   UNL     1     -44.507 -53.164  12.452  1.00  0.00     0.189 C 
BRANCH  14  15
HETATM   15  O   UNL     1     -45.903 -53.083  12.141  1.00  0.00    -0.394 OA
HETATM   16  C   UNL     1     -46.455 -51.828  12.514  1.00  0.00     0.201 C 
ENDBRANCH  14  15
ENDBRANCH  13  14
ENDBRANCH   7  13
ENDBRANCH   1   5
BRANCH   3  17
HETATM   17  C   UNL     1     -39.609 -50.111  12.078  1.00  0.00     0.089 C 
HETATM   18  C   UNL     1     -38.932 -49.065  12.974  1.00  0.00     0.066 C 
HETATM   19  C   UNL     1     -39.870 -47.952  13.499  1.00  0.00     0.153 C 
HETATM   20  C   UNL     1     -40.670 -48.404  14.736  1.00  0.00     0.048 C 
HETATM   21  C   UNL     1     -38.992 -46.771  13.986  1.00  0.00     0.048 C 
HETATM   22  N   UNL     1     -40.746 -47.398  12.449  1.00  0.00     0.101 N 
HETATM   23  C   UNL     1     -41.419 -48.350  11.546  1.00  0.00     0.153 C 
HETATM   24  H   UNL     1     -40.194 -46.756  11.874  1.00  0.00     0.317 HD
HETATM   25  C   UNL     1     -42.659 -48.983  12.200  1.00  0.00     0.048 C 
HETATM   26  C   UNL     1     -41.952 -47.536  10.341  1.00  0.00     0.048 C 
HETATM   27  C   UNL     1     -40.423 -49.388  10.998  1.00  0.00     0.066 C 
ENDBRANCH   3  17
TORSDOF 5
ENDMDL
MODEL 6
REMARK VINA RESULT:      -5.5      2.448      6.767
REMARK  5 active torsions:
REMARK  status: ('A' for Active; 'I' for Inactive)
REMARK    1  A    between atoms: O_2  and  C_3 
REMARK    2  A    between atoms: C_3  and  C_4 
REMARK    3  A    between atoms: C_4  and  N_5 
REMARK    4  A    between atoms: C_8  and  C_13 
REMARK       I    between atoms: C_13  and  N_15 
REMARK    5  A    between atoms: N_15  and  C_16 
ROOT
HETATM    1  C   UNL     1     -42.185 -50.067  12.627  1.00  0.00     0.269 C 
HETATM    2  O   UNL     1     -41.657 -51.004  12.048  1.00  0.00    -0.266 OA
HETATM    3  N   UNL     1     -41.986 -48.735  12.341  1.00  0.00    -0.351 N 
HETATM    4  H   UNL     1     -42.429 -48.077  12.975  1.00  0.00     0.163 HD
ENDROOT
BRANCH   1   5
HETATM    5  C   UNL     1     -43.201 -50.327  13.745  1.00  0.00     0.116 C 
HETATM    6  N   UNL     1     -44.205 -51.122  13.519  1.00  0.00    -0.290 N 
HETATM    7  N   UNL     1     -45.094 -51.315  14.571  1.00  0.00    -0.255 N 
ATOM      8  HN  UNL     1     -44.334 -51.581  12.617  1.00  0.00     0.187 HD
HETATM    9  C   UNL     1     -45.032 -50.628  15.781  1.00  0.00     0.262 C 
HETATM   10  C   UNL     1     -43.832 -49.794  15.990  1.00  0.00     0.078 C 
HETATM   11  O   UNL     1     -45.876 -50.668  16.670  1.00  0.00    -0.267 OA
HETATM   12  C   UNL     1     -42.919 -49.659  15.030  1.00  0.00     0.042 C 
BRANCH   7  13
HETATM   13  C   UNL     1     -46.126 -52.336  14.392  1.00  0.00     0.178 C 
BRANCH  13  14
HETATM   14  C   UNL     1     -46.219 -52.809  12.941  1.00  0.00     0.189 C 
BRANCH  14  15
HETATM   15  O   UNL     1     -45.313 -53.891  12.702  1.00  0.00    -0.394 OA
HETATM   16  C   UNL     1     -45.393 -54.880  13.719  1.00  0.00     0.201 C 
ENDBRANCH  14  15
ENDBRANCH  13  14
ENDBRANCH   7  13
ENDBRANCH   1   5
BRANCH   3  17
HETATM   17  C   UNL     1     -41.189 -48.272  11.217  1.00  0.00     0.089 C 
HETATM   18  C   UNL     1     -40.594 -46.874  11.433  1.00  0.00     0.066 C 
HETATM   19  C   UNL     1     -41.584 -45.704  11.215  1.00  0.00     0.153 C 
HETATM   20  C   UNL     1     -42.466 -45.453  12.453  1.00  0.00     0.048 C 
HETATM   21  C   UNL     1     -40.760 -44.405  11.026  1.00  0.00     0.048 C 
HETATM   22  N   UNL     1     -42.388 -45.855   9.986  1.00  0.00     0.101 N 
HETATM   23  C   UNL     1     -42.979 -47.178   9.714  1.00  0.00     0.153 C 
HETATM   24  H   UNL     1     -41.804 -45.600   9.186  1.00  0.00     0.317 HD
HETATM   25  C   UNL     1     -44.256 -47.417  10.539  1.00  0.00     0.048 C 
HETATM   26  C   UNL     1     -43.434 -47.177   8.233  1.00  0.00     0.048 C 
HETATM   27  C   UNL     1     -41.931 -48.294   9.874  1.00  0.00     0.066 C 
ENDBRANCH   3  17
TORSDOF 5
ENDMDL
MODEL 7
REMARK VINA RESULT:      -5.4      3.153      6.663
REMARK  5 active torsions:
REMARK  status: ('A' for Active; 'I' for Inactive)
REMARK    1  A    between atoms: O_2  and  C_3 
REMARK    2  A    between atoms: C_3  and  C_4 
REMARK    3  A    between atoms: C_4  and  N_5 
REMARK    4  A    between atoms: C_8  and  C_13 
REMARK       I    between atoms: C_13  and  N_15 
REMARK    5  A    between atoms: N_15  and  C_16 
ROOT
HETATM    1  C   UNL     1     -42.985 -49.137  14.832  1.00  0.00     0.269 C 
HETATM    2  O   UNL     1     -43.007 -48.372  15.784  1.00  0.00    -0.266 OA
HETATM    3  N   UNL     1     -42.049 -49.132  13.823  1.00  0.00    -0.351 N 
HETATM    4  H   UNL     1     -42.225 -49.774  13.055  1.00  0.00     0.163 HD
ENDROOT
BRANCH   1   5
HETATM    5  C   UNL     1     -44.034 -50.249  14.715  1.00  0.00     0.116 C 
HETATM    6  N   UNL     1     -44.075 -50.971  13.633  1.00  0.00    -0.290 N 
HETATM    7  N   UNL     1     -45.051 -51.961  13.585  1.00  0.00    -0.255 N 
ATOM      8  HN  UNL     1     -43.426 -50.820  12.862  1.00  0.00     0.187 HD
HETATM    9  C   UNL     1     -46.033 -52.136  14.556  1.00  0.00     0.262 C 
HETATM   10  C   UNL     1     -45.885 -51.326  15.781  1.00  0.00     0.078 C 
HETATM   11  O   UNL     1     -46.989 -52.901  14.477  1.00  0.00    -0.267 OA
HETATM   12  C   UNL     1     -44.907 -50.428  15.891  1.00  0.00     0.042 C 
BRANCH   7  13
HETATM   13  C   UNL     1     -44.998 -52.892  12.458  1.00  0.00     0.178 C 
BRANCH  13  14
HETATM   14  C   UNL     1     -44.135 -54.115  12.763  1.00  0.00     0.189 C 
BRANCH  14  15
HETATM   15  O   UNL     1     -43.001 -53.748  13.557  1.00  0.00    -0.394 OA
HETATM   16  C   UNL     1     -42.822 -54.626  14.660  1.00  0.00     0.201 C 
ENDBRANCH  14  15
ENDBRANCH  13  14
ENDBRANCH   7  13
ENDBRANCH   1   5
BRANCH   3  17
HETATM   17  C   UNL     1     -40.880 -48.267  13.824  1.00  0.00     0.089 C 
HETATM   18  C   UNL     1     -41.025 -47.055  12.895  1.00  0.00     0.066 C 
HETATM   19  C   UNL     1     -40.802 -47.354  11.393  1.00  0.00     0.153 C 
HETATM   20  C   UNL     1     -42.063 -47.938  10.725  1.00  0.00     0.048 C 
HETATM   21  C   UNL     1     -40.537 -46.011  10.667  1.00  0.00     0.048 C 
HETATM   22  N   UNL     1     -39.611 -48.190  11.145  1.00  0.00     0.101 N 
HETATM   23  C   UNL     1     -39.408 -49.366  12.011  1.00  0.00     0.153 C 
HETATM   24  H   UNL     1     -38.781 -47.597  11.220  1.00  0.00     0.317 HD
HETATM   25  C   UNL     1     -40.288 -50.553  11.583  1.00  0.00     0.048 C 
HETATM   26  C   UNL     1     -37.946 -49.835  11.806  1.00  0.00     0.048 C 
HETATM   27  C   UNL     1     -39.568 -48.992  13.496  1.00  0.00     0.066 C 
ENDBRANCH   3  17
TORSDOF 5
ENDMDL
MODEL 8
REMARK VINA RESULT:      -5.4      2.538      7.215
REMARK  5 active torsions:
REMARK  status: ('A' for Active; 'I' for Inactive)
REMARK    1  A    between atoms: O_2  and  C_3 
REMARK    2  A    between atoms: C_3  and  C_4 
REMARK    3  A    between atoms: C_4  and  N_5 
REMARK    4  A    between atoms: C_8  and  C_13 
REMARK       I    between atoms: C_13  and  N_15 
REMARK    5  A    between atoms: N_15  and  C_16 
ROOT
HETATM    1  C   UNL     1     -42.244 -50.896  12.357  1.00  0.00     0.269 C 
HETATM    2  O   UNL     1     -41.255 -51.534  12.033  1.00  0.00    -0.266 OA
HETATM    3  N   UNL     1     -42.423 -49.544  12.167  1.00  0.00    -0.351 N 
HETATM    4  H   UNL     1     -43.264 -49.148  12.576  1.00  0.00     0.163 HD
ENDROOT
BRANCH   1   5
HETATM    5  C   UNL     1     -43.444 -51.607  12.994  1.00  0.00     0.116 C 
HETATM    6  N   UNL     1     -43.370 -52.883  13.238  1.00  0.00    -0.290 N 
HETATM    7  N   UNL     1     -44.492 -53.471  13.813  1.00  0.00    -0.255 N 
ATOM      8  HN  UNL     1     -42.533 -53.423  13.020  1.00  0.00     0.187 HD
HETATM    9  C   UNL     1     -45.698 -52.808  14.025  1.00  0.00     0.262 C 
HETATM   10  C   UNL     1     -45.687 -51.351  13.786  1.00  0.00     0.078 C 
HETATM   11  O   UNL     1     -46.745 -53.329  14.395  1.00  0.00    -0.267 OA
HETATM   12  C   UNL     1     -44.598 -50.745  13.315  1.00  0.00     0.042 C 
BRANCH   7  13
HETATM   13  C   UNL     1     -44.362 -54.860  14.253  1.00  0.00     0.178 C 
BRANCH  13  14
HETATM   14  C   UNL     1     -43.125 -55.073  15.124  1.00  0.00     0.189 C 
BRANCH  14  15
HETATM   15  O   UNL     1     -42.981 -54.006  16.068  1.00  0.00    -0.394 OA
HETATM   16  C   UNL     1     -43.738 -54.238  17.247  1.00  0.00     0.201 C 
ENDBRANCH  14  15
ENDBRANCH  13  14
ENDBRANCH   7  13
ENDBRANCH   1   5
BRANCH   3  17
HETATM   17  C   UNL     1     -41.480 -48.710  11.439  1.00  0.00     0.089 C 
HETATM   18  C   UNL     1     -41.012 -47.488  12.239  1.00  0.00     0.066 C 
HETATM   19  C   UNL     1     -42.018 -46.313  12.282  1.00  0.00     0.153 C 
HETATM   20  C   UNL     1     -43.106 -46.520  13.354  1.00  0.00     0.048 C 
HETATM   21  C   UNL     1     -41.252 -45.037  12.716  1.00  0.00     0.048 C 
HETATM   22  N   UNL     1     -42.599 -46.006  10.960  1.00  0.00     0.101 N 
HETATM   23  C   UNL     1     -43.059 -47.138  10.136  1.00  0.00     0.153 C 
HETATM   24  H   UNL     1     -41.907 -45.483  10.418  1.00  0.00     0.317 HD
HETATM   25  C   UNL     1     -44.438 -47.653  10.585  1.00  0.00     0.048 C 
HETATM   26  C   UNL     1     -43.262 -46.601   8.697  1.00  0.00     0.048 C 
HETATM   27  C   UNL     1     -41.988 -48.243  10.069  1.00  0.00     0.066 C 
ENDBRANCH   3  17
TORSDOF 5
ENDMDL
MODEL 9
REMARK VINA RESULT:      -5.4      3.676      7.732
REMARK  5 active torsions:
REMARK  status: ('A' for Active; 'I' for Inactive)
REMARK    1  A    between atoms: O_2  and  C_3 
REMARK    2  A    between atoms: C_3  and  C_4 
REMARK    3  A    between atoms: C_4  and  N_5 
REMARK    4  A    between atoms: C_8  and  C_13 
REMARK       I    between atoms: C_13  and  N_15 
REMARK    5  A    between atoms: N_15  and  C_16 
ROOT
HETATM    1  C   UNL     1     -41.311 -52.860  12.887  1.00  0.00     0.269 C 
HETATM    2  O   UNL     1     -40.480 -53.666  12.498  1.00  0.00    -0.266 OA
HETATM    3  N   UNL     1     -41.208 -51.491  12.784  1.00  0.00    -0.351 N 
HETATM    4  H   UNL     1     -41.943 -50.958  13.239  1.00  0.00     0.163 HD
ENDROOT
BRANCH   1   5
HETATM    5  C   UNL     1     -42.623 -53.349  13.512  1.00  0.00     0.116 C 
HETATM    6  N   UNL     1     -42.698 -53.490  14.803  1.00  0.00    -0.290 N 
HETATM    7  N   UNL     1     -43.913 -53.941  15.308  1.00  0.00    -0.255 N 
ATOM      8  HN  UNL     1     -41.907 -53.282  15.412  1.00  0.00     0.187 HD
HETATM    9  C   UNL     1     -44.984 -54.348  14.517  1.00  0.00     0.262 C 
HETATM   10  C   UNL     1     -44.851 -54.098  13.068  1.00  0.00     0.078 C 
HETATM   11  O   UNL     1     -46.011 -54.881  14.924  1.00  0.00    -0.267 OA
HETATM   12  C   UNL     1     -43.729 -53.588  12.564  1.00  0.00     0.042 C 
BRANCH   7  13
HETATM   13  C   UNL     1     -44.070 -53.938  16.762  1.00  0.00     0.178 C 
BRANCH  13  14
HETATM   14  C   UNL     1     -43.088 -54.887  17.447  1.00  0.00     0.189 C 
BRANCH  14  15
HETATM   15  O   UNL     1     -42.742 -55.971  16.578  1.00  0.00    -0.394 OA
HETATM   16  C   UNL     1     -41.416 -56.427  16.804  1.00  0.00     0.201 C 
ENDBRANCH  14  15
ENDBRANCH  13  14
ENDBRANCH   7  13
ENDBRANCH   1   5
BRANCH   3  17
HETATM   17  C   UNL     1     -40.123 -50.824  12.083  1.00  0.00     0.089 C 
HETATM   18  C   UNL     1     -39.033 -50.292  13.024  1.00  0.00     0.066 C 
HETATM   19  C   UNL     1     -39.383 -48.967  13.743  1.00  0.00     0.153 C 
HETATM   20  C   UNL     1     -40.259 -49.199  14.990  1.00  0.00     0.048 C 
HETATM   21  C   UNL     1     -38.068 -48.345  14.275  1.00  0.00     0.048 C 
HETATM   22  N   UNL     1     -39.970 -47.960  12.837  1.00  0.00     0.101 N 
HETATM   23  C   UNL     1     -41.016 -48.409  11.900  1.00  0.00     0.153 C 
HETATM   24  H   UNL     1     -39.215 -47.542  12.289  1.00  0.00     0.317 HD
HETATM   25  C   UNL     1     -42.386 -48.540  12.588  1.00  0.00     0.048 C 
HETATM   26  C   UNL     1     -41.186 -47.294  10.839  1.00  0.00     0.048 C 
HETATM   27  C   UNL     1     -40.581 -49.688  11.160  1.00  0.00     0.066 C 
ENDBRANCH   3  17
TORSDOF 5
ENDMDL
