MODEL 1
REMARK VINA RESULT:      -4.3      0.000      0.000
REMARK  4 active torsions:
REMARK  status: ('A' for Active; 'I' for Inactive)
REMARK    1  A    between atoms: N_5  and  C_6 
REMARK    2  A    between atoms: C_6  and  C_7 
REMARK    3  A    between atoms: C_7  and  C_8 
REMARK    4  A    between atoms: N_14  and  C_15 
ROOT
HETATM    1  C   UNL     3     -42.313 -47.002   9.944  1.00  0.00     0.101 A 
HETATM    2  N   UNL     3     -42.245 -48.319   9.662  1.00  0.00    -0.288 N 
ATOM      3  HN  UNL     3     -42.849 -48.834   9.022  1.00  0.00     0.188 HD
HETATM    4  N   UNL     3     -41.243 -48.819  10.373  1.00  0.00    -0.295 N 
ATOM      5  HN  UNL     3     -40.933 -49.790  10.381  1.00  0.00     0.187 HD
HETATM    6  C   UNL     3     -40.712 -47.805  11.086  1.00  0.00     0.201 A 
HETATM    7  N   UNL     3     -41.356 -46.654  10.829  1.00  0.00    -0.326 N 
ENDROOT
BRANCH   1   8
HETATM    8  C   UNL     3     -43.343 -46.079   9.353  1.00  0.00     0.107 C 
BRANCH   8   9
HETATM    9  C   UNL     3     -44.535 -46.872   8.816  1.00  0.00     0.274 C 
BRANCH   9  10
HETATM   10  N   UNL     3     -45.732 -46.039   8.813  1.00  0.00     0.078 N 
HETATM   11  H   UNL     3     -45.484 -45.096   8.438  1.00  0.00     0.312 HD
HETATM   12  H   UNL     3     -46.067 -45.918   9.797  1.00  0.00     0.312 HD
ENDBRANCH   9  10
ENDBRANCH   8   9
ENDBRANCH   1   8
BRANCH   7  13
HETATM   13  C   UNL     3     -41.089 -45.341  11.422  1.00  0.00     0.092 A 
HETATM   14  C   UNL     3     -40.011 -44.639  10.600  1.00  0.00     0.028 A 
HETATM   15  C   UNL     3     -39.703 -45.097  12.008  1.00  0.00     0.028 A 
ENDBRANCH   7  13
TORSDOF 4
ENDMDL
MODEL 2
REMARK VINA RESULT:      -4.3      5.504      7.375
REMARK  4 active torsions:
REMARK  status: ('A' for Active; 'I' for Inactive)
REMARK    1  A    between atoms: N_5  and  C_6 
REMARK    2  A    between atoms: C_6  and  C_7 
REMARK    3  A    between atoms: C_7  and  C_8 
REMARK    4  A    between atoms: N_14  and  C_15 
ROOT
HETATM    1  C   UNL     3     -41.279 -52.375  12.493  1.00  0.00     0.101 A 
HETATM    2  N   UNL     3     -42.367 -52.535  11.713  1.00  0.00    -0.288 N 
ATOM      3  HN  UNL     3     -42.608 -51.985  10.889  1.00  0.00     0.188 HD
HETATM    4  N   UNL     3     -43.065 -53.543  12.220  1.00  0.00    -0.295 N 
ATOM      5  HN  UNL     3     -43.943 -53.913  11.855  1.00  0.00     0.187 HD
HETATM    6  C   UNL     3     -42.400 -53.986  13.305  1.00  0.00     0.201 A 
HETATM    7  N   UNL     3     -41.273 -53.279  13.494  1.00  0.00    -0.326 N 
ENDROOT
BRANCH   1   8
HETATM    8  C   UNL     3     -40.243 -51.309  12.265  1.00  0.00     0.107 C 
BRANCH   8   9
HETATM    9  C   UNL     3     -40.883 -50.052  11.675  1.00  0.00     0.274 C 
BRANCH   9  10
HETATM   10  N   UNL     3     -40.475 -49.884  10.285  1.00  0.00     0.078 N 
HETATM   11  H   UNL     3     -39.598 -49.316  10.259  1.00  0.00     0.312 HD
HETATM   12  H   UNL     3     -41.217 -49.356   9.772  1.00  0.00     0.312 HD
ENDBRANCH   9  10
ENDBRANCH   8   9
ENDBRANCH   1   8
BRANCH   7  13
HETATM   13  C   UNL     3     -40.298 -53.444  14.576  1.00  0.00     0.092 A 
HETATM   14  C   UNL     3     -39.294 -54.521  14.174  1.00  0.00     0.028 A 
HETATM   15  C   UNL     3     -40.266 -54.783  15.302  1.00  0.00     0.028 A 
ENDBRANCH   7  13
TORSDOF 4
ENDMDL
MODEL 3
REMARK VINA RESULT:      -4.2      7.233      9.221
REMARK  4 active torsions:
REMARK  status: ('A' for Active; 'I' for Inactive)
REMARK    1  A    between atoms: N_5  and  C_6 
REMARK    2  A    between atoms: C_6  and  C_7 
REMARK    3  A    between atoms: C_7  and  C_8 
REMARK    4  A    between atoms: N_14  and  C_15 
ROOT
HETATM    1  C   UNL     3     -42.128 -53.824  13.356  1.00  0.00     0.101 A 
HETATM    2  N   UNL     3     -41.694 -53.200  12.243  1.00  0.00    -0.288 N 
ATOM      3  HN  UNL     3     -40.725 -53.104  11.940  1.00  0.00     0.188 HD
HETATM    4  N   UNL     3     -42.765 -52.733  11.615  1.00  0.00    -0.295 N 
ATOM      5  HN  UNL     3     -42.773 -52.213  10.737  1.00  0.00     0.187 HD
HETATM    6  C   UNL     3     -43.842 -53.073  12.351  1.00  0.00     0.201 A 
HETATM    7  N   UNL     3     -43.473 -53.765  13.443  1.00  0.00    -0.326 N 
ENDROOT
BRANCH   1   8
HETATM    8  C   UNL     3     -41.210 -54.468  14.359  1.00  0.00     0.107 C 
BRANCH   8   9
HETATM    9  C   UNL     3     -39.786 -53.933  14.208  1.00  0.00     0.274 C 
BRANCH   9  10
HETATM   10  N   UNL     3     -38.909 -54.976  13.686  1.00  0.00     0.078 N 
HETATM   11  H   UNL     3     -38.602 -55.584  14.480  1.00  0.00     0.312 HD
HETATM   12  H   UNL     3     -38.058 -54.532  13.272  1.00  0.00     0.312 HD
ENDBRANCH   9  10
ENDBRANCH   8   9
ENDBRANCH   1   8
BRANCH   7  13
HETATM   13  C   UNL     3     -44.348 -54.288  14.495  1.00  0.00     0.092 A 
HETATM   14  C   UNL     3     -45.324 -55.285  13.874  1.00  0.00     0.028 A 
HETATM   15  C   UNL     3     -45.835 -53.965  14.405  1.00  0.00     0.028 A 
ENDBRANCH   7  13
TORSDOF 4
ENDMDL
MODEL 4
REMARK VINA RESULT:      -4.2      6.810      8.101
REMARK  4 active torsions:
REMARK  status: ('A' for Active; 'I' for Inactive)
REMARK    1  A    between atoms: N_5  and  C_6 
REMARK    2  A    between atoms: C_6  and  C_7 
REMARK    3  A    between atoms: C_7  and  C_8 
REMARK    4  A    between atoms: N_14  and  C_15 
ROOT
HETATM    1  C   UNL     3     -42.733 -53.608  13.064  1.00  0.00     0.101 A 
HETATM    2  N   UNL     3     -43.101 -52.872  11.996  1.00  0.00    -0.288 N 
ATOM      3  HN  UNL     3     -44.055 -52.695  11.682  1.00  0.00     0.188 HD
HETATM    4  N   UNL     3     -41.989 -52.421  11.430  1.00  0.00    -0.295 N 
ATOM      5  HN  UNL     3     -41.929 -51.831  10.601  1.00  0.00     0.187 HD
HETATM    6  C   UNL     3     -40.953 -52.889  12.155  1.00  0.00     0.201 A 
HETATM    7  N   UNL     3     -41.390 -53.628  13.189  1.00  0.00    -0.326 N 
ENDROOT
BRANCH   1   8
HETATM    8  C   UNL     3     -43.710 -54.319  13.960  1.00  0.00     0.107 C 
BRANCH   8   9
HETATM    9  C   UNL     3     -45.130 -54.210  13.404  1.00  0.00     0.274 C 
BRANCH   9  10
HETATM   10  N   UNL     3     -45.918 -55.370  13.806  1.00  0.00     0.078 N 
HETATM   11  H   UNL     3     -45.911 -56.067  13.027  1.00  0.00     0.312 HD
HETATM   12  H   UNL     3     -46.908 -55.072  13.964  1.00  0.00     0.312 HD
ENDBRANCH   9  10
ENDBRANCH   8   9
ENDBRANCH   1   8
BRANCH   7  13
HETATM   13  C   UNL     3     -40.572 -54.322  14.187  1.00  0.00     0.092 A 
HETATM   14  C   UNL     3     -40.102 -53.311  15.230  1.00  0.00     0.028 A 
HETATM   15  C   UNL     3     -39.100 -53.938  14.287  1.00  0.00     0.028 A 
ENDBRANCH   7  13
TORSDOF 4
ENDMDL
MODEL 5
REMARK VINA RESULT:      -4.2      2.739      4.259
REMARK  4 active torsions:
REMARK  status: ('A' for Active; 'I' for Inactive)
REMARK    1  A    between atoms: N_5  and  C_6 
REMARK    2  A    between atoms: C_6  and  C_7 
REMARK    3  A    between atoms: C_7  and  C_8 
REMARK    4  A    between atoms: N_14  and  C_15 
ROOT
HETATM    1  C   UNL     3     -41.325 -49.070  11.050  1.00  0.00     0.101 A 
HETATM    2  N   UNL     3     -40.464 -49.957  10.511  1.00  0.00    -0.288 N 
ATOM      3  HN  UNL     3     -39.814 -49.782   9.745  1.00  0.00     0.188 HD
HETATM    4  N   UNL     3     -40.622 -51.100  11.165  1.00  0.00    -0.295 N 
ATOM      5  HN  UNL     3     -40.114 -51.968  10.996  1.00  0.00     0.187 HD
HETATM    6  C   UNL     3     -41.579 -50.902  12.093  1.00  0.00     0.201 A 
HETATM    7  N   UNL     3     -42.030 -49.637  12.050  1.00  0.00    -0.326 N 
ENDROOT
BRANCH   1   8
HETATM    8  C   UNL     3     -41.472 -47.654  10.563  1.00  0.00     0.107 C 
BRANCH   8   9
HETATM    9  C   UNL     3     -40.376 -46.765  11.151  1.00  0.00     0.274 C 
BRANCH   9  10
HETATM   10  N   UNL     3     -39.861 -45.859  10.130  1.00  0.00     0.078 N 
HETATM   11  H   UNL     3     -39.105 -46.348   9.599  1.00  0.00     0.312 HD
HETATM   12  H   UNL     3     -39.440 -45.023  10.596  1.00  0.00     0.312 HD
ENDBRANCH   9  10
ENDBRANCH   8   9
ENDBRANCH   1   8
BRANCH   7  13
HETATM   13  C   UNL     3     -43.081 -49.045  12.882  1.00  0.00     0.092 A 
HETATM   14  C   UNL     3     -42.441 -48.442  14.130  1.00  0.00     0.028 A 
HETATM   15  C   UNL     3     -43.329 -49.660  14.254  1.00  0.00     0.028 A 
ENDBRANCH   7  13
TORSDOF 4
ENDMDL
MODEL 6
REMARK VINA RESULT:      -4.2      1.885      3.206
REMARK  4 active torsions:
REMARK  status: ('A' for Active; 'I' for Inactive)
REMARK    1  A    between atoms: N_5  and  C_6 
REMARK    2  A    between atoms: C_6  and  C_7 
REMARK    3  A    between atoms: C_7  and  C_8 
REMARK    4  A    between atoms: N_14  and  C_15 
ROOT
HETATM    1  C   UNL     3     -44.002 -46.512   9.292  1.00  0.00     0.101 A 
HETATM    2  N   UNL     3     -44.437 -45.236   9.323  1.00  0.00    -0.288 N 
ATOM      3  HN  UNL     3     -45.275 -44.871   8.872  1.00  0.00     0.188 HD
HETATM    4  N   UNL     3     -43.569 -44.546  10.051  1.00  0.00    -0.295 N 
ATOM      5  HN  UNL     3     -43.618 -43.550  10.266  1.00  0.00     0.187 HD
HETATM    6  C   UNL     3     -42.611 -45.404  10.454  1.00  0.00     0.201 A 
HETATM    7  N   UNL     3     -42.862 -46.644  10.001  1.00  0.00    -0.326 N 
ENDROOT
BRANCH   1   8
HETATM    8  C   UNL     3     -44.701 -47.610   8.539  1.00  0.00     0.107 C 
BRANCH   8   9
HETATM    9  C   UNL     3     -46.114 -47.824   9.084  1.00  0.00     0.274 C 
BRANCH   9  10
HETATM   10  N   UNL     3     -46.638 -49.108   8.633  1.00  0.00     0.078 N 
HETATM   11  H   UNL     3     -47.596 -49.237   9.032  1.00  0.00     0.312 HD
HETATM   12  H   UNL     3     -46.029 -49.874   9.000  1.00  0.00     0.312 HD
ENDBRANCH   9  10
ENDBRANCH   8   9
ENDBRANCH   1   8
BRANCH   7  13
HETATM   13  C   UNL     3     -42.044 -47.843  10.207  1.00  0.00     0.092 A 
HETATM   14  C   UNL     3     -42.438 -48.486  11.534  1.00  0.00     0.028 A 
HETATM   15  C   UNL     3     -41.076 -47.845  11.385  1.00  0.00     0.028 A 
ENDBRANCH   7  13
TORSDOF 4
ENDMDL
MODEL 7
REMARK VINA RESULT:      -4.1      2.107      2.881
REMARK  4 active torsions:
REMARK  status: ('A' for Active; 'I' for Inactive)
REMARK    1  A    between atoms: N_5  and  C_6 
REMARK    2  A    between atoms: C_6  and  C_7 
REMARK    3  A    between atoms: C_7  and  C_8 
REMARK    4  A    between atoms: N_14  and  C_15 
ROOT
HETATM    1  C   UNL     3     -40.864 -48.957  11.252  1.00  0.00     0.101 A 
HETATM    2  N   UNL     3     -40.328 -49.867  10.414  1.00  0.00    -0.288 N 
ATOM      3  HN  UNL     3     -40.802 -50.332   9.640  1.00  0.00     0.188 HD
HETATM    4  N   UNL     3     -39.067 -50.046  10.787  1.00  0.00    -0.295 N 
ATOM      5  HN  UNL     3     -38.391 -50.672  10.351  1.00  0.00     0.187 HD
HETATM    6  C   UNL     3     -38.846 -49.246  11.850  1.00  0.00     0.201 A 
HETATM    7  N   UNL     3     -39.952 -48.546  12.157  1.00  0.00    -0.326 N 
ENDROOT
BRANCH   1   8
HETATM    8  C   UNL     3     -42.295 -48.500  11.176  1.00  0.00     0.107 C 
BRANCH   8   9
HETATM    9  C   UNL     3     -42.557 -47.760   9.864  1.00  0.00     0.274 C 
BRANCH   9  10
HETATM   10  N   UNL     3     -41.779 -46.527   9.818  1.00  0.00     0.078 N 
HETATM   11  H   UNL     3     -42.417 -45.721  10.004  1.00  0.00     0.312 HD
HETATM   12  H   UNL     3     -41.381 -46.409   8.858  1.00  0.00     0.312 HD
ENDBRANCH   9  10
ENDBRANCH   8   9
ENDBRANCH   1   8
BRANCH   7  13
HETATM   13  C   UNL     3     -40.116 -47.592  13.257  1.00  0.00     0.092 A 
HETATM   14  C   UNL     3     -39.668 -46.211  12.782  1.00  0.00     0.028 A 
HETATM   15  C   UNL     3     -38.859 -46.946  13.827  1.00  0.00     0.028 A 
ENDBRANCH   7  13
TORSDOF 4
ENDMDL
MODEL 8
REMARK VINA RESULT:      -4.1      5.218      6.880
REMARK  4 active torsions:
REMARK  status: ('A' for Active; 'I' for Inactive)
REMARK    1  A    between atoms: N_5  and  C_6 
REMARK    2  A    between atoms: C_6  and  C_7 
REMARK    3  A    between atoms: C_7  and  C_8 
REMARK    4  A    between atoms: N_14  and  C_15 
ROOT
HETATM    1  C   UNL     3     -42.717 -51.869  12.487  1.00  0.00     0.101 A 
HETATM    2  N   UNL     3     -42.174 -53.054  12.140  1.00  0.00    -0.288 N 
ATOM      3  HN  UNL     3     -41.227 -53.208  11.794  1.00  0.00     0.188 HD
HETATM    4  N   UNL     3     -43.103 -53.980  12.333  1.00  0.00    -0.295 N 
ATOM      5  HN  UNL     3     -43.003 -54.981  12.165  1.00  0.00     0.187 HD
HETATM    6  C   UNL     3     -44.205 -53.354  12.792  1.00  0.00     0.201 A 
HETATM    7  N   UNL     3     -43.989 -52.032  12.907  1.00  0.00    -0.326 N 
ENDROOT
BRANCH   1   8
HETATM    8  C   UNL     3     -41.986 -50.558  12.385  1.00  0.00     0.107 C 
BRANCH   8   9
HETATM    9  C   UNL     3     -40.603 -50.759  11.765  1.00  0.00     0.274 C 
BRANCH   9  10
HETATM   10  N   UNL     3     -40.520 -50.062  10.486  1.00  0.00     0.078 N 
HETATM   11  H   UNL     3     -41.023 -50.626   9.763  1.00  0.00     0.312 HD
HETATM   12  H   UNL     3     -39.517 -49.992  10.199  1.00  0.00     0.312 HD
ENDBRANCH   9  10
ENDBRANCH   8   9
ENDBRANCH   1   8
BRANCH   7  13
HETATM   13  C   UNL     3     -44.946 -51.015  13.349  1.00  0.00     0.092 A 
HETATM   14  C   UNL     3     -45.140 -51.144  14.858  1.00  0.00     0.028 A 
HETATM   15  C   UNL     3     -46.275 -51.495  13.922  1.00  0.00     0.028 A 
ENDBRANCH   7  13
TORSDOF 4
ENDMDL
MODEL 9
REMARK VINA RESULT:      -4.1      6.773      8.598
REMARK  4 active torsions:
REMARK  status: ('A' for Active; 'I' for Inactive)
REMARK    1  A    between atoms: N_5  and  C_6 
REMARK    2  A    between atoms: C_6  and  C_7 
REMARK    3  A    between atoms: C_7  and  C_8 
REMARK    4  A    between atoms: N_14  and  C_15 
ROOT
HETATM    1  C   UNL     3     -43.493 -52.755  13.209  1.00  0.00     0.101 A 
HETATM    2  N   UNL     3     -43.556 -51.562  12.583  1.00  0.00    -0.288 N 
ATOM      3  HN  UNL     3     -42.827 -51.140  12.010  1.00  0.00     0.188 HD
HETATM    4  N   UNL     3     -44.746 -51.041  12.855  1.00  0.00    -0.295 N 
ATOM      5  HN  UNL     3     -45.102 -50.144  12.526  1.00  0.00     0.187 HD
HETATM    6  C   UNL     3     -45.396 -51.918  13.646  1.00  0.00     0.201 A 
HETATM    7  N   UNL     3     -44.639 -53.005  13.876  1.00  0.00    -0.326 N 
ENDROOT
BRANCH   1   8
HETATM    8  C   UNL     3     -42.286 -53.651  13.169  1.00  0.00     0.107 C 
BRANCH   8   9
HETATM    9  C   UNL     3     -41.059 -52.883  12.677  1.00  0.00     0.274 C 
BRANCH   9  10
HETATM   10  N   UNL     3     -40.799 -53.194  11.276  1.00  0.00     0.078 N 
HETATM   11  H   UNL     3     -40.878 -52.314  10.717  1.00  0.00     0.312 HD
HETATM   12  H   UNL     3     -41.528 -53.861  10.933  1.00  0.00     0.312 HD
ENDBRANCH   9  10
ENDBRANCH   8   9
ENDBRANCH   1   8
BRANCH   7  13
HETATM   13  C   UNL     3     -44.985 -54.164  14.702  1.00  0.00     0.092 A 
HETATM   14  C   UNL     3     -45.558 -55.257  13.804  1.00  0.00     0.028 A 
HETATM   15  C   UNL     3     -46.456 -54.553  14.796  1.00  0.00     0.028 A 
ENDBRANCH   7  13
TORSDOF 4
ENDMDL
