MODEL 1
REMARK VINA RESULT:      -5.8      0.000      0.000
REMARK  5 active torsions:
REMARK  status: ('A' for Active; 'I' for Inactive)
REMARK    1  A    between atoms: C_2  and  O_3 
REMARK    2  A    between atoms: O_3  and  C_4 
REMARK    3  A    between atoms: C_6  and  N_7 
REMARK       I    between atoms: N_7  and  C_8 
REMARK    4  A    between atoms: C_8  and  C_10 
REMARK    5  A    between atoms: C_10  and  C_11 
ROOT
HETATM    1  N   UNL     1     -43.319 -49.577  13.471  1.00  0.00    -0.355 N 
HETATM    2  C   UNL     1     -42.210 -48.781  13.706  1.00  0.00     0.222 C 
HETATM    3  O   UNL     1     -41.261 -49.132  14.404  1.00  0.00    -0.273 OA
HETATM    4  H   UNL     1     -43.963 -49.277  12.750  1.00  0.00     0.162 HD
ENDROOT
BRANCH   1   5
HETATM    5  C   UNL     1     -43.392 -50.951  13.999  1.00  0.00     0.097 C 
HETATM    6  C   UNL     1     -42.947 -52.068  13.015  1.00  0.00     0.059 C 
HETATM    7  C   UNL     1     -44.079 -52.960  13.630  1.00  0.00     0.133 C 
HETATM    8  C   UNL     1     -44.740 -51.632  13.992  1.00  0.00     0.006 C 
HETATM    9  C   UNL     1     -45.862 -51.176  13.070  1.00  0.00     0.014 C 
HETATM   10  C   UNL     1     -45.658 -51.507  15.183  1.00  0.00     0.014 C 
HETATM   11  C   UNL     1     -46.829 -51.668  14.180  1.00  0.00     0.002 C 
BRANCH   7  12
HETATM   12  O   UNL     1     -43.623 -53.805  14.713  1.00  0.00    -0.385 OA
BRANCH  12  13
HETATM   13  C   UNL     1     -44.155 -55.125  14.768  1.00  0.00     0.163 C 
HETATM   14  C   UNL     1     -45.340 -55.202  13.827  1.00  0.00     0.033 C 
ENDBRANCH  12  13
ENDBRANCH   7  12
ENDBRANCH   1   5
BRANCH   2  15
HETATM   15  C   UNL     1     -42.239 -47.431  13.019  1.00  0.00     0.142 C 
BRANCH  15  16
HETATM   16  C   UNL     1     -42.580 -47.534  11.560  1.00  0.00    -0.034 A 
HETATM   17  C   UNL     1     -43.766 -47.002  11.052  1.00  0.00     0.011 A 
HETATM   18  C   UNL     1     -44.050 -47.120   9.693  1.00  0.00     0.025 A 
HETATM   19  C   UNL     1     -43.135 -47.761   8.865  1.00  0.00     0.005 A 
HETATM   20  C   UNL     1     -43.411 -47.938   7.404  1.00  0.00     0.068 C 
HETATM   21  N   UNL     1     -41.971 -48.269   9.332  1.00  0.00    -0.369 N 
HETATM   22  C   UNL     1     -41.717 -48.145  10.654  1.00  0.00     0.095 A 
ATOM     23  HN  UNL     1     -41.308 -48.728   8.707  1.00  0.00     0.165 HD
ENDBRANCH  15  16
ENDBRANCH   2  15
TORSDOF 5
ENDMDL
MODEL 2
REMARK VINA RESULT:      -5.7      3.860      7.250
REMARK  5 active torsions:
REMARK  status: ('A' for Active; 'I' for Inactive)
REMARK    1  A    between atoms: C_2  and  O_3 
REMARK    2  A    between atoms: O_3  and  C_4 
REMARK    3  A    between atoms: C_6  and  N_7 
REMARK       I    between atoms: N_7  and  C_8 
REMARK    4  A    between atoms: C_8  and  C_10 
REMARK    5  A    between atoms: C_10  and  C_11 
ROOT
HETATM    1  N   UNL     1     -40.184 -52.405  13.401  1.00  0.00    -0.355 N 
HETATM    2  C   UNL     1     -40.420 -53.725  13.748  1.00  0.00     0.222 C 
HETATM    3  O   UNL     1     -39.721 -54.351  14.543  1.00  0.00    -0.273 OA
HETATM    4  H   UNL     1     -40.908 -51.925  12.880  1.00  0.00     0.162 HD
ENDROOT
BRANCH   1   5
HETATM    5  C   UNL     1     -39.099 -51.636  14.035  1.00  0.00     0.097 C 
HETATM    6  C   UNL     1     -39.553 -50.421  14.889  1.00  0.00     0.059 C 
HETATM    7  C   UNL     1     -38.276 -49.673  14.372  1.00  0.00     0.133 C 
HETATM    8  C   UNL     1     -38.366 -50.626  13.183  1.00  0.00     0.006 C 
HETATM    9  C   UNL     1     -38.984 -50.052  11.916  1.00  0.00     0.014 C 
HETATM   10  C   UNL     1     -37.140 -51.039  12.406  1.00  0.00     0.014 C 
HETATM   11  C   UNL     1     -37.530 -49.937  11.387  1.00  0.00     0.002 C 
BRANCH   7  12
HETATM   12  O   UNL     1     -37.136 -49.800  15.254  1.00  0.00    -0.385 OA
BRANCH  12  13
HETATM   13  C   UNL     1     -36.527 -48.591  15.698  1.00  0.00     0.163 C 
HETATM   14  C   UNL     1     -36.903 -47.485  14.733  1.00  0.00     0.033 C 
ENDBRANCH  12  13
ENDBRANCH   7  12
ENDBRANCH   1   5
BRANCH   2  15
HETATM   15  C   UNL     1     -41.628 -54.352  13.084  1.00  0.00     0.142 C 
BRANCH  15  16
HETATM   16  C   UNL     1     -42.900 -53.611  13.385  1.00  0.00    -0.034 A 
HETATM   17  C   UNL     1     -43.385 -53.499  14.689  1.00  0.00     0.011 A 
HETATM   18  C   UNL     1     -44.570 -52.807  14.928  1.00  0.00     0.025 A 
HETATM   19  C   UNL     1     -45.245 -52.232  13.857  1.00  0.00     0.005 A 
HETATM   20  C   UNL     1     -46.538 -51.505  14.061  1.00  0.00     0.068 C 
HETATM   21  N   UNL     1     -44.785 -52.312  12.587  1.00  0.00    -0.369 N 
HETATM   22  C   UNL     1     -43.634 -52.990  12.377  1.00  0.00     0.095 A 
ATOM     23  HN  UNL     1     -45.290 -51.877  11.815  1.00  0.00     0.165 HD
ENDBRANCH  15  16
ENDBRANCH   2  15
TORSDOF 5
ENDMDL
MODEL 3
REMARK VINA RESULT:      -5.6      2.236      6.757
REMARK  5 active torsions:
REMARK  status: ('A' for Active; 'I' for Inactive)
REMARK    1  A    between atoms: C_2  and  O_3 
REMARK    2  A    between atoms: O_3  and  C_4 
REMARK    3  A    between atoms: C_6  and  N_7 
REMARK       I    between atoms: N_7  and  C_8 
REMARK    4  A    between atoms: C_8  and  C_10 
REMARK    5  A    between atoms: C_10  and  C_11 
ROOT
HETATM    1  N   UNL     1     -41.584 -50.474  11.504  1.00  0.00    -0.355 N 
HETATM    2  C   UNL     1     -40.819 -51.497  12.040  1.00  0.00     0.222 C 
HETATM    3  O   UNL     1     -39.597 -51.435  12.166  1.00  0.00    -0.273 OA
HETATM    4  H   UNL     1     -42.589 -50.545  11.601  1.00  0.00     0.162 HD
ENDROOT
BRANCH   1   5
HETATM    5  C   UNL     1     -40.969 -49.195  11.109  1.00  0.00     0.097 C 
HETATM    6  C   UNL     1     -40.359 -48.362  12.271  1.00  0.00     0.059 C 
HETATM    7  C   UNL     1     -40.854 -47.081  11.515  1.00  0.00     0.133 C 
HETATM    8  C   UNL     1     -41.887 -48.015  10.890  1.00  0.00     0.006 C 
HETATM    9  C   UNL     1     -43.282 -47.965  11.498  1.00  0.00     0.014 C 
HETATM   10  C   UNL     1     -42.465 -47.751   9.522  1.00  0.00     0.014 C 
HETATM   11  C   UNL     1     -43.674 -47.117  10.258  1.00  0.00     0.002 C 
BRANCH   7  12
HETATM   12  O   UNL     1     -39.853 -46.502  10.645  1.00  0.00    -0.385 OA
BRANCH  12  13
HETATM   13  C   UNL     1     -39.903 -45.092  10.454  1.00  0.00     0.163 C 
HETATM   14  C   UNL     1     -40.814 -44.499  11.510  1.00  0.00     0.033 C 
ENDBRANCH  12  13
ENDBRANCH   7  12
ENDBRANCH   1   5
BRANCH   2  15
HETATM   15  C   UNL     1     -41.605 -52.713  12.486  1.00  0.00     0.142 C 
BRANCH  15  16
HETATM   16  C   UNL     1     -42.948 -52.354  13.054  1.00  0.00    -0.034 A 
HETATM   17  C   UNL     1     -43.078 -51.412  14.076  1.00  0.00     0.011 A 
HETATM   18  C   UNL     1     -44.340 -51.108  14.580  1.00  0.00     0.025 A 
HETATM   19  C   UNL     1     -45.453 -51.748  14.045  1.00  0.00     0.005 A 
HETATM   20  C   UNL     1     -46.827 -51.476  14.574  1.00  0.00     0.068 C 
HETATM   21  N   UNL     1     -45.354 -52.651  13.042  1.00  0.00    -0.369 N 
HETATM   22  C   UNL     1     -44.119 -52.932  12.569  1.00  0.00     0.095 A 
ATOM     23  HN  UNL     1     -46.183 -53.104  12.656  1.00  0.00     0.165 HD
ENDBRANCH  15  16
ENDBRANCH   2  15
TORSDOF 5
ENDMDL
MODEL 4
REMARK VINA RESULT:      -5.6      3.609      6.859
REMARK  5 active torsions:
REMARK  status: ('A' for Active; 'I' for Inactive)
REMARK    1  A    between atoms: C_2  and  O_3 
REMARK    2  A    between atoms: O_3  and  C_4 
REMARK    3  A    between atoms: C_6  and  N_7 
REMARK       I    between atoms: N_7  and  C_8 
REMARK    4  A    between atoms: C_8  and  C_10 
REMARK    5  A    between atoms: C_10  and  C_11 
ROOT
HETATM    1  N   UNL     1     -42.253 -53.696  13.851  1.00  0.00    -0.355 N 
HETATM    2  C   UNL     1     -43.390 -53.585  13.068  1.00  0.00     0.222 C 
HETATM    3  O   UNL     1     -43.423 -52.969  12.005  1.00  0.00    -0.273 OA
HETATM    4  H   UNL     1     -42.276 -54.363  14.613  1.00  0.00     0.162 HD
ENDROOT
BRANCH   1   5
HETATM    5  C   UNL     1     -40.969 -53.127  13.408  1.00  0.00     0.097 C 
HETATM    6  C   UNL     1     -39.736 -53.509  14.273  1.00  0.00     0.059 C 
HETATM    7  C   UNL     1     -39.196 -52.061  14.013  1.00  0.00     0.133 C 
HETATM    8  C   UNL     1     -40.664 -51.700  13.797  1.00  0.00     0.006 C 
HETATM    9  C   UNL     1     -41.361 -51.025  14.969  1.00  0.00     0.014 C 
HETATM   10  C   UNL     1     -41.072 -50.565  12.890  1.00  0.00     0.014 C 
HETATM   11  C   UNL     1     -41.183 -49.704  14.175  1.00  0.00     0.002 C 
BRANCH   7  12
HETATM   12  O   UNL     1     -38.304 -51.974  12.877  1.00  0.00    -0.385 OA
BRANCH  12  13
HETATM   13  C   UNL     1     -37.345 -50.921  12.889  1.00  0.00     0.163 C 
HETATM   14  C   UNL     1     -37.532 -50.093  11.634  1.00  0.00     0.033 C 
ENDBRANCH  12  13
ENDBRANCH   7  12
ENDBRANCH   1   5
BRANCH   2  15
HETATM   15  C   UNL     1     -44.609 -54.302  13.611  1.00  0.00     0.142 C 
BRANCH  15  16
HETATM   16  C   UNL     1     -45.471 -53.412  14.460  1.00  0.00    -0.034 A 
HETATM   17  C   UNL     1     -46.095 -52.282  13.929  1.00  0.00     0.011 A 
HETATM   18  C   UNL     1     -46.884 -51.478  14.748  1.00  0.00     0.025 A 
HETATM   19  C   UNL     1     -47.042 -51.827  16.085  1.00  0.00     0.005 A 
HETATM   20  C   UNL     1     -47.857 -50.977  17.011  1.00  0.00     0.068 C 
HETATM   21  N   UNL     1     -46.463 -52.927  16.618  1.00  0.00    -0.369 N 
HETATM   22  C   UNL     1     -45.700 -53.692  15.805  1.00  0.00     0.095 A 
ATOM     23  HN  UNL     1     -46.598 -53.171  17.599  1.00  0.00     0.165 HD
ENDBRANCH  15  16
ENDBRANCH   2  15
TORSDOF 5
ENDMDL
MODEL 5
REMARK VINA RESULT:      -5.4      2.353      6.745
REMARK  5 active torsions:
REMARK  status: ('A' for Active; 'I' for Inactive)
REMARK    1  A    between atoms: C_2  and  O_3 
REMARK    2  A    between atoms: O_3  and  C_4 
REMARK    3  A    between atoms: C_6  and  N_7 
REMARK       I    between atoms: N_7  and  C_8 
REMARK    4  A    between atoms: C_8  and  C_10 
REMARK    5  A    between atoms: C_10  and  C_11 
ROOT
HETATM    1  N   UNL     1     -42.697 -51.803  12.399  1.00  0.00    -0.355 N 
HETATM    2  C   UNL     1     -42.950 -53.136  12.678  1.00  0.00     0.222 C 
HETATM    3  O   UNL     1     -42.083 -53.929  13.040  1.00  0.00    -0.273 OA
HETATM    4  H   UNL     1     -43.496 -51.193  12.279  1.00  0.00     0.162 HD
ENDROOT
BRANCH   1   5
HETATM    5  C   UNL     1     -41.354 -51.230  12.594  1.00  0.00     0.097 C 
HETATM    6  C   UNL     1     -41.045 -50.730  14.032  1.00  0.00     0.059 C 
HETATM    7  C   UNL     1     -40.232 -49.563  13.374  1.00  0.00     0.133 C 
HETATM    8  C   UNL     1     -41.136 -49.797  12.166  1.00  0.00     0.006 C 
HETATM    9  C   UNL     1     -42.296 -48.825  12.007  1.00  0.00     0.014 C 
HETATM   10  C   UNL     1     -40.674 -49.489  10.763  1.00  0.00     0.014 C 
HETATM   11  C   UNL     1     -41.435 -48.146  10.909  1.00  0.00     0.002 C 
BRANCH   7  12
HETATM   12  O   UNL     1     -38.822 -49.854  13.229  1.00  0.00    -0.385 OA
BRANCH  12  13
HETATM   13  C   UNL     1     -37.919 -48.764  13.393  1.00  0.00     0.163 C 
HETATM   14  C   UNL     1     -38.716 -47.541  13.799  1.00  0.00     0.033 C 
ENDBRANCH  12  13
ENDBRANCH   7  12
ENDBRANCH   1   5
BRANCH   2  15
HETATM   15  C   UNL     1     -44.398 -53.555  12.520  1.00  0.00     0.142 C 
BRANCH  15  16
HETATM   16  C   UNL     1     -45.288 -52.962  13.575  1.00  0.00    -0.034 A 
HETATM   17  C   UNL     1     -46.095 -51.855  13.306  1.00  0.00     0.011 A 
HETATM   18  C   UNL     1     -46.905 -51.330  14.310  1.00  0.00     0.025 A 
HETATM   19  C   UNL     1     -46.898 -51.929  15.565  1.00  0.00     0.005 A 
HETATM   20  C   UNL     1     -47.729 -51.381  16.684  1.00  0.00     0.068 C 
HETATM   21  N   UNL     1     -46.138 -53.013  15.844  1.00  0.00    -0.369 N 
HETATM   22  C   UNL     1     -45.358 -53.505  14.855  1.00  0.00     0.095 A 
ATOM     23  HN  UNL     1     -46.153 -53.443  16.769  1.00  0.00     0.165 HD
ENDBRANCH  15  16
ENDBRANCH   2  15
TORSDOF 5
ENDMDL
MODEL 6
REMARK VINA RESULT:      -5.3      2.389      7.431
REMARK  5 active torsions:
REMARK  status: ('A' for Active; 'I' for Inactive)
REMARK    1  A    between atoms: C_2  and  O_3 
REMARK    2  A    between atoms: O_3  and  C_4 
REMARK    3  A    between atoms: C_6  and  N_7 
REMARK       I    between atoms: N_7  and  C_8 
REMARK    4  A    between atoms: C_8  and  C_10 
REMARK    5  A    between atoms: C_10  and  C_11 
ROOT
HETATM    1  N   UNL     1     -41.884 -50.111  11.500  1.00  0.00    -0.355 N 
HETATM    2  C   UNL     1     -42.173 -50.915  12.590  1.00  0.00     0.222 C 
HETATM    3  O   UNL     1     -42.454 -50.474  13.702  1.00  0.00    -0.273 OA
HETATM    4  H   UNL     1     -41.837 -50.556  10.592  1.00  0.00     0.162 HD
ENDROOT
BRANCH   1   5
HETATM    5  C   UNL     1     -41.969 -48.643  11.598  1.00  0.00     0.097 C 
HETATM    6  C   UNL     1     -41.853 -47.877  10.251  1.00  0.00     0.059 C 
HETATM    7  C   UNL     1     -41.064 -46.771  11.032  1.00  0.00     0.133 C 
HETATM    8  C   UNL     1     -40.722 -47.895  12.007  1.00  0.00     0.006 C 
HETATM    9  C   UNL     1     -39.337 -48.507  11.854  1.00  0.00     0.014 C 
HETATM   10  C   UNL     1     -40.449 -47.620  13.464  1.00  0.00     0.014 C 
HETATM   11  C   UNL     1     -38.944 -47.659  13.093  1.00  0.00     0.002 C 
BRANCH   7  12
HETATM   12  O   UNL     1     -41.904 -45.693  11.511  1.00  0.00    -0.385 OA
BRANCH  12  13
HETATM   13  C   UNL     1     -41.276 -44.434  11.726  1.00  0.00     0.163 C 
HETATM   14  C   UNL     1     -39.965 -44.418  10.967  1.00  0.00     0.033 C 
ENDBRANCH  12  13
ENDBRANCH   7  12
ENDBRANCH   1   5
BRANCH   2  15
HETATM   15  C   UNL     1     -42.136 -52.403  12.309  1.00  0.00     0.142 C 
BRANCH  15  16
HETATM   16  C   UNL     1     -43.305 -53.133  12.908  1.00  0.00    -0.034 A 
HETATM   17  C   UNL     1     -43.128 -54.103  13.896  1.00  0.00     0.011 A 
HETATM   18  C   UNL     1     -44.236 -54.760  14.425  1.00  0.00     0.025 A 
HETATM   19  C   UNL     1     -45.504 -54.428  13.961  1.00  0.00     0.005 A 
HETATM   20  C   UNL     1     -46.722 -55.129  14.478  1.00  0.00     0.068 C 
HETATM   21  N   UNL     1     -45.702 -53.479  13.017  1.00  0.00    -0.369 N 
HETATM   22  C   UNL     1     -44.611 -52.854  12.516  1.00  0.00     0.095 A 
ATOM     23  HN  UNL     1     -46.640 -53.242  12.695  1.00  0.00     0.165 HD
ENDBRANCH  15  16
ENDBRANCH   2  15
TORSDOF 5
ENDMDL
MODEL 7
REMARK VINA RESULT:      -5.3      3.646      5.052
REMARK  5 active torsions:
REMARK  status: ('A' for Active; 'I' for Inactive)
REMARK    1  A    between atoms: C_2  and  O_3 
REMARK    2  A    between atoms: O_3  and  C_4 
REMARK    3  A    between atoms: C_6  and  N_7 
REMARK       I    between atoms: N_7  and  C_8 
REMARK    4  A    between atoms: C_8  and  C_10 
REMARK    5  A    between atoms: C_10  and  C_11 
ROOT
HETATM    1  N   UNL     1     -44.051 -53.142  13.857  1.00  0.00    -0.355 N 
HETATM    2  C   UNL     1     -42.970 -53.867  14.331  1.00  0.00     0.222 C 
HETATM    3  O   UNL     1     -42.859 -54.232  15.500  1.00  0.00    -0.273 OA
HETATM    4  H   UNL     1     -44.138 -53.039  12.853  1.00  0.00     0.162 HD
ENDROOT
BRANCH   1   5
HETATM    5  C   UNL     1     -45.192 -52.822  14.733  1.00  0.00     0.097 C 
HETATM    6  C   UNL     1     -46.441 -52.241  14.015  1.00  0.00     0.059 C 
HETATM    7  C   UNL     1     -46.650 -51.330  15.274  1.00  0.00     0.133 C 
HETATM    8  C   UNL     1     -45.149 -51.513  15.486  1.00  0.00     0.006 C 
HETATM    9  C   UNL     1     -44.269 -50.358  15.032  1.00  0.00     0.014 C 
HETATM   10  C   UNL     1     -44.534 -51.452  16.862  1.00  0.00     0.014 C 
HETATM   11  C   UNL     1     -44.177 -49.979  16.534  1.00  0.00     0.002 C 
BRANCH   7  12
HETATM   12  O   UNL     1     -47.546 -51.901  16.256  1.00  0.00    -0.385 OA
BRANCH  12  13
HETATM   13  C   UNL     1     -48.256 -50.990  17.089  1.00  0.00     0.163 C 
HETATM   14  C   UNL     1     -48.115 -51.449  18.526  1.00  0.00     0.033 C 
ENDBRANCH  12  13
ENDBRANCH   7  12
ENDBRANCH   1   5
BRANCH   2  15
HETATM   15  C   UNL     1     -41.922 -54.201  13.290  1.00  0.00     0.142 C 
BRANCH  15  16
HETATM   16  C   UNL     1     -41.068 -53.018  12.931  1.00  0.00    -0.034 A 
HETATM   17  C   UNL     1     -39.993 -52.628  13.731  1.00  0.00     0.011 A 
HETATM   18  C   UNL     1     -39.226 -51.524  13.369  1.00  0.00     0.025 A 
HETATM   19  C   UNL     1     -39.544 -50.834  12.204  1.00  0.00     0.005 A 
HETATM   20  C   UNL     1     -38.766 -49.623  11.789  1.00  0.00     0.068 C 
HETATM   21  N   UNL     1     -40.570 -51.203  11.403  1.00  0.00    -0.369 N 
HETATM   22  C   UNL     1     -41.302 -52.278  11.775  1.00  0.00     0.095 A 
ATOM     23  HN  UNL     1     -40.782 -50.690  10.548  1.00  0.00     0.165 HD
ENDBRANCH  15  16
ENDBRANCH   2  15
TORSDOF 5
ENDMDL
MODEL 8
REMARK VINA RESULT:      -5.2      2.228      2.889
REMARK  5 active torsions:
REMARK  status: ('A' for Active; 'I' for Inactive)
REMARK    1  A    between atoms: C_2  and  O_3 
REMARK    2  A    between atoms: O_3  and  C_4 
REMARK    3  A    between atoms: C_6  and  N_7 
REMARK       I    between atoms: N_7  and  C_8 
REMARK    4  A    between atoms: C_8  and  C_10 
REMARK    5  A    between atoms: C_10  and  C_11 
ROOT
HETATM    1  N   UNL     1     -42.622 -49.743  11.929  1.00  0.00    -0.355 N 
HETATM    2  C   UNL     1     -41.542 -49.116  11.329  1.00  0.00     0.222 C 
HETATM    3  O   UNL     1     -40.372 -49.412  11.562  1.00  0.00    -0.273 OA
HETATM    4  H   UNL     1     -43.540 -49.553  11.547  1.00  0.00     0.162 HD
ENDROOT
BRANCH   1   5
HETATM    5  C   UNL     1     -42.425 -50.877  12.849  1.00  0.00     0.097 C 
HETATM    6  C   UNL     1     -42.323 -52.273  12.175  1.00  0.00     0.059 C 
HETATM    7  C   UNL     1     -43.099 -52.845  13.410  1.00  0.00     0.133 C 
HETATM    8  C   UNL     1     -43.643 -51.426  13.553  1.00  0.00     0.006 C 
HETATM    9  C   UNL     1     -45.048 -51.196  13.017  1.00  0.00     0.014 C 
HETATM   10  C   UNL     1     -44.056 -50.871  14.894  1.00  0.00     0.014 C 
HETATM   11  C   UNL     1     -45.507 -51.248  14.498  1.00  0.00     0.002 C 
BRANCH   7  12
HETATM   12  O   UNL     1     -42.232 -53.346  14.454  1.00  0.00    -0.385 OA
BRANCH  12  13
HETATM   13  C   UNL     1     -42.482 -54.668  14.921  1.00  0.00     0.163 C 
HETATM   14  C   UNL     1     -43.935 -55.001  14.654  1.00  0.00     0.033 C 
ENDBRANCH  12  13
ENDBRANCH   7  12
ENDBRANCH   1   5
BRANCH   2  15
HETATM   15  C   UNL     1     -41.907 -48.032  10.336  1.00  0.00     0.142 C 
BRANCH  15  16
HETATM   16  C   UNL     1     -41.560 -46.657  10.830  1.00  0.00    -0.034 A 
HETATM   17  C   UNL     1     -42.464 -45.906  11.584  1.00  0.00     0.011 A 
HETATM   18  C   UNL     1     -42.109 -44.633  12.022  1.00  0.00     0.025 A 
HETATM   19  C   UNL     1     -40.850 -44.136  11.704  1.00  0.00     0.005 A 
HETATM   20  C   UNL     1     -40.434 -42.761  12.128  1.00  0.00     0.068 C 
HETATM   21  N   UNL     1     -39.950 -44.852  10.991  1.00  0.00    -0.369 N 
HETATM   22  C   UNL     1     -40.317 -46.085  10.574  1.00  0.00     0.095 A 
ATOM     23  HN  UNL     1     -39.027 -44.474  10.775  1.00  0.00     0.165 HD
ENDBRANCH  15  16
ENDBRANCH   2  15
TORSDOF 5
ENDMDL
MODEL 9
REMARK VINA RESULT:      -5.2      4.724      8.257
REMARK  5 active torsions:
REMARK  status: ('A' for Active; 'I' for Inactive)
REMARK    1  A    between atoms: C_2  and  O_3 
REMARK    2  A    between atoms: O_3  and  C_4 
REMARK    3  A    between atoms: C_6  and  N_7 
REMARK       I    between atoms: N_7  and  C_8 
REMARK    4  A    between atoms: C_8  and  C_10 
REMARK    5  A    between atoms: C_10  and  C_11 
ROOT
HETATM    1  N   UNL     1     -40.294 -47.299  10.850  1.00  0.00    -0.355 N 
HETATM    2  C   UNL     1     -41.173 -48.363  10.971  1.00  0.00     0.222 C 
HETATM    3  O   UNL     1     -42.394 -48.231  11.019  1.00  0.00    -0.273 OA
HETATM    4  H   UNL     1     -39.326 -47.516  10.644  1.00  0.00     0.162 HD
ENDROOT
BRANCH   1   5
HETATM    5  C   UNL     1     -40.790 -45.920  10.696  1.00  0.00     0.097 C 
HETATM    6  C   UNL     1     -39.722 -44.870  10.281  1.00  0.00     0.059 C 
HETATM    7  C   UNL     1     -40.470 -43.852  11.208  1.00  0.00     0.133 C 
HETATM    8  C   UNL     1     -40.959 -45.094  11.949  1.00  0.00     0.006 C 
HETATM    9  C   UNL     1     -40.221 -45.433  13.236  1.00  0.00     0.014 C 
HETATM   10  C   UNL     1     -42.273 -45.104  12.691  1.00  0.00     0.014 C 
HETATM   11  C   UNL     1     -41.445 -44.825  13.971  1.00  0.00     0.002 C 
BRANCH   7  12
HETATM   12  O   UNL     1     -41.452 -43.050  10.511  1.00  0.00    -0.385 OA
BRANCH  12  13
HETATM   13  C   UNL     1     -41.761 -41.778  11.070  1.00  0.00     0.163 C 
HETATM   14  C   UNL     1     -40.666 -41.410  12.051  1.00  0.00     0.033 C 
ENDBRANCH  12  13
ENDBRANCH   7  12
ENDBRANCH   1   5
BRANCH   2  15
HETATM   15  C   UNL     1     -40.516 -49.727  11.024  1.00  0.00     0.142 C 
BRANCH  15  16
HETATM   16  C   UNL     1     -39.567 -49.866  12.180  1.00  0.00    -0.034 A 
HETATM   17  C   UNL     1     -38.255 -50.303  11.995  1.00  0.00     0.011 A 
HETATM   18  C   UNL     1     -37.405 -50.423  13.092  1.00  0.00     0.025 A 
HETATM   19  C   UNL     1     -37.883 -50.094  14.356  1.00  0.00     0.005 A 
HETATM   20  C   UNL     1     -37.016 -50.236  15.569  1.00  0.00     0.068 C 
HETATM   21  N   UNL     1     -39.146 -49.652  14.558  1.00  0.00    -0.369 N 
HETATM   22  C   UNL     1     -39.954 -49.545  13.479  1.00  0.00     0.095 A 
ATOM     23  HN  UNL     1     -39.476 -49.408  15.492  1.00  0.00     0.165 HD
ENDBRANCH  15  16
ENDBRANCH   2  15
TORSDOF 5
ENDMDL
