MODEL 1
REMARK VINA RESULT:      -5.9      0.000      0.000
REMARK  4 active torsions:
REMARK  status: ('A' for Active; 'I' for Inactive)
REMARK    1  A    between atoms: C_2  and  C_3 
REMARK    2  A    between atoms: C_2  and  N_16 
REMARK    3  A    between atoms: C_3  and  N_4 
REMARK       I    between atoms: N_4  and  C_5 
REMARK       I    between atoms: C_5  and  N_7 
REMARK    4  A    between atoms: N_7  and  C_8 
ROOT
HETATM    1  N   UNL     1     -40.647 -50.581  11.118  1.00  0.00    -0.341 N 
HETATM    2  C   UNL     1     -41.537 -51.064  12.050  1.00  0.00     0.320 C 
HETATM    3  O   UNL     1     -42.014 -50.356  12.930  1.00  0.00    -0.247 OA
HETATM    4  N   UNL     1     -41.757 -52.415  11.893  1.00  0.00    -0.308 N 
HETATM    5  H   UNL     1     -40.767 -50.921  10.172  1.00  0.00     0.164 HD
HETATM    6  H   UNL     1     -41.031 -52.898  11.388  1.00  0.00     0.170 HD
ENDROOT
BRANCH   1   7
HETATM    7  C   UNL     1     -40.275 -49.182  11.223  1.00  0.00     0.159 C 
BRANCH   7   8
HETATM    8  C   UNL     1     -38.940 -48.960  11.966  1.00  0.00     0.236 C 
HETATM    9  C   UNL     1     -37.918 -49.952  11.401  1.00  0.00     0.044 C 
BRANCH   8  10
HETATM   10  N   UNL     1     -39.108 -48.888  13.438  1.00  0.00     0.098 N 
HETATM   11  C   UNL     1     -39.940 -47.760  13.904  1.00  0.00     0.299 C 
HETATM   12  C   UNL     1     -39.177 -46.441  14.120  1.00  0.00     0.198 C 
HETATM   13  O   UNL     1     -38.065 -46.619  15.002  1.00  0.00    -0.388 OA
HETATM   14  C   UNL     1     -37.171 -47.625  14.514  1.00  0.00     0.198 C 
HETATM   15  C   UNL     1     -37.895 -48.961  14.275  1.00  0.00     0.299 C 
ENDBRANCH   8  10
ENDBRANCH   7   8
ENDBRANCH   1   7
BRANCH   4  16
HETATM   16  C   UNL     1     -42.650 -53.174  12.623  1.00  0.00     0.052 A 
HETATM   17  C   UNL     1     -44.041 -53.130  12.230  1.00  0.00     0.036 A 
HETATM   18  C   UNL     1     -44.962 -53.860  12.873  1.00  0.00     0.077 A 
HETATM   19  C   UNL     1     -44.583 -54.706  14.037  1.00  0.00     0.247 A 
HETATM   20  O   UNL     1     -45.451 -55.355  14.613  1.00  0.00    -0.268 OA
HETATM   21  N   UNL     1     -43.239 -54.673  14.389  1.00  0.00    -0.327 N 
HETATM   22  C   UNL     1     -42.773 -55.432  15.540  1.00  0.00     0.159 C 
HETATM   23  C   UNL     1     -42.306 -53.936  13.677  1.00  0.00     0.123 A 
ENDBRANCH   4  16
TORSDOF 4
ENDMDL
MODEL 2
REMARK VINA RESULT:      -5.9      1.817      2.471
REMARK  4 active torsions:
REMARK  status: ('A' for Active; 'I' for Inactive)
REMARK    1  A    between atoms: C_2  and  C_3 
REMARK    2  A    between atoms: C_2  and  N_16 
REMARK    3  A    between atoms: C_3  and  N_4 
REMARK       I    between atoms: N_4  and  C_5 
REMARK       I    between atoms: C_5  and  N_7 
REMARK    4  A    between atoms: N_7  and  C_8 
ROOT
HETATM    1  N   UNL     1     -40.889 -50.580  11.059  1.00  0.00    -0.341 N 
HETATM    2  C   UNL     1     -41.546 -51.151  12.126  1.00  0.00     0.320 C 
HETATM    3  O   UNL     1     -41.479 -50.692  13.260  1.00  0.00    -0.247 OA
HETATM    4  N   UNL     1     -42.213 -52.299  11.758  1.00  0.00    -0.308 N 
HETATM    5  H   UNL     1     -41.397 -50.557  10.185  1.00  0.00     0.164 HD
HETATM    6  H   UNL     1     -41.870 -52.726  10.912  1.00  0.00     0.170 HD
ENDROOT
BRANCH   1   7
HETATM    7  C   UNL     1     -40.087 -49.402  11.333  1.00  0.00     0.159 C 
BRANCH   7   8
HETATM    8  C   UNL     1     -40.897 -48.088  11.288  1.00  0.00     0.236 C 
HETATM    9  C   UNL     1     -41.894 -48.192  10.128  1.00  0.00     0.044 C 
BRANCH   8  10
HETATM   10  N   UNL     1     -40.039 -46.881  11.369  1.00  0.00     0.098 N 
HETATM   11  C   UNL     1     -39.650 -46.500  12.742  1.00  0.00     0.299 C 
HETATM   12  C   UNL     1     -40.659 -45.595  13.470  1.00  0.00     0.198 C 
HETATM   13  O   UNL     1     -40.955 -44.421  12.707  1.00  0.00    -0.388 OA
HETATM   14  C   UNL     1     -41.452 -44.760  11.408  1.00  0.00     0.198 C 
HETATM   15  C   UNL     1     -40.477 -45.673  10.646  1.00  0.00     0.299 C 
ENDBRANCH   8  10
ENDBRANCH   7   8
ENDBRANCH   1   7
BRANCH   4  16
HETATM   16  C   UNL     1     -43.023 -53.057  12.580  1.00  0.00     0.052 A 
HETATM   17  C   UNL     1     -44.453 -52.959  12.385  1.00  0.00     0.036 A 
HETATM   18  C   UNL     1     -45.301 -53.683  13.125  1.00  0.00     0.077 A 
HETATM   19  C   UNL     1     -44.795 -54.580  14.200  1.00  0.00     0.247 A 
HETATM   20  O   UNL     1     -45.598 -55.223  14.870  1.00  0.00    -0.268 OA
HETATM   21  N   UNL     1     -43.415 -54.599  14.364  1.00  0.00    -0.327 N 
HETATM   22  C   UNL     1     -42.822 -55.409  15.417  1.00  0.00     0.159 C 
HETATM   23  C   UNL     1     -42.564 -53.865  13.553  1.00  0.00     0.123 A 
ENDBRANCH   4  16
TORSDOF 4
ENDMDL
MODEL 3
REMARK VINA RESULT:      -5.8      2.635      8.056
REMARK  4 active torsions:
REMARK  status: ('A' for Active; 'I' for Inactive)
REMARK    1  A    between atoms: C_2  and  C_3 
REMARK    2  A    between atoms: C_2  and  N_16 
REMARK    3  A    between atoms: C_3  and  N_4 
REMARK       I    between atoms: N_4  and  C_5 
REMARK       I    between atoms: C_5  and  N_7 
REMARK    4  A    between atoms: N_7  and  C_8 
ROOT
HETATM    1  N   UNL     1     -42.655 -51.676  12.520  1.00  0.00    -0.341 N 
HETATM    2  C   UNL     1     -42.714 -50.306  12.395  1.00  0.00     0.320 C 
HETATM    3  O   UNL     1     -43.443 -49.614  13.096  1.00  0.00    -0.247 OA
HETATM    4  N   UNL     1     -41.912 -49.853  11.370  1.00  0.00    -0.308 N 
HETATM    5  H   UNL     1     -41.736 -52.090  12.437  1.00  0.00     0.164 HD
HETATM    6  H   UNL     1     -41.685 -50.551  10.680  1.00  0.00     0.170 HD
ENDROOT
BRANCH   1   7
HETATM    7  C   UNL     1     -43.514 -52.284  13.519  1.00  0.00     0.159 C 
BRANCH   7   8
HETATM    8  C   UNL     1     -44.574 -53.231  12.917  1.00  0.00     0.236 C 
HETATM    9  C   UNL     1     -45.842 -52.410  12.654  1.00  0.00     0.044 C 
BRANCH   8  10
HETATM   10  N   UNL     1     -44.705 -54.501  13.673  1.00  0.00     0.098 N 
HETATM   11  C   UNL     1     -45.989 -54.658  14.385  1.00  0.00     0.299 C 
HETATM   12  C   UNL     1     -46.026 -54.040  15.794  1.00  0.00     0.198 C 
HETATM   13  O   UNL     1     -44.957 -54.533  16.608  1.00  0.00    -0.388 OA
HETATM   14  C   UNL     1     -43.685 -54.285  15.999  1.00  0.00     0.198 C 
HETATM   15  C   UNL     1     -43.607 -54.878  14.583  1.00  0.00     0.299 C 
ENDBRANCH   8  10
ENDBRANCH   7   8
ENDBRANCH   1   7
BRANCH   4  16
HETATM   16  C   UNL     1     -41.698 -48.529  11.042  1.00  0.00     0.052 A 
HETATM   17  C   UNL     1     -40.477 -47.913  11.512  1.00  0.00     0.036 A 
HETATM   18  C   UNL     1     -40.186 -46.641  11.211  1.00  0.00     0.077 A 
HETATM   19  C   UNL     1     -41.136 -45.812  10.419  1.00  0.00     0.247 A 
HETATM   20  O   UNL     1     -40.846 -44.646  10.168  1.00  0.00    -0.268 OA
HETATM   21  N   UNL     1     -42.309 -46.450  10.032  1.00  0.00    -0.327 N 
HETATM   22  C   UNL     1     -43.322 -45.714   9.291  1.00  0.00     0.159 C 
HETATM   23  C   UNL     1     -42.558 -47.781  10.328  1.00  0.00     0.123 A 
ENDBRANCH   4  16
TORSDOF 4
ENDMDL
MODEL 4
REMARK VINA RESULT:      -5.8      2.420      3.345
REMARK  4 active torsions:
REMARK  status: ('A' for Active; 'I' for Inactive)
REMARK    1  A    between atoms: C_2  and  C_3 
REMARK    2  A    between atoms: C_2  and  N_16 
REMARK    3  A    between atoms: C_3  and  N_4 
REMARK       I    between atoms: N_4  and  C_5 
REMARK       I    between atoms: C_5  and  N_7 
REMARK    4  A    between atoms: N_7  and  C_8 
ROOT
HETATM    1  N   UNL     1     -41.260 -49.682  10.985  1.00  0.00    -0.341 N 
HETATM    2  C   UNL     1     -41.565 -50.454  12.084  1.00  0.00     0.320 C 
HETATM    3  O   UNL     1     -41.464 -50.033  13.230  1.00  0.00    -0.247 OA
HETATM    4  N   UNL     1     -41.927 -51.733  11.723  1.00  0.00    -0.308 N 
HETATM    5  H   UNL     1     -41.878 -49.778  10.190  1.00  0.00     0.164 HD
HETATM    6  H   UNL     1     -41.606 -52.014  10.809  1.00  0.00     0.170 HD
ENDROOT
BRANCH   1   7
HETATM    7  C   UNL     1     -40.792 -48.331  11.238  1.00  0.00     0.159 C 
BRANCH   7   8
HETATM    8  C   UNL     1     -41.844 -47.250  10.908  1.00  0.00     0.236 C 
HETATM    9  C   UNL     1     -42.700 -47.766   9.746  1.00  0.00     0.044 C 
BRANCH   8  10
HETATM   10  N   UNL     1     -41.256 -45.893  10.799  1.00  0.00     0.098 N 
HETATM   11  C   UNL     1     -40.049 -45.681  11.622  1.00  0.00     0.299 C 
HETATM   12  C   UNL     1     -40.324 -45.234  13.068  1.00  0.00     0.198 C 
HETATM   13  O   UNL     1     -41.147 -44.064  13.107  1.00  0.00    -0.388 OA
HETATM   14  C   UNL     1     -42.384 -44.278  12.418  1.00  0.00     0.198 C 
HETATM   15  C   UNL     1     -42.156 -44.736  10.968  1.00  0.00     0.299 C 
ENDBRANCH   8  10
ENDBRANCH   7   8
ENDBRANCH   1   7
BRANCH   4  16
HETATM   16  C   UNL     1     -42.359 -52.721  12.586  1.00  0.00     0.052 A 
HETATM   17  C   UNL     1     -41.358 -53.406  13.372  1.00  0.00     0.036 A 
HETATM   18  C   UNL     1     -41.702 -54.356  14.250  1.00  0.00     0.077 A 
HETATM   19  C   UNL     1     -43.126 -54.762  14.410  1.00  0.00     0.247 A 
HETATM   20  O   UNL     1     -43.409 -55.644  15.216  1.00  0.00    -0.268 OA
HETATM   21  N   UNL     1     -44.034 -54.094  13.597  1.00  0.00    -0.327 N 
HETATM   22  C   UNL     1     -45.444 -54.448  13.645  1.00  0.00     0.159 C 
HETATM   23  C   UNL     1     -43.646 -53.088  12.727  1.00  0.00     0.123 A 
ENDBRANCH   4  16
TORSDOF 4
ENDMDL
MODEL 5
REMARK VINA RESULT:      -5.6      2.055      2.836
REMARK  4 active torsions:
REMARK  status: ('A' for Active; 'I' for Inactive)
REMARK    1  A    between atoms: C_2  and  C_3 
REMARK    2  A    between atoms: C_2  and  N_16 
REMARK    3  A    between atoms: C_3  and  N_4 
REMARK       I    between atoms: N_4  and  C_5 
REMARK       I    between atoms: C_5  and  N_7 
REMARK    4  A    between atoms: N_7  and  C_8 
ROOT
HETATM    1  N   UNL     1     -40.879 -51.121  11.338  1.00  0.00    -0.341 N 
HETATM    2  C   UNL     1     -41.600 -51.646  12.388  1.00  0.00     0.320 C 
HETATM    3  O   UNL     1     -41.213 -51.577  13.548  1.00  0.00    -0.247 OA
HETATM    4  N   UNL     1     -42.741 -52.284  11.953  1.00  0.00    -0.308 N 
HETATM    5  H   UNL     1     -41.418 -50.660  10.616  1.00  0.00     0.164 HD
HETATM    6  H   UNL     1     -42.717 -52.566  10.986  1.00  0.00     0.170 HD
ENDROOT
BRANCH   1   7
HETATM    7  C   UNL     1     -39.615 -50.484  11.659  1.00  0.00     0.159 C 
BRANCH   7   8
HETATM    8  C   UNL     1     -39.713 -48.947  11.757  1.00  0.00     0.236 C 
HETATM    9  C   UNL     1     -38.793 -48.488  12.893  1.00  0.00     0.044 C 
BRANCH   8  10
HETATM   10  N   UNL     1     -41.114 -48.460  11.749  1.00  0.00     0.098 N 
HETATM   11  C   UNL     1     -41.480 -47.670  10.555  1.00  0.00     0.299 C 
HETATM   12  C   UNL     1     -41.162 -46.168  10.654  1.00  0.00     0.198 C 
HETATM   13  O   UNL     1     -41.751 -45.584  11.820  1.00  0.00    -0.388 OA
HETATM   14  C   UNL     1     -41.319 -46.253  13.009  1.00  0.00     0.198 C 
HETATM   15  C   UNL     1     -41.609 -47.762  12.951  1.00  0.00     0.299 C 
ENDBRANCH   8  10
ENDBRANCH   7   8
ENDBRANCH   1   7
BRANCH   4  16
HETATM   16  C   UNL     1     -43.706 -52.846  12.765  1.00  0.00     0.052 A 
HETATM   17  C   UNL     1     -43.611 -54.264  13.033  1.00  0.00     0.036 A 
HETATM   18  C   UNL     1     -44.495 -54.875  13.832  1.00  0.00     0.077 A 
HETATM   19  C   UNL     1     -45.626 -54.116  14.434  1.00  0.00     0.247 A 
HETATM   20  O   UNL     1     -46.426 -54.706  15.154  1.00  0.00    -0.268 OA
HETATM   21  N   UNL     1     -45.684 -52.767  14.105  1.00  0.00    -0.327 N 
HETATM   22  C   UNL     1     -46.776 -51.946  14.607  1.00  0.00     0.159 C 
HETATM   23  C   UNL     1     -44.729 -52.159  13.306  1.00  0.00     0.123 A 
ENDBRANCH   4  16
TORSDOF 4
ENDMDL
MODEL 6
REMARK VINA RESULT:      -5.6      2.835      7.754
REMARK  4 active torsions:
REMARK  status: ('A' for Active; 'I' for Inactive)
REMARK    1  A    between atoms: C_2  and  C_3 
REMARK    2  A    between atoms: C_2  and  N_16 
REMARK    3  A    between atoms: C_3  and  N_4 
REMARK       I    between atoms: N_4  and  C_5 
REMARK       I    between atoms: C_5  and  N_7 
REMARK    4  A    between atoms: N_7  and  C_8 
ROOT
HETATM    1  N   UNL     1     -41.699 -51.844  12.474  1.00  0.00    -0.341 N 
HETATM    2  C   UNL     1     -41.759 -50.469  12.500  1.00  0.00     0.320 C 
HETATM    3  O   UNL     1     -42.002 -49.842  13.525  1.00  0.00    -0.247 OA
HETATM    4  N   UNL     1     -41.571 -49.926  11.247  1.00  0.00    -0.308 N 
HETATM    5  H   UNL     1     -40.966 -52.246  11.903  1.00  0.00     0.164 HD
HETATM    6  H   UNL     1     -41.754 -50.563  10.488  1.00  0.00     0.170 HD
ENDROOT
BRANCH   1   7
HETATM    7  C   UNL     1     -41.954 -52.539  13.722  1.00  0.00     0.159 C 
BRANCH   7   8
HETATM    8  C   UNL     1     -43.416 -53.014  13.868  1.00  0.00     0.236 C 
HETATM    9  C   UNL     1     -43.962 -53.292  12.462  1.00  0.00     0.044 C 
BRANCH   8  10
HETATM   10  N   UNL     1     -44.213 -52.150  14.772  1.00  0.00     0.098 N 
HETATM   11  C   UNL     1     -44.917 -52.876  15.848  1.00  0.00     0.299 C 
HETATM   12  C   UNL     1     -46.304 -53.418  15.460  1.00  0.00     0.198 C 
HETATM   13  O   UNL     1     -47.145 -52.381  14.944  1.00  0.00    -0.388 OA
HETATM   14  C   UNL     1     -46.541 -51.736  13.818  1.00  0.00     0.198 C 
HETATM   15  C   UNL     1     -45.146 -51.185  14.159  1.00  0.00     0.299 C 
ENDBRANCH   8  10
ENDBRANCH   7   8
ENDBRANCH   1   7
BRANCH   4  16
HETATM   16  C   UNL     1     -41.501 -48.579  10.957  1.00  0.00     0.052 A 
HETATM   17  C   UNL     1     -40.332 -47.858  11.409  1.00  0.00     0.036 A 
HETATM   18  C   UNL     1     -40.180 -46.554  11.142  1.00  0.00     0.077 A 
HETATM   19  C   UNL     1     -41.234 -45.802  10.408  1.00  0.00     0.247 A 
HETATM   20  O   UNL     1     -41.071 -44.605  10.188  1.00  0.00    -0.268 OA
HETATM   21  N   UNL     1     -42.350 -46.542  10.037  1.00  0.00    -0.327 N 
HETATM   22  C   UNL     1     -43.457 -45.890   9.353  1.00  0.00     0.159 C 
HETATM   23  C   UNL     1     -42.456 -47.899  10.296  1.00  0.00     0.123 A 
ENDBRANCH   4  16
TORSDOF 4
ENDMDL
MODEL 7
REMARK VINA RESULT:      -5.5      2.769      7.635
REMARK  4 active torsions:
REMARK  status: ('A' for Active; 'I' for Inactive)
REMARK    1  A    between atoms: C_2  and  C_3 
REMARK    2  A    between atoms: C_2  and  N_16 
REMARK    3  A    between atoms: C_3  and  N_4 
REMARK       I    between atoms: N_4  and  C_5 
REMARK       I    between atoms: C_5  and  N_7 
REMARK    4  A    between atoms: N_7  and  C_8 
ROOT
HETATM    1  N   UNL     1     -41.473 -51.612  12.626  1.00  0.00    -0.341 N 
HETATM    2  C   UNL     1     -41.619 -50.243  12.640  1.00  0.00     0.320 C 
HETATM    3  O   UNL     1     -41.583 -49.589  13.676  1.00  0.00    -0.247 OA
HETATM    4  N   UNL     1     -41.860 -49.743  11.378  1.00  0.00    -0.308 N 
HETATM    5  H   UNL     1     -40.923 -51.992  11.867  1.00  0.00     0.164 HD
HETATM    6  H   UNL     1     -42.220 -50.421  10.725  1.00  0.00     0.170 HD
ENDROOT
BRANCH   1   7
HETATM    7  C   UNL     1     -41.288 -52.268  13.907  1.00  0.00     0.159 C 
BRANCH   7   8
HETATM    8  C   UNL     1     -42.511 -53.100  14.349  1.00  0.00     0.236 C 
HETATM    9  C   UNL     1     -42.052 -54.551  14.529  1.00  0.00     0.044 C 
BRANCH   8  10
HETATM   10  N   UNL     1     -43.711 -52.842  13.517  1.00  0.00     0.098 N 
HETATM   11  C   UNL     1     -44.740 -52.007  14.170  1.00  0.00     0.299 C 
HETATM   12  C   UNL     1     -45.746 -52.784  15.038  1.00  0.00     0.198 C 
HETATM   13  O   UNL     1     -46.374 -53.834  14.296  1.00  0.00    -0.388 OA
HETATM   14  C   UNL     1     -45.405 -54.734  13.749  1.00  0.00     0.198 C 
HETATM   15  C   UNL     1     -44.371 -53.998  12.880  1.00  0.00     0.299 C 
ENDBRANCH   8  10
ENDBRANCH   7   8
ENDBRANCH   1   7
BRANCH   4  16
HETATM   16  C   UNL     1     -41.976 -48.407  11.052  1.00  0.00     0.052 A 
HETATM   17  C   UNL     1     -43.303 -47.899  10.779  1.00  0.00     0.036 A 
HETATM   18  C   UNL     1     -43.499 -46.608  10.481  1.00  0.00     0.077 A 
HETATM   19  C   UNL     1     -42.348 -45.668  10.383  1.00  0.00     0.247 A 
HETATM   20  O   UNL     1     -42.559 -44.493  10.098  1.00  0.00    -0.268 OA
HETATM   21  N   UNL     1     -41.097 -46.227  10.616  1.00  0.00    -0.327 N 
HETATM   22  C   UNL     1     -39.904 -45.402  10.502  1.00  0.00     0.159 C 
HETATM   23  C   UNL     1     -40.935 -47.559  10.960  1.00  0.00     0.123 A 
ENDBRANCH   4  16
TORSDOF 4
ENDMDL
MODEL 8
REMARK VINA RESULT:      -5.3      3.212      3.973
REMARK  4 active torsions:
REMARK  status: ('A' for Active; 'I' for Inactive)
REMARK    1  A    between atoms: C_2  and  C_3 
REMARK    2  A    between atoms: C_2  and  N_16 
REMARK    3  A    between atoms: C_3  and  N_4 
REMARK       I    between atoms: N_4  and  C_5 
REMARK       I    between atoms: C_5  and  N_7 
REMARK    4  A    between atoms: N_7  and  C_8 
ROOT
HETATM    1  N   UNL     1     -42.571 -48.173  13.724  1.00  0.00    -0.341 N 
HETATM    2  C   UNL     1     -42.830 -49.446  13.266  1.00  0.00     0.320 C 
HETATM    3  O   UNL     1     -42.322 -49.892  12.245  1.00  0.00    -0.247 OA
HETATM    4  N   UNL     1     -43.752 -50.095  14.059  1.00  0.00    -0.308 N 
HETATM    5  H   UNL     1     -42.467 -48.074  14.726  1.00  0.00     0.164 HD
HETATM    6  H   UNL     1     -44.329 -49.481  14.613  1.00  0.00     0.170 HD
ENDROOT
BRANCH   1   7
HETATM    7  C   UNL     1     -41.669 -47.359  12.931  1.00  0.00     0.159 C 
BRANCH   7   8
HETATM    8  C   UNL     1     -42.045 -45.861  12.925  1.00  0.00     0.236 C 
HETATM    9  C   UNL     1     -43.174 -45.657  13.942  1.00  0.00     0.044 C 
BRANCH   8  10
HETATM   10  N   UNL     1     -42.227 -45.320  11.556  1.00  0.00     0.098 N 
HETATM   11  C   UNL     1     -41.332 -45.912  10.541  1.00  0.00     0.299 C 
HETATM   12  C   UNL     1     -39.957 -45.232  10.419  1.00  0.00     0.198 C 
HETATM   13  O   UNL     1     -40.088 -43.826  10.188  1.00  0.00    -0.388 OA
HETATM   14  C   UNL     1     -40.851 -43.199  11.225  1.00  0.00     0.198 C 
HETATM   15  C   UNL     1     -42.233 -43.854  11.389  1.00  0.00     0.299 C 
ENDBRANCH   8  10
ENDBRANCH   7   8
ENDBRANCH   1   7
BRANCH   4  16
HETATM   16  C   UNL     1     -44.163 -51.404  13.907  1.00  0.00     0.052 A 
HETATM   17  C   UNL     1     -45.398 -51.637  13.192  1.00  0.00     0.036 A 
HETATM   18  C   UNL     1     -45.848 -52.880  12.982  1.00  0.00     0.077 A 
HETATM   19  C   UNL     1     -45.108 -54.057  13.516  1.00  0.00     0.247 A 
HETATM   20  O   UNL     1     -45.551 -55.183  13.316  1.00  0.00    -0.268 OA
HETATM   21  N   UNL     1     -43.951 -53.763  14.228  1.00  0.00    -0.327 N 
HETATM   22  C   UNL     1     -43.179 -54.839  14.829  1.00  0.00     0.159 C 
HETATM   23  C   UNL     1     -43.494 -52.465  14.393  1.00  0.00     0.123 A 
ENDBRANCH   4  16
TORSDOF 4
ENDMDL
MODEL 9
REMARK VINA RESULT:      -5.1      3.403      7.276
REMARK  4 active torsions:
REMARK  status: ('A' for Active; 'I' for Inactive)
REMARK    1  A    between atoms: C_2  and  C_3 
REMARK    2  A    between atoms: C_2  and  N_16 
REMARK    3  A    between atoms: C_3  and  N_4 
REMARK       I    between atoms: N_4  and  C_5 
REMARK       I    between atoms: C_5  and  N_7 
REMARK    4  A    between atoms: N_7  and  C_8 
ROOT
HETATM    1  N   UNL     1     -42.175 -51.673  12.516  1.00  0.00    -0.341 N 
HETATM    2  C   UNL     1     -41.788 -50.448  12.021  1.00  0.00     0.320 C 
HETATM    3  O   UNL     1     -40.652 -50.233  11.615  1.00  0.00    -0.247 OA
HETATM    4  N   UNL     1     -42.805 -49.521  12.102  1.00  0.00    -0.308 N 
HETATM    5  H   UNL     1     -43.102 -51.983  12.257  1.00  0.00     0.164 HD
HETATM    6  H   UNL     1     -43.518 -49.745  12.778  1.00  0.00     0.170 HD
ENDROOT
BRANCH   1   7
HETATM    7  C   UNL     1     -41.167 -52.717  12.554  1.00  0.00     0.159 C 
BRANCH   7   8
HETATM    8  C   UNL     1     -41.468 -53.818  13.594  1.00  0.00     0.236 C 
HETATM    9  C   UNL     1     -42.970 -54.118  13.539  1.00  0.00     0.044 C 
BRANCH   8  10
HETATM   10  N   UNL     1     -40.857 -53.540  14.917  1.00  0.00     0.098 N 
HETATM   11  C   UNL     1     -39.387 -53.679  14.951  1.00  0.00     0.299 C 
HETATM   12  C   UNL     1     -38.880 -55.105  15.231  1.00  0.00     0.198 C 
HETATM   13  O   UNL     1     -39.444 -55.633  16.435  1.00  0.00    -0.388 OA
HETATM   14  C   UNL     1     -40.875 -55.626  16.384  1.00  0.00     0.198 C 
HETATM   15  C   UNL     1     -41.427 -54.219  16.096  1.00  0.00     0.299 C 
ENDBRANCH   8  10
ENDBRANCH   7   8
ENDBRANCH   1   7
BRANCH   4  16
HETATM   16  C   UNL     1     -42.754 -48.228  11.622  1.00  0.00     0.052 A 
HETATM   17  C   UNL     1     -42.350 -47.189  12.542  1.00  0.00     0.036 A 
HETATM   18  C   UNL     1     -42.252 -45.914  12.143  1.00  0.00     0.077 A 
HETATM   19  C   UNL     1     -42.596 -45.527  10.748  1.00  0.00     0.247 A 
HETATM   20  O   UNL     1     -42.506 -44.349  10.415  1.00  0.00    -0.268 OA
HETATM   21  N   UNL     1     -43.016 -46.565   9.924  1.00  0.00    -0.327 N 
HETATM   22  C   UNL     1     -43.417 -46.285   8.554  1.00  0.00     0.159 C 
HETATM   23  C   UNL     1     -43.068 -47.879  10.361  1.00  0.00     0.123 A 
ENDBRANCH   4  16
TORSDOF 4
ENDMDL
