MODEL 1
REMARK VINA RESULT:      -6.3      0.000      0.000
REMARK  5 active torsions:
REMARK  status: ('A' for Active; 'I' for Inactive)
REMARK    1  A    between atoms: C_2  and  C_3 
REMARK       I    between atoms: C_2  and  N_10 
REMARK    2  A    between atoms: C_3  and  C_4 
REMARK    3  A    between atoms: N_10  and  S_11 
REMARK    4  A    between atoms: S_11  and  C_14 
REMARK    5  A    between atoms: C_14  and  C_15 
ROOT
HETATM    1  O   UNL     1     -42.656 -48.405  13.521  1.00  0.00    -0.272 OA
HETATM    2  C   UNL     1     -42.738 -49.277  12.665  1.00  0.00     0.234 C 
HETATM    3  N   UNL     1     -42.578 -48.995  11.300  1.00  0.00    -0.254 N 
HETATM    4  H   UNL     1     -42.548 -49.733  10.603  1.00  0.00     0.181 HD
ENDROOT
BRANCH   3   5
HETATM    5  S   UNL     1     -42.551 -47.461  10.659  1.00  0.00     0.238 S 
HETATM    6  O   UNL     1     -43.490 -46.722  11.476  1.00  0.00    -0.205 OA
HETATM    7  O   UNL     1     -41.169 -47.041  10.566  1.00  0.00    -0.205 OA
BRANCH   5   8
HETATM    8  C   UNL     1     -43.247 -47.697   9.017  1.00  0.00     0.222 C 
BRANCH   8   9
HETATM    9  C   UNL     1     -44.669 -47.280   8.964  1.00  0.00     0.050 A 
HETATM   10  C   UNL     1     -45.832 -48.074   9.118  1.00  0.00     0.054 A 
HETATM   11  C   UNL     1     -46.866 -47.185   8.998  1.00  0.00     0.169 A 
HETATM   12  O   UNL     1     -46.371 -45.937   8.813  1.00  0.00    -0.250 OA
HETATM   13  N   UNL     1     -44.988 -45.988   8.806  1.00  0.00    -0.265 N 
ATOM     14  HN  UNL     1     -44.344 -45.204   8.701  1.00  0.00     0.194 HD
ENDBRANCH   8   9
ENDBRANCH   5   8
ENDBRANCH   3   5
BRANCH   2  15
HETATM   15  C   UNL     1     -42.926 -50.747  13.007  1.00  0.00     0.137 C 
BRANCH  15  16
HETATM   16  C   UNL     1     -44.252 -51.011  13.692  1.00  0.00    -0.075 A 
HETATM   17  C   UNL     1     -45.346 -51.342  12.992  1.00  0.00    -0.023 A 
HETATM   18  C   UNL     1     -46.706 -51.534  13.571  1.00  0.00     0.027 A 
HETATM   19  C   UNL     1     -46.852 -51.375  15.080  1.00  0.00     0.004 A 
HETATM   20  C   UNL     1     -45.618 -51.010  15.899  1.00  0.00     0.005 A 
HETATM   21  C   UNL     1     -44.286 -50.802  15.180  1.00  0.00     0.034 A 
ENDBRANCH  15  16
ENDBRANCH   2  15
TORSDOF 5
ENDMDL
MODEL 2
REMARK VINA RESULT:      -6.0      2.242      2.939
REMARK  5 active torsions:
REMARK  status: ('A' for Active; 'I' for Inactive)
REMARK    1  A    between atoms: C_2  and  C_3 
REMARK       I    between atoms: C_2  and  N_10 
REMARK    2  A    between atoms: C_3  and  C_4 
REMARK    3  A    between atoms: N_10  and  S_11 
REMARK    4  A    between atoms: S_11  and  C_14 
REMARK    5  A    between atoms: C_14  and  C_15 
ROOT
HETATM    1  O   UNL     1     -41.339 -52.904  12.544  1.00  0.00    -0.272 OA
HETATM    2  C   UNL     1     -42.391 -52.302  12.364  1.00  0.00     0.234 C 
HETATM    3  N   UNL     1     -42.422 -50.931  12.072  1.00  0.00    -0.254 N 
HETATM    4  H   UNL     1     -43.287 -50.457  11.826  1.00  0.00     0.181 HD
ENDROOT
BRANCH   3   5
HETATM    5  S   UNL     1     -41.114 -49.915  12.214  1.00  0.00     0.238 S 
HETATM    6  O   UNL     1     -40.616 -50.168  13.550  1.00  0.00    -0.205 OA
HETATM    7  O   UNL     1     -40.263 -50.120  11.062  1.00  0.00    -0.205 OA
BRANCH   5   8
HETATM    8  C   UNL     1     -41.865 -48.280  12.157  1.00  0.00     0.222 C 
BRANCH   8   9
HETATM    9  C   UNL     1     -42.554 -48.043  10.866  1.00  0.00     0.050 A 
HETATM   10  C   UNL     1     -43.865 -47.558  10.637  1.00  0.00     0.054 A 
HETATM   11  C   UNL     1     -43.976 -47.517   9.273  1.00  0.00     0.169 A 
HETATM   12  O   UNL     1     -42.810 -47.919   8.711  1.00  0.00    -0.250 OA
HETATM   13  N   UNL     1     -41.906 -48.238   9.709  1.00  0.00    -0.265 N 
ATOM     14  HN  UNL     1     -40.944 -48.555   9.589  1.00  0.00     0.194 HD
ENDBRANCH   8   9
ENDBRANCH   5   8
ENDBRANCH   3   5
BRANCH   2  15
HETATM   15  C   UNL     1     -43.743 -53.001  12.349  1.00  0.00     0.137 C 
BRANCH  15  16
HETATM   16  C   UNL     1     -44.669 -52.480  13.429  1.00  0.00    -0.075 A 
HETATM   17  C   UNL     1     -45.877 -51.981  13.132  1.00  0.00    -0.023 A 
HETATM   18  C   UNL     1     -46.815 -51.369  14.116  1.00  0.00     0.027 A 
HETATM   19  C   UNL     1     -46.378 -51.342  15.576  1.00  0.00     0.004 A 
HETATM   20  C   UNL     1     -45.011 -51.914  15.939  1.00  0.00     0.005 A 
HETATM   21  C   UNL     1     -44.125 -52.479  14.831  1.00  0.00     0.034 A 
ENDBRANCH  15  16
ENDBRANCH   2  15
TORSDOF 5
ENDMDL
MODEL 3
REMARK VINA RESULT:      -6.0      2.846      3.793
REMARK  5 active torsions:
REMARK  status: ('A' for Active; 'I' for Inactive)
REMARK    1  A    between atoms: C_2  and  C_3 
REMARK       I    between atoms: C_2  and  N_10 
REMARK    2  A    between atoms: C_3  and  C_4 
REMARK    3  A    between atoms: N_10  and  S_11 
REMARK    4  A    between atoms: S_11  and  C_14 
REMARK    5  A    between atoms: C_14  and  C_15 
ROOT
HETATM    1  O   UNL     1     -41.997 -53.145  13.729  1.00  0.00    -0.272 OA
HETATM    2  C   UNL     1     -42.567 -52.743  12.723  1.00  0.00     0.234 C 
HETATM    3  N   UNL     1     -42.009 -51.758  11.895  1.00  0.00    -0.254 N 
HETATM    4  H   UNL     1     -42.436 -51.499  11.010  1.00  0.00     0.181 HD
ENDROOT
BRANCH   3   5
HETATM    5  S   UNL     1     -40.692 -50.829  12.304  1.00  0.00     0.238 S 
HETATM    6  O   UNL     1     -41.162 -50.026  13.414  1.00  0.00    -0.205 OA
HETATM    7  O   UNL     1     -39.556 -51.711  12.464  1.00  0.00    -0.205 OA
BRANCH   5   8
HETATM    8  C   UNL     1     -40.475 -49.779  10.860  1.00  0.00     0.222 C 
BRANCH   8   9
HETATM    9  C   UNL     1     -41.294 -48.547  10.955  1.00  0.00     0.050 A 
HETATM   10  C   UNL     1     -40.864 -47.203  11.074  1.00  0.00     0.054 A 
HETATM   11  C   UNL     1     -42.025 -46.478  11.103  1.00  0.00     0.169 A 
HETATM   12  O   UNL     1     -43.084 -47.314  10.982  1.00  0.00    -0.250 OA
HETATM   13  N   UNL     1     -42.630 -48.617  10.874  1.00  0.00    -0.265 N 
ATOM     14  HN  UNL     1     -43.195 -49.458  10.756  1.00  0.00     0.194 HD
ENDBRANCH   8   9
ENDBRANCH   5   8
ENDBRANCH   3   5
BRANCH   2  15
HETATM   15  C   UNL     1     -43.880 -53.337  12.232  1.00  0.00     0.137 C 
BRANCH  15  16
HETATM   16  C   UNL     1     -45.030 -53.042  13.173  1.00  0.00    -0.075 A 
HETATM   17  C   UNL     1     -45.521 -51.803  13.309  1.00  0.00    -0.023 A 
HETATM   18  C   UNL     1     -46.589 -51.407  14.271  1.00  0.00     0.027 A 
HETATM   19  C   UNL     1     -47.189 -52.505  15.140  1.00  0.00     0.004 A 
HETATM   20  C   UNL     1     -46.653 -53.926  14.996  1.00  0.00     0.005 A 
HETATM   21  C   UNL     1     -45.528 -54.196  13.998  1.00  0.00     0.034 A 
ENDBRANCH  15  16
ENDBRANCH   2  15
TORSDOF 5
ENDMDL
MODEL 4
REMARK VINA RESULT:      -6.0      4.380      5.666
REMARK  5 active torsions:
REMARK  status: ('A' for Active; 'I' for Inactive)
REMARK    1  A    between atoms: C_2  and  C_3 
REMARK       I    between atoms: C_2  and  N_10 
REMARK    2  A    between atoms: C_3  and  C_4 
REMARK    3  A    between atoms: N_10  and  S_11 
REMARK    4  A    between atoms: S_11  and  C_14 
REMARK    5  A    between atoms: C_14  and  C_15 
ROOT
HETATM    1  O   UNL     1     -41.043 -49.550  13.462  1.00  0.00    -0.272 OA
HETATM    2  C   UNL     1     -41.759 -50.290  14.125  1.00  0.00     0.234 C 
HETATM    3  N   UNL     1     -41.622 -51.686  14.089  1.00  0.00    -0.254 N 
HETATM    4  H   UNL     1     -42.148 -52.291  14.713  1.00  0.00     0.181 HD
ENDROOT
BRANCH   3   5
HETATM    5  S   UNL     1     -40.707 -52.506  12.969  1.00  0.00     0.238 S 
HETATM    6  O   UNL     1     -41.223 -52.053  11.694  1.00  0.00    -0.205 OA
HETATM    7  O   UNL     1     -39.313 -52.317  13.306  1.00  0.00    -0.205 OA
BRANCH   5   8
HETATM    8  C   UNL     1     -41.190 -54.220  13.231  1.00  0.00     0.222 C 
BRANCH   8   9
HETATM    9  C   UNL     1     -42.664 -54.364  13.307  1.00  0.00     0.050 A 
HETATM   10  C   UNL     1     -43.460 -54.753  14.412  1.00  0.00     0.054 A 
HETATM   11  C   UNL     1     -44.743 -54.700  13.938  1.00  0.00     0.169 A 
HETATM   12  O   UNL     1     -44.733 -54.282  12.649  1.00  0.00    -0.250 OA
HETATM   13  N   UNL     1     -43.428 -54.055  12.250  1.00  0.00    -0.265 N 
ATOM     14  HN  UNL     1     -43.111 -53.721  11.340  1.00  0.00     0.194 HD
ENDBRANCH   8   9
ENDBRANCH   5   8
ENDBRANCH   3   5
BRANCH   2  15
HETATM   15  C   UNL     1     -42.792 -49.765  15.111  1.00  0.00     0.137 C 
BRANCH  15  16
HETATM   16  C   UNL     1     -44.148 -50.415  14.922  1.00  0.00    -0.075 A 
HETATM   17  C   UNL     1     -44.604 -50.736  13.704  1.00  0.00    -0.023 A 
HETATM   18  C   UNL     1     -45.956 -51.298  13.418  1.00  0.00     0.027 A 
HETATM   19  C   UNL     1     -46.872 -51.556  14.608  1.00  0.00     0.004 A 
HETATM   20  C   UNL     1     -46.369 -51.208  16.006  1.00  0.00     0.005 A 
HETATM   21  C   UNL     1     -44.976 -50.602  16.163  1.00  0.00     0.034 A 
ENDBRANCH  15  16
ENDBRANCH   2  15
TORSDOF 5
ENDMDL
MODEL 5
REMARK VINA RESULT:      -5.9      3.698      4.172
REMARK  5 active torsions:
REMARK  status: ('A' for Active; 'I' for Inactive)
REMARK    1  A    between atoms: C_2  and  C_3 
REMARK       I    between atoms: C_2  and  N_10 
REMARK    2  A    between atoms: C_3  and  C_4 
REMARK    3  A    between atoms: N_10  and  S_11 
REMARK    4  A    between atoms: S_11  and  C_14 
REMARK    5  A    between atoms: C_14  and  C_15 
ROOT
HETATM    1  O   UNL     1     -41.779 -50.367  13.469  1.00  0.00    -0.272 OA
HETATM    2  C   UNL     1     -41.640 -50.808  12.335  1.00  0.00     0.234 C 
HETATM    3  N   UNL     1     -41.601 -49.970  11.211  1.00  0.00    -0.254 N 
HETATM    4  H   UNL     1     -41.387 -50.328  10.285  1.00  0.00     0.181 HD
ENDROOT
BRANCH   3   5
HETATM    5  S   UNL     1     -42.013 -48.359  11.231  1.00  0.00     0.238 S 
HETATM    6  O   UNL     1     -42.189 -48.025   9.833  1.00  0.00    -0.205 OA
HETATM    7  O   UNL     1     -43.100 -48.188  12.170  1.00  0.00    -0.205 OA
BRANCH   5   8
HETATM    8  C   UNL     1     -40.519 -47.568  11.848  1.00  0.00     0.222 C 
BRANCH   8   9
HETATM    9  C   UNL     1     -40.384 -46.184  11.333  1.00  0.00     0.050 A 
HETATM   10  C   UNL     1     -40.663 -44.962  11.992  1.00  0.00     0.054 A 
HETATM   11  C   UNL     1     -40.347 -44.001  11.069  1.00  0.00     0.169 A 
HETATM   12  O   UNL     1     -39.884 -44.592   9.940  1.00  0.00    -0.250 OA
HETATM   13  N   UNL     1     -39.891 -45.966  10.106  1.00  0.00    -0.265 N 
ATOM     14  HN  UNL     1     -39.585 -46.668   9.433  1.00  0.00     0.194 HD
ENDBRANCH   8   9
ENDBRANCH   5   8
ENDBRANCH   3   5
BRANCH   2  15
HETATM   15  C   UNL     1     -41.408 -52.285  12.052  1.00  0.00     0.137 C 
BRANCH  15  16
HETATM   16  C   UNL     1     -42.407 -53.170  12.769  1.00  0.00    -0.075 A 
HETATM   17  C   UNL     1     -43.702 -53.183  12.424  1.00  0.00    -0.023 A 
HETATM   18  C   UNL     1     -44.767 -53.954  13.127  1.00  0.00     0.027 A 
HETATM   19  C   UNL     1     -44.340 -54.819  14.307  1.00  0.00     0.004 A 
HETATM   20  C   UNL     1     -42.870 -54.828  14.712  1.00  0.00     0.005 A 
HETATM   21  C   UNL     1     -41.881 -53.962  13.933  1.00  0.00     0.034 A 
ENDBRANCH  15  16
ENDBRANCH   2  15
TORSDOF 5
ENDMDL
MODEL 6
REMARK VINA RESULT:      -5.9      2.316      2.582
REMARK  5 active torsions:
REMARK  status: ('A' for Active; 'I' for Inactive)
REMARK    1  A    between atoms: C_2  and  C_3 
REMARK       I    between atoms: C_2  and  N_10 
REMARK    2  A    between atoms: C_3  and  C_4 
REMARK    3  A    between atoms: N_10  and  S_11 
REMARK    4  A    between atoms: S_11  and  C_14 
REMARK    5  A    between atoms: C_14  and  C_15 
ROOT
HETATM    1  O   UNL     1     -42.119 -50.518  13.618  1.00  0.00    -0.272 OA
HETATM    2  C   UNL     1     -41.906 -50.900  12.474  1.00  0.00     0.234 C 
HETATM    3  N   UNL     1     -41.761 -50.003  11.406  1.00  0.00    -0.254 N 
HETATM    4  H   UNL     1     -41.486 -50.315  10.479  1.00  0.00     0.181 HD
ENDROOT
BRANCH   3   5
HETATM    5  S   UNL     1     -42.134 -48.384  11.487  1.00  0.00     0.238 S 
HETATM    6  O   UNL     1     -43.438 -48.356  12.115  1.00  0.00    -0.205 OA
HETATM    7  O   UNL     1     -41.013 -47.698  12.092  1.00  0.00    -0.205 OA
BRANCH   5   8
HETATM    8  C   UNL     1     -42.295 -47.920   9.756  1.00  0.00     0.222 C 
BRANCH   8   9
HETATM    9  C   UNL     1     -43.599 -47.265   9.489  1.00  0.00     0.050 A 
HETATM   10  C   UNL     1     -43.853 -45.943   9.049  1.00  0.00     0.054 A 
HETATM   11  C   UNL     1     -45.217 -45.877   8.950  1.00  0.00     0.169 A 
HETATM   12  O   UNL     1     -45.754 -47.077   9.277  1.00  0.00    -0.250 OA
HETATM   13  N   UNL     1     -44.739 -47.960   9.603  1.00  0.00    -0.265 N 
ATOM     14  HN  UNL     1     -44.838 -48.938   9.874  1.00  0.00     0.194 HD
ENDBRANCH   8   9
ENDBRANCH   5   8
ENDBRANCH   3   5
BRANCH   2  15
HETATM   15  C   UNL     1     -41.689 -52.365  12.126  1.00  0.00     0.137 C 
BRANCH  15  16
HETATM   16  C   UNL     1     -42.687 -53.273  12.816  1.00  0.00    -0.075 A 
HETATM   17  C   UNL     1     -43.977 -53.295  12.454  1.00  0.00    -0.023 A 
HETATM   18  C   UNL     1     -45.042 -54.090  13.132  1.00  0.00     0.027 A 
HETATM   19  C   UNL     1     -44.620 -54.967  14.304  1.00  0.00     0.004 A 
HETATM   20  C   UNL     1     -43.155 -54.965  14.728  1.00  0.00     0.005 A 
HETATM   21  C   UNL     1     -42.166 -54.076  13.975  1.00  0.00     0.034 A 
ENDBRANCH  15  16
ENDBRANCH   2  15
TORSDOF 5
ENDMDL
MODEL 7
REMARK VINA RESULT:      -5.8      5.243      6.768
REMARK  5 active torsions:
REMARK  status: ('A' for Active; 'I' for Inactive)
REMARK    1  A    between atoms: C_2  and  C_3 
REMARK       I    between atoms: C_2  and  N_10 
REMARK    2  A    between atoms: C_3  and  C_4 
REMARK    3  A    between atoms: N_10  and  S_11 
REMARK    4  A    between atoms: S_11  and  C_14 
REMARK    5  A    between atoms: C_14  and  C_15 
ROOT
HETATM    1  O   UNL     1     -44.857 -51.607  13.146  1.00  0.00    -0.272 OA
HETATM    2  C   UNL     1     -45.727 -52.089  13.861  1.00  0.00     0.234 C 
HETATM    3  N   UNL     1     -45.689 -53.428  14.278  1.00  0.00    -0.254 N 
HETATM    4  H   UNL     1     -46.356 -53.797  14.949  1.00  0.00     0.181 HD
ENDROOT
BRANCH   3   5
HETATM    5  S   UNL     1     -44.661 -54.574  13.651  1.00  0.00     0.238 S 
HETATM    6  O   UNL     1     -45.258 -55.833  14.044  1.00  0.00    -0.205 OA
HETATM    7  O   UNL     1     -44.449 -54.266  12.253  1.00  0.00    -0.205 OA
BRANCH   5   8
HETATM    8  C   UNL     1     -43.146 -54.315  14.587  1.00  0.00     0.222 C 
BRANCH   8   9
HETATM    9  C   UNL     1     -42.111 -53.639  13.769  1.00  0.00     0.050 A 
HETATM   10  C   UNL     1     -41.547 -52.351  13.941  1.00  0.00     0.054 A 
HETATM   11  C   UNL     1     -40.635 -52.244  12.926  1.00  0.00     0.169 A 
HETATM   12  O   UNL     1     -40.622 -53.392  12.206  1.00  0.00    -0.250 OA
HETATM   13  N   UNL     1     -41.538 -54.280  12.741  1.00  0.00    -0.265 N 
ATOM     14  HN  UNL     1     -41.738 -55.227  12.419  1.00  0.00     0.194 HD
ENDBRANCH   8   9
ENDBRANCH   5   8
ENDBRANCH   3   5
BRANCH   2  15
HETATM   15  C   UNL     1     -46.870 -51.263  14.431  1.00  0.00     0.137 C 
BRANCH  15  16
HETATM   16  C   UNL     1     -46.785 -51.129  15.938  1.00  0.00    -0.075 A 
HETATM   17  C   UNL     1     -47.849 -51.358  16.720  1.00  0.00    -0.023 A 
HETATM   18  C   UNL     1     -47.879 -51.167  18.199  1.00  0.00     0.027 A 
HETATM   19  C   UNL     1     -46.590 -50.711  18.872  1.00  0.00     0.004 A 
HETATM   20  C   UNL     1     -45.364 -50.455  18.002  1.00  0.00     0.005 A 
HETATM   21  C   UNL     1     -45.472 -50.650  16.491  1.00  0.00     0.034 A 
ENDBRANCH  15  16
ENDBRANCH   2  15
TORSDOF 5
ENDMDL
MODEL 8
REMARK VINA RESULT:      -5.7      5.308      7.951
REMARK  5 active torsions:
REMARK  status: ('A' for Active; 'I' for Inactive)
REMARK    1  A    between atoms: C_2  and  C_3 
REMARK       I    between atoms: C_2  and  N_10 
REMARK    2  A    between atoms: C_3  and  C_4 
REMARK    3  A    between atoms: N_10  and  S_11 
REMARK    4  A    between atoms: S_11  and  C_14 
REMARK    5  A    between atoms: C_14  and  C_15 
ROOT
HETATM    1  O   UNL     1     -44.507 -53.827  12.623  1.00  0.00    -0.272 OA
HETATM    2  C   UNL     1     -44.103 -52.811  13.175  1.00  0.00     0.234 C 
HETATM    3  N   UNL     1     -42.816 -52.726  13.727  1.00  0.00    -0.254 N 
HETATM    4  H   UNL     1     -42.449 -51.853  14.095  1.00  0.00     0.181 HD
ENDROOT
BRANCH   3   5
HETATM    5  S   UNL     1     -41.810 -54.030  13.958  1.00  0.00     0.238 S 
HETATM    6  O   UNL     1     -42.615 -54.963  14.720  1.00  0.00    -0.205 OA
HETATM    7  O   UNL     1     -41.267 -54.408  12.672  1.00  0.00    -0.205 OA
BRANCH   5   8
HETATM    8  C   UNL     1     -40.516 -53.359  15.014  1.00  0.00     0.222 C 
BRANCH   8   9
HETATM    9  C   UNL     1     -39.591 -54.420  15.481  1.00  0.00     0.050 A 
HETATM   10  C   UNL     1     -39.416 -54.930  16.790  1.00  0.00     0.054 A 
HETATM   11  C   UNL     1     -38.459 -55.898  16.650  1.00  0.00     0.169 A 
HETATM   12  O   UNL     1     -38.096 -55.992  15.347  1.00  0.00    -0.250 OA
HETATM   13  N   UNL     1     -38.817 -55.074  14.604  1.00  0.00    -0.265 N 
ATOM     14  HN  UNL     1     -38.769 -54.925  13.596  1.00  0.00     0.194 HD
ENDBRANCH   8   9
ENDBRANCH   5   8
ENDBRANCH   3   5
BRANCH   2  15
HETATM   15  C   UNL     1     -44.920 -51.529  13.232  1.00  0.00     0.137 C 
BRANCH  15  16
HETATM   16  C   UNL     1     -45.573 -51.324  14.584  1.00  0.00    -0.075 A 
HETATM   17  C   UNL     1     -46.838 -51.704  14.813  1.00  0.00    -0.023 A 
HETATM   18  C   UNL     1     -47.586 -51.465  16.080  1.00  0.00     0.027 A 
HETATM   19  C   UNL     1     -46.841 -50.765  17.210  1.00  0.00     0.004 A 
HETATM   20  C   UNL     1     -45.398 -50.333  16.976  1.00  0.00     0.005 A 
HETATM   21  C   UNL     1     -44.754 -50.602  15.617  1.00  0.00     0.034 A 
ENDBRANCH  15  16
ENDBRANCH   2  15
TORSDOF 5
ENDMDL
MODEL 9
REMARK VINA RESULT:      -5.6      5.471      6.502
REMARK  5 active torsions:
REMARK  status: ('A' for Active; 'I' for Inactive)
REMARK    1  A    between atoms: C_2  and  C_3 
REMARK       I    between atoms: C_2  and  N_10 
REMARK    2  A    between atoms: C_3  and  C_4 
REMARK    3  A    between atoms: N_10  and  S_11 
REMARK    4  A    between atoms: S_11  and  C_14 
REMARK    5  A    between atoms: C_14  and  C_15 
ROOT
HETATM    1  O   UNL     1     -42.146 -55.123  15.405  1.00  0.00    -0.272 OA
HETATM    2  C   UNL     1     -42.738 -54.628  14.454  1.00  0.00     0.234 C 
HETATM    3  N   UNL     1     -42.087 -53.818  13.513  1.00  0.00    -0.254 N 
HETATM    4  H   UNL     1     -42.556 -53.491  12.673  1.00  0.00     0.181 HD
ENDROOT
BRANCH   3   5
HETATM    5  S   UNL     1     -40.554 -53.204  13.709  1.00  0.00     0.238 S 
HETATM    6  O   UNL     1     -40.604 -52.540  14.995  1.00  0.00    -0.205 OA
HETATM    7  O   UNL     1     -39.610 -54.274  13.471  1.00  0.00    -0.205 OA
BRANCH   5   8
HETATM    8  C   UNL     1     -40.444 -51.968  12.406  1.00  0.00     0.222 C 
BRANCH   8   9
HETATM    9  C   UNL     1     -39.304 -51.046  12.625  1.00  0.00     0.050 A 
HETATM   10  C   UNL     1     -39.145 -49.711  12.179  1.00  0.00     0.054 A 
HETATM   11  C   UNL     1     -37.927 -49.332  12.677  1.00  0.00     0.169 A 
HETATM   12  O   UNL     1     -37.395 -50.350  13.396  1.00  0.00    -0.250 OA
HETATM   13  N   UNL     1     -38.264 -51.427  13.380  1.00  0.00    -0.265 N 
ATOM     14  HN  UNL     1     -38.139 -52.325  13.846  1.00  0.00     0.194 HD
ENDBRANCH   8   9
ENDBRANCH   5   8
ENDBRANCH   3   5
BRANCH   2  15
HETATM   15  C   UNL     1     -44.202 -54.919  14.159  1.00  0.00     0.137 C 
BRANCH  15  16
HETATM   16  C   UNL     1     -45.064 -53.676  14.249  1.00  0.00    -0.075 A 
HETATM   17  C   UNL     1     -45.429 -53.165  15.433  1.00  0.00    -0.023 A 
HETATM   18  C   UNL     1     -46.343 -52.001  15.616  1.00  0.00     0.027 A 
HETATM   19  C   UNL     1     -46.871 -51.322  14.357  1.00  0.00     0.004 A 
HETATM   20  C   UNL     1     -46.459 -51.880  12.999  1.00  0.00     0.005 A 
HETATM   21  C   UNL     1     -45.546 -53.104  12.946  1.00  0.00     0.034 A 
ENDBRANCH  15  16
ENDBRANCH   2  15
TORSDOF 5
ENDMDL
