MODEL 1
REMARK VINA RESULT:      -5.5      0.000      0.000
REMARK  6 active torsions:
REMARK  status: ('A' for Active; 'I' for Inactive)
REMARK    1  A    between atoms: C_2  and  C_3 
REMARK    2  A    between atoms: C_7  and  C_8 
REMARK    3  A    between atoms: C_8  and  C_9 
REMARK    4  A    between atoms: C_9  and  N_10 
REMARK       I    between atoms: N_10  and  C_11 
REMARK       I    between atoms: C_11  and  N_13 
REMARK    5  A    between atoms: C_17  and  C_18 
REMARK    6  A    between atoms: C_18  and  O_19 
ROOT
HETATM    1  N   UNL     1     -42.922 -50.439  12.506  1.00  0.00    -0.343 N 
HETATM    2  C   UNL     1     -43.416 -50.363  13.779  1.00  0.00     0.318 C 
HETATM    3  O   UNL     1     -42.877 -49.685  14.653  1.00  0.00    -0.247 OA
HETATM    4  N   UNL     1     -44.569 -51.073  14.003  1.00  0.00    -0.327 N 
HETATM    5  C   UNL     1     -45.213 -51.002  15.304  1.00  0.00     0.128 C 
HETATM    6  C   UNL     1     -46.640 -51.490  15.097  1.00  0.00     0.022 C 
HETATM    7  C   UNL     1     -46.841 -51.451  13.588  1.00  0.00     0.029 C 
HETATM    8  C   UNL     1     -45.447 -51.685  13.003  1.00  0.00     0.112 C 
HETATM    9  H   UNL     1     -43.029 -51.337  12.056  1.00  0.00     0.164 HD
ENDROOT
BRANCH   1  10
HETATM   10  C   UNL     1     -41.696 -49.749  12.144  1.00  0.00     0.131 C 
BRANCH  10  11
HETATM   11  C   UNL     1     -40.581 -50.673  11.643  1.00  0.00     0.084 C 
BRANCH  11  12
HETATM   12  C   UNL     1     -40.575 -52.009  12.329  1.00  0.00     0.052 A 
HETATM   13  N   UNL     1     -40.961 -53.149  11.788  1.00  0.00    -0.363 N 
HETATM   14  C   UNL     1     -40.861 -54.159  12.721  1.00  0.00     0.103 A 
ATOM     15  HN  UNL     1     -41.283 -53.264  10.827  1.00  0.00     0.165 HD
HETATM   16  C   UNL     1     -40.404 -53.785  13.968  1.00  0.00    -0.001 A 
HETATM   17  S   UNL     1     -40.065 -52.106  13.968  1.00  0.00    -0.080 SA
BRANCH  16  18
HETATM   18  C   UNL     1     -40.207 -54.616  15.192  1.00  0.00     0.043 C 
HETATM   19  C   UNL     1     -38.750 -55.005  15.385  1.00  0.00     0.010 C 
ENDBRANCH  16  18
ENDBRANCH  11  12
ENDBRANCH  10  11
ENDBRANCH   1  10
BRANCH   8  20
HETATM   20  C   UNL     1     -45.114 -53.172  12.779  1.00  0.00     0.189 C 
BRANCH  20  21
HETATM   21  O   UNL     1     -44.107 -53.368  11.789  1.00  0.00    -0.399 OA
HETATM   22  H   UNL     1     -44.584 -53.517  10.951  1.00  0.00     0.209 HD
ENDBRANCH  20  21
ENDBRANCH   8  20
TORSDOF 6
ENDMDL
MODEL 2
REMARK VINA RESULT:      -5.5      2.657      5.960
REMARK  6 active torsions:
REMARK  status: ('A' for Active; 'I' for Inactive)
REMARK    1  A    between atoms: C_2  and  C_3 
REMARK    2  A    between atoms: C_7  and  C_8 
REMARK    3  A    between atoms: C_8  and  C_9 
REMARK    4  A    between atoms: C_9  and  N_10 
REMARK       I    between atoms: N_10  and  C_11 
REMARK       I    between atoms: C_11  and  N_13 
REMARK    5  A    between atoms: C_17  and  C_18 
REMARK    6  A    between atoms: C_18  and  O_19 
ROOT
HETATM    1  N   UNL     1     -40.148 -52.948  13.333  1.00  0.00    -0.343 N 
HETATM    2  C   UNL     1     -40.419 -52.036  12.351  1.00  0.00     0.318 C 
HETATM    3  O   UNL     1     -41.270 -52.235  11.485  1.00  0.00    -0.247 OA
HETATM    4  N   UNL     1     -39.694 -50.873  12.417  1.00  0.00    -0.327 N 
HETATM    5  C   UNL     1     -39.955 -49.809  11.461  1.00  0.00     0.128 C 
HETATM    6  C   UNL     1     -39.355 -48.544  12.059  1.00  0.00     0.022 C 
HETATM    7  C   UNL     1     -39.117 -48.892  13.522  1.00  0.00     0.029 C 
HETATM    8  C   UNL     1     -38.864 -50.401  13.529  1.00  0.00     0.112 C 
HETATM    9  H   UNL     1     -39.180 -53.000  13.617  1.00  0.00     0.164 HD
ENDROOT
BRANCH   1  10
HETATM   10  C   UNL     1     -40.834 -54.228  13.364  1.00  0.00     0.131 C 
BRANCH  10  11
HETATM   11  C   UNL     1     -41.995 -54.293  14.363  1.00  0.00     0.084 C 
BRANCH  11  12
HETATM   12  C   UNL     1     -43.266 -53.703  13.823  1.00  0.00     0.052 A 
HETATM   13  N   UNL     1     -43.681 -53.792  12.574  1.00  0.00    -0.363 N 
HETATM   14  C   UNL     1     -44.863 -53.095  12.429  1.00  0.00     0.103 A 
ATOM     15  HN  UNL     1     -43.202 -54.299  11.830  1.00  0.00     0.165 HD
HETATM   16  C   UNL     1     -45.340 -52.476  13.566  1.00  0.00    -0.001 A 
HETATM   17  S   UNL     1     -44.280 -52.795  14.874  1.00  0.00    -0.080 SA
BRANCH  16  18
HETATM   18  C   UNL     1     -46.559 -51.633  13.744  1.00  0.00     0.043 C 
HETATM   19  C   UNL     1     -46.882 -51.408  15.213  1.00  0.00     0.010 C 
ENDBRANCH  16  18
ENDBRANCH  11  12
ENDBRANCH  10  11
ENDBRANCH   1  10
BRANCH   8  20
HETATM   20  C   UNL     1     -37.383 -50.780  13.342  1.00  0.00     0.189 C 
BRANCH  20  21
HETATM   21  O   UNL     1     -37.202 -51.857  12.426  1.00  0.00    -0.399 OA
HETATM   22  H   UNL     1     -36.492 -51.575  11.820  1.00  0.00     0.209 HD
ENDBRANCH  20  21
ENDBRANCH   8  20
TORSDOF 6
ENDMDL
MODEL 3
REMARK VINA RESULT:      -5.3      2.428      5.775
REMARK  6 active torsions:
REMARK  status: ('A' for Active; 'I' for Inactive)
REMARK    1  A    between atoms: C_2  and  C_3 
REMARK    2  A    between atoms: C_7  and  C_8 
REMARK    3  A    between atoms: C_8  and  C_9 
REMARK    4  A    between atoms: C_9  and  N_10 
REMARK       I    between atoms: N_10  and  C_11 
REMARK       I    between atoms: C_11  and  N_13 
REMARK    5  A    between atoms: C_17  and  C_18 
REMARK    6  A    between atoms: C_18  and  O_19 
ROOT
HETATM    1  N   UNL     1     -40.457 -52.924  12.808  1.00  0.00    -0.343 N 
HETATM    2  C   UNL     1     -39.625 -52.219  13.632  1.00  0.00     0.318 C 
HETATM    3  O   UNL     1     -39.153 -52.703  14.660  1.00  0.00    -0.247 OA
HETATM    4  N   UNL     1     -39.331 -50.945  13.216  1.00  0.00    -0.327 N 
HETATM    5  C   UNL     1     -38.399 -50.136  13.985  1.00  0.00     0.128 C 
HETATM    6  C   UNL     1     -37.946 -49.016  13.060  1.00  0.00     0.022 C 
HETATM    7  C   UNL     1     -38.362 -49.479  11.670  1.00  0.00     0.029 C 
HETATM    8  C   UNL     1     -39.596 -50.352  11.903  1.00  0.00     0.112 C 
HETATM    9  H   UNL     1     -41.186 -52.382  12.367  1.00  0.00     0.164 HD
ENDROOT
BRANCH   1  10
HETATM   10  C   UNL     1     -40.861 -54.278  13.144  1.00  0.00     0.131 C 
BRANCH  10  11
HETATM   11  C   UNL     1     -42.001 -54.357  14.166  1.00  0.00     0.084 C 
BRANCH  11  12
HETATM   12  C   UNL     1     -43.272 -53.728  13.674  1.00  0.00     0.052 A 
HETATM   13  N   UNL     1     -43.779 -53.871  12.464  1.00  0.00    -0.363 N 
HETATM   14  C   UNL     1     -44.928 -53.115  12.353  1.00  0.00     0.103 A 
ATOM     15  HN  UNL     1     -43.382 -54.450  11.725  1.00  0.00     0.165 HD
HETATM   16  C   UNL     1     -45.289 -52.400  13.476  1.00  0.00    -0.001 A 
HETATM   17  S   UNL     1     -44.159 -52.698  14.728  1.00  0.00    -0.080 SA
BRANCH  16  18
HETATM   18  C   UNL     1     -46.445 -51.477  13.679  1.00  0.00     0.043 C 
HETATM   19  C   UNL     1     -46.887 -51.433  15.133  1.00  0.00     0.010 C 
ENDBRANCH  16  18
ENDBRANCH  11  12
ENDBRANCH  10  11
ENDBRANCH   1  10
BRANCH   8  20
HETATM   20  C   UNL     1     -40.921 -49.565  11.885  1.00  0.00     0.189 C 
BRANCH  20  21
HETATM   21  O   UNL     1     -42.061 -50.410  11.748  1.00  0.00    -0.399 OA
HETATM   22  H   UNL     1     -42.806 -49.916  12.138  1.00  0.00     0.209 HD
ENDBRANCH  20  21
ENDBRANCH   8  20
TORSDOF 6
ENDMDL
MODEL 4
REMARK VINA RESULT:      -5.2      3.140      5.382
REMARK  6 active torsions:
REMARK  status: ('A' for Active; 'I' for Inactive)
REMARK    1  A    between atoms: C_2  and  C_3 
REMARK    2  A    between atoms: C_7  and  C_8 
REMARK    3  A    between atoms: C_8  and  C_9 
REMARK    4  A    between atoms: C_9  and  N_10 
REMARK       I    between atoms: N_10  and  C_11 
REMARK       I    between atoms: C_11  and  N_13 
REMARK    5  A    between atoms: C_17  and  C_18 
REMARK    6  A    between atoms: C_18  and  O_19 
ROOT
HETATM    1  N   UNL     1     -42.896 -49.772  13.012  1.00  0.00    -0.343 N 
HETATM    2  C   UNL     1     -43.577 -49.897  14.190  1.00  0.00     0.318 C 
HETATM    3  O   UNL     1     -43.352 -49.175  15.160  1.00  0.00    -0.247 OA
HETATM    4  N   UNL     1     -44.549 -50.867  14.204  1.00  0.00    -0.327 N 
HETATM    5  C   UNL     1     -45.378 -51.034  15.386  1.00  0.00     0.128 C 
HETATM    6  C   UNL     1     -46.601 -51.822  14.938  1.00  0.00     0.022 C 
HETATM    7  C   UNL     1     -46.578 -51.728  13.418  1.00  0.00     0.029 C 
HETATM    8  C   UNL     1     -45.097 -51.596  13.057  1.00  0.00     0.112 C 
HETATM    9  H   UNL     1     -42.718 -50.638  12.522  1.00  0.00     0.164 HD
ENDROOT
BRANCH   1  10
HETATM   10  C   UNL     1     -41.829 -48.795  12.872  1.00  0.00     0.131 C 
BRANCH  10  11
HETATM   11  C   UNL     1     -41.250 -48.696  11.456  1.00  0.00     0.084 C 
BRANCH  11  12
HETATM   12  C   UNL     1     -42.242 -48.181  10.453  1.00  0.00     0.052 A 
HETATM   13  N   UNL     1     -42.182 -48.374   9.149  1.00  0.00    -0.363 N 
HETATM   14  C   UNL     1     -43.232 -47.721   8.538  1.00  0.00     0.103 A 
ATOM     15  HN  UNL     1     -41.469 -48.922   8.668  1.00  0.00     0.165 HD
HETATM   16  C   UNL     1     -44.083 -47.033   9.377  1.00  0.00    -0.001 A 
HETATM   17  S   UNL     1     -43.564 -47.226  10.997  1.00  0.00    -0.080 SA
BRANCH  16  18
HETATM   18  C   UNL     1     -45.284 -46.211   9.041  1.00  0.00     0.043 C 
HETATM   19  C   UNL     1     -46.560 -47.039   9.061  1.00  0.00     0.010 C 
ENDBRANCH  16  18
ENDBRANCH  11  12
ENDBRANCH  10  11
ENDBRANCH   1  10
BRANCH   8  20
HETATM   20  C   UNL     1     -44.390 -52.948  12.845  1.00  0.00     0.189 C 
BRANCH  20  21
HETATM   21  O   UNL     1     -43.300 -52.861  11.931  1.00  0.00    -0.399 OA
HETATM   22  H   UNL     1     -42.547 -52.517  12.447  1.00  0.00     0.209 HD
ENDBRANCH  20  21
ENDBRANCH   8  20
TORSDOF 6
ENDMDL
MODEL 5
REMARK VINA RESULT:      -5.2      1.989      3.396
REMARK  6 active torsions:
REMARK  status: ('A' for Active; 'I' for Inactive)
REMARK    1  A    between atoms: C_2  and  C_3 
REMARK    2  A    between atoms: C_7  and  C_8 
REMARK    3  A    between atoms: C_8  and  C_9 
REMARK    4  A    between atoms: C_9  and  N_10 
REMARK       I    between atoms: N_10  and  C_11 
REMARK       I    between atoms: C_11  and  N_13 
REMARK    5  A    between atoms: C_17  and  C_18 
REMARK    6  A    between atoms: C_18  and  O_19 
ROOT
HETATM    1  N   UNL     1     -42.987 -53.559  14.098  1.00  0.00    -0.343 N 
HETATM    2  C   UNL     1     -43.975 -53.933  14.965  1.00  0.00     0.318 C 
HETATM    3  O   UNL     1     -43.807 -54.809  15.813  1.00  0.00    -0.247 OA
HETATM    4  N   UNL     1     -45.155 -53.244  14.843  1.00  0.00    -0.327 N 
HETATM    5  C   UNL     1     -46.245 -53.517  15.765  1.00  0.00     0.128 C 
HETATM    6  C   UNL     1     -47.187 -52.325  15.672  1.00  0.00     0.022 C 
HETATM    7  C   UNL     1     -46.370 -51.248  14.971  1.00  0.00     0.029 C 
HETATM    8  C   UNL     1     -45.395 -52.017  14.078  1.00  0.00     0.112 C 
HETATM    9  H   UNL     1     -43.301 -53.305  13.171  1.00  0.00     0.164 HD
ENDROOT
BRANCH   1  10
HETATM   10  C   UNL     1     -41.696 -54.225  14.112  1.00  0.00     0.131 C 
BRANCH  10  11
HETATM   11  C   UNL     1     -40.869 -54.016  12.838  1.00  0.00     0.084 C 
BRANCH  11  12
HETATM   12  C   UNL     1     -40.619 -52.568  12.532  1.00  0.00     0.052 A 
HETATM   13  N   UNL     1     -41.162 -51.891  11.538  1.00  0.00    -0.363 N 
HETATM   14  C   UNL     1     -40.671 -50.602  11.536  1.00  0.00     0.103 A 
ATOM     15  HN  UNL     1     -41.840 -52.264  10.873  1.00  0.00     0.165 HD
HETATM   16  C   UNL     1     -39.756 -50.304  12.524  1.00  0.00    -0.001 A 
HETATM   17  S   UNL     1     -39.515 -51.684  13.510  1.00  0.00    -0.080 SA
BRANCH  16  18
HETATM   18  C   UNL     1     -39.024 -49.029  12.784  1.00  0.00     0.043 C 
HETATM   19  C   UNL     1     -37.829 -49.238  13.701  1.00  0.00     0.010 C 
ENDBRANCH  16  18
ENDBRANCH  11  12
ENDBRANCH  10  11
ENDBRANCH   1  10
BRANCH   8  20
HETATM   20  C   UNL     1     -45.948 -52.315  12.672  1.00  0.00     0.189 C 
BRANCH  20  21
HETATM   21  O   UNL     1     -45.015 -53.010  11.849  1.00  0.00    -0.399 OA
HETATM   22  H   UNL     1     -45.113 -53.954  12.074  1.00  0.00     0.209 HD
ENDBRANCH  20  21
ENDBRANCH   8  20
TORSDOF 6
ENDMDL
MODEL 6
REMARK VINA RESULT:      -5.2      3.426      5.444
REMARK  6 active torsions:
REMARK  status: ('A' for Active; 'I' for Inactive)
REMARK    1  A    between atoms: C_2  and  C_3 
REMARK    2  A    between atoms: C_7  and  C_8 
REMARK    3  A    between atoms: C_8  and  C_9 
REMARK    4  A    between atoms: C_9  and  N_10 
REMARK       I    between atoms: N_10  and  C_11 
REMARK       I    between atoms: C_11  and  N_13 
REMARK    5  A    between atoms: C_17  and  C_18 
REMARK    6  A    between atoms: C_18  and  O_19 
ROOT
HETATM    1  N   UNL     1     -42.988 -50.061  12.247  1.00  0.00    -0.343 N 
HETATM    2  C   UNL     1     -43.315 -50.017  13.574  1.00  0.00     0.318 C 
HETATM    3  O   UNL     1     -42.734 -49.282  14.370  1.00  0.00    -0.247 OA
HETATM    4  N   UNL     1     -44.356 -50.830  13.947  1.00  0.00    -0.327 N 
HETATM    5  C   UNL     1     -44.828 -50.806  15.321  1.00  0.00     0.128 C 
HETATM    6  C   UNL     1     -46.217 -51.430  15.304  1.00  0.00     0.022 C 
HETATM    7  C   UNL     1     -46.617 -51.427  13.834  1.00  0.00     0.029 C 
HETATM    8  C   UNL     1     -45.295 -51.535  13.071  1.00  0.00     0.112 C 
HETATM    9  H   UNL     1     -43.067 -50.970  11.814  1.00  0.00     0.164 HD
ENDROOT
BRANCH   1  10
HETATM   10  C   UNL     1     -41.891 -49.262  11.728  1.00  0.00     0.131 C 
BRANCH  10  11
HETATM   11  C   UNL     1     -42.333 -47.973  11.026  1.00  0.00     0.084 C 
BRANCH  11  12
HETATM   12  C   UNL     1     -41.352 -46.849  11.194  1.00  0.00     0.052 A 
HETATM   13  N   UNL     1     -40.595 -46.344  10.238  1.00  0.00    -0.363 N 
HETATM   14  C   UNL     1     -39.786 -45.358  10.763  1.00  0.00     0.103 A 
ATOM     15  HN  UNL     1     -40.606 -46.639   9.262  1.00  0.00     0.165 HD
HETATM   16  C   UNL     1     -39.928 -45.118  12.114  1.00  0.00    -0.001 A 
HETATM   17  S   UNL     1     -41.136 -46.152  12.751  1.00  0.00    -0.080 SA
BRANCH  16  18
HETATM   18  C   UNL     1     -39.198 -44.150  12.985  1.00  0.00     0.043 C 
HETATM   19  C   UNL     1     -39.716 -42.731  12.814  1.00  0.00     0.010 C 
ENDBRANCH  16  18
ENDBRANCH  11  12
ENDBRANCH  10  11
ENDBRANCH   1  10
BRANCH   8  20
HETATM   20  C   UNL     1     -44.854 -52.986  12.803  1.00  0.00     0.189 C 
BRANCH  20  21
HETATM   21  O   UNL     1     -43.774 -53.071  11.877  1.00  0.00    -0.399 OA
HETATM   22  H   UNL     1     -44.155 -53.440  11.058  1.00  0.00     0.209 HD
ENDBRANCH  20  21
ENDBRANCH   8  20
TORSDOF 6
ENDMDL
MODEL 7
REMARK VINA RESULT:      -5.0      3.896      6.185
REMARK  6 active torsions:
REMARK  status: ('A' for Active; 'I' for Inactive)
REMARK    1  A    between atoms: C_2  and  C_3 
REMARK    2  A    between atoms: C_7  and  C_8 
REMARK    3  A    between atoms: C_8  and  C_9 
REMARK    4  A    between atoms: C_9  and  N_10 
REMARK       I    between atoms: N_10  and  C_11 
REMARK       I    between atoms: C_11  and  N_13 
REMARK    5  A    between atoms: C_17  and  C_18 
REMARK    6  A    between atoms: C_18  and  O_19 
ROOT
HETATM    1  N   UNL     1     -42.479 -50.051  11.980  1.00  0.00    -0.343 N 
HETATM    2  C   UNL     1     -43.091 -50.429  13.143  1.00  0.00     0.318 C 
HETATM    3  O   UNL     1     -43.606 -49.616  13.908  1.00  0.00    -0.247 OA
HETATM    4  N   UNL     1     -43.114 -51.780  13.380  1.00  0.00    -0.327 N 
HETATM    5  C   UNL     1     -43.802 -52.291  14.554  1.00  0.00     0.128 C 
HETATM    6  C   UNL     1     -44.040 -53.772  14.294  1.00  0.00     0.022 C 
HETATM    7  C   UNL     1     -43.808 -53.939  12.799  1.00  0.00     0.029 C 
HETATM    8  C   UNL     1     -42.788 -52.856  12.439  1.00  0.00     0.112 C 
HETATM    9  H   UNL     1     -41.670 -50.598  11.722  1.00  0.00     0.164 HD
ENDROOT
BRANCH   1  10
HETATM   10  C   UNL     1     -42.371 -48.647  11.622  1.00  0.00     0.131 C 
BRANCH  10  11
HETATM   11  C   UNL     1     -41.071 -48.284  10.894  1.00  0.00     0.084 C 
BRANCH  11  12
HETATM   12  C   UNL     1     -40.829 -46.804  10.831  1.00  0.00     0.052 A 
HETATM   13  N   UNL     1     -39.748 -46.225  10.343  1.00  0.00    -0.363 N 
HETATM   14  C   UNL     1     -39.853 -44.857  10.488  1.00  0.00     0.103 A 
ATOM     15  HN  UNL     1     -38.958 -46.714   9.923  1.00  0.00     0.165 HD
HETATM   16  C   UNL     1     -41.008 -44.401  11.088  1.00  0.00    -0.001 A 
HETATM   17  S   UNL     1     -42.016 -45.734  11.467  1.00  0.00    -0.080 SA
BRANCH  16  18
HETATM   18  C   UNL     1     -41.417 -43.003  11.414  1.00  0.00     0.043 C 
HETATM   19  C   UNL     1     -42.814 -42.946  12.013  1.00  0.00     0.010 C 
ENDBRANCH  16  18
ENDBRANCH  11  12
ENDBRANCH  10  11
ENDBRANCH   1  10
BRANCH   8  20
HETATM   20  C   UNL     1     -41.325 -53.316  12.576  1.00  0.00     0.189 C 
BRANCH  20  21
HETATM   21  O   UNL     1     -40.603 -53.228  11.350  1.00  0.00    -0.399 OA
HETATM   22  H   UNL     1     -40.108 -52.388  11.393  1.00  0.00     0.209 HD
ENDBRANCH  20  21
ENDBRANCH   8  20
TORSDOF 6
ENDMDL
MODEL 8
REMARK VINA RESULT:      -4.9      3.536      5.778
REMARK  6 active torsions:
REMARK  status: ('A' for Active; 'I' for Inactive)
REMARK    1  A    between atoms: C_2  and  C_3 
REMARK    2  A    between atoms: C_7  and  C_8 
REMARK    3  A    between atoms: C_8  and  C_9 
REMARK    4  A    between atoms: C_9  and  N_10 
REMARK       I    between atoms: N_10  and  C_11 
REMARK       I    between atoms: C_11  and  N_13 
REMARK    5  A    between atoms: C_17  and  C_18 
REMARK    6  A    between atoms: C_18  and  O_19 
ROOT
HETATM    1  N   UNL     1     -41.961 -50.853  11.971  1.00  0.00    -0.343 N 
HETATM    2  C   UNL     1     -41.300 -51.961  12.424  1.00  0.00     0.318 C 
HETATM    3  O   UNL     1     -40.078 -52.073  12.347  1.00  0.00    -0.247 OA
HETATM    4  N   UNL     1     -42.094 -52.924  12.995  1.00  0.00    -0.327 N 
HETATM    5  C   UNL     1     -41.481 -54.110  13.570  1.00  0.00     0.128 C 
HETATM    6  C   UNL     1     -42.527 -54.722  14.492  1.00  0.00     0.022 C 
HETATM    7  C   UNL     1     -43.559 -53.619  14.683  1.00  0.00     0.029 C 
HETATM    8  C   UNL     1     -43.499 -52.801  13.391  1.00  0.00     0.112 C 
HETATM    9  H   UNL     1     -42.870 -51.030  11.567  1.00  0.00     0.164 HD
ENDROOT
BRANCH   1  10
HETATM   10  C   UNL     1     -41.239 -49.769  11.329  1.00  0.00     0.131 C 
BRANCH  10  11
HETATM   11  C   UNL     1     -42.051 -48.479  11.175  1.00  0.00     0.084 C 
BRANCH  11  12
HETATM   12  C   UNL     1     -41.203 -47.242  11.237  1.00  0.00     0.052 A 
HETATM   13  N   UNL     1     -40.739 -46.579  10.194  1.00  0.00    -0.363 N 
HETATM   14  C   UNL     1     -39.964 -45.523  10.627  1.00  0.00     0.103 A 
ATOM     15  HN  UNL     1     -40.924 -46.812   9.219  1.00  0.00     0.165 HD
HETATM   16  C   UNL     1     -39.839 -45.388  11.994  1.00  0.00    -0.001 A 
HETATM   17  S   UNL     1     -40.743 -46.618  12.772  1.00  0.00    -0.080 SA
BRANCH  16  18
HETATM   18  C   UNL     1     -39.063 -44.383  12.779  1.00  0.00     0.043 C 
HETATM   19  C   UNL     1     -39.971 -43.482  13.603  1.00  0.00     0.010 C 
ENDBRANCH  16  18
ENDBRANCH  11  12
ENDBRANCH  10  11
ENDBRANCH   1  10
BRANCH   8  20
HETATM   20  C   UNL     1     -44.453 -53.311  12.294  1.00  0.00     0.189 C 
BRANCH  20  21
HETATM   21  O   UNL     1     -45.699 -53.765  12.815  1.00  0.00    -0.399 OA
HETATM   22  H   UNL     1     -45.699 -53.515  13.758  1.00  0.00     0.209 HD
ENDBRANCH  20  21
ENDBRANCH   8  20
TORSDOF 6
ENDMDL
MODEL 9
REMARK VINA RESULT:      -4.8      3.149      5.610
REMARK  6 active torsions:
REMARK  status: ('A' for Active; 'I' for Inactive)
REMARK    1  A    between atoms: C_2  and  C_3 
REMARK    2  A    between atoms: C_7  and  C_8 
REMARK    3  A    between atoms: C_8  and  C_9 
REMARK    4  A    between atoms: C_9  and  N_10 
REMARK       I    between atoms: N_10  and  C_11 
REMARK       I    between atoms: C_11  and  N_13 
REMARK    5  A    between atoms: C_17  and  C_18 
REMARK    6  A    between atoms: C_18  and  O_19 
ROOT
HETATM    1  N   UNL     1     -40.067 -50.615  13.582  1.00  0.00    -0.343 N 
HETATM    2  C   UNL     1     -39.881 -51.969  13.597  1.00  0.00     0.318 C 
HETATM    3  O   UNL     1     -38.770 -52.481  13.471  1.00  0.00    -0.247 OA
HETATM    4  N   UNL     1     -41.017 -52.714  13.791  1.00  0.00    -0.327 N 
HETATM    5  C   UNL     1     -40.918 -54.161  13.893  1.00  0.00     0.128 C 
HETATM    6  C   UNL     1     -42.212 -54.630  14.544  1.00  0.00     0.022 C 
HETATM    7  C   UNL     1     -42.822 -53.365  15.131  1.00  0.00     0.029 C 
HETATM    8  C   UNL     1     -42.334 -52.237  14.221  1.00  0.00     0.112 C 
HETATM    9  H   UNL     1     -40.926 -50.303  13.150  1.00  0.00     0.164 HD
ENDROOT
BRANCH   1  10
HETATM   10  C   UNL     1     -38.948 -49.715  13.365  1.00  0.00     0.131 C 
BRANCH  10  11
HETATM   11  C   UNL     1     -38.765 -49.280  11.907  1.00  0.00     0.084 C 
BRANCH  11  12
HETATM   12  C   UNL     1     -39.976 -48.593  11.345  1.00  0.00     0.052 A 
HETATM   13  N   UNL     1     -40.897 -49.161  10.589  1.00  0.00    -0.363 N 
HETATM   14  C   UNL     1     -41.836 -48.220  10.221  1.00  0.00     0.103 A 
ATOM     15  HN  UNL     1     -40.912 -50.145  10.319  1.00  0.00     0.165 HD
HETATM   16  C   UNL     1     -41.626 -46.942  10.695  1.00  0.00    -0.001 A 
HETATM   17  S   UNL     1     -40.208 -46.918  11.656  1.00  0.00    -0.080 SA
BRANCH  16  18
HETATM   18  C   UNL     1     -42.426 -45.703  10.464  1.00  0.00     0.043 C 
HETATM   19  C   UNL     1     -43.485 -45.904   9.391  1.00  0.00     0.010 C 
ENDBRANCH  16  18
ENDBRANCH  11  12
ENDBRANCH  10  11
ENDBRANCH   1  10
BRANCH   8  20
HETATM   20  C   UNL     1     -43.265 -51.963  13.024  1.00  0.00     0.189 C 
BRANCH  20  21
HETATM   21  O   UNL     1     -42.627 -51.216  11.990  1.00  0.00    -0.399 OA
HETATM   22  H   UNL     1     -42.940 -50.298  12.094  1.00  0.00     0.209 HD
ENDBRANCH  20  21
ENDBRANCH   8  20
TORSDOF 6
ENDMDL
