MODEL 1
REMARK VINA RESULT:      -5.8      0.000      0.000
REMARK  6 active torsions:
REMARK  status: ('A' for Active; 'I' for Inactive)
REMARK    1  A    between atoms: C_2  and  C_3 
REMARK    2  A    between atoms: C_3  and  O_5 
REMARK    3  A    between atoms: C_3  and  C_6 
REMARK    4  A    between atoms: C_6  and  N_7 
REMARK    5  A    between atoms: C_12  and  N_13 
REMARK    6  A    between atoms: N_13  and  C_14 
ROOT
HETATM    1  N   UNL     1     -43.926 -52.062  13.663  1.00  0.00    -0.324 N 
HETATM    2  C   UNL     1     -44.022 -50.748  13.280  1.00  0.00     0.185 A 
HETATM    3  N   UNL     1     -43.011 -50.377  12.525  1.00  0.00    -0.346 N 
ATOM      4  HN  UNL     1     -42.841 -49.456  12.119  1.00  0.00     0.167 HD
HETATM    5  C   UNL     1     -42.231 -51.510  12.404  1.00  0.00     0.122 A 
HETATM    6  C   UNL     1     -41.002 -51.731  11.748  1.00  0.00     0.133 A 
HETATM    7  N   UNL     1     -40.496 -52.991  11.777  1.00  0.00    -0.337 N 
ATOM      8  HN  UNL     1     -39.626 -53.214  11.291  1.00  0.00     0.168 HD
HETATM    9  C   UNL     1     -41.168 -53.944  12.462  1.00  0.00     0.183 A 
HETATM   10  N   UNL     1     -42.324 -53.834  13.152  1.00  0.00    -0.336 N 
ATOM     11  HN  UNL     1     -42.772 -54.596  13.660  1.00  0.00     0.168 HD
HETATM   12  C   UNL     1     -42.802 -52.580  13.074  1.00  0.00     0.140 A 
ENDROOT
BRANCH   1  13
HETATM   13  C   UNL     1     -44.783 -52.727  14.628  1.00  0.00     0.168 C 
BRANCH  13  14
HETATM   14  C   UNL     1     -45.950 -53.552  14.029  1.00  0.00     0.070 C 
HETATM   15  C   UNL     1     -45.654 -55.053  14.086  1.00  0.00     0.047 C 
BRANCH  14  16
HETATM   16  C   UNL     1     -47.249 -53.190  14.792  1.00  0.00     0.034 C 
HETATM   17  C   UNL     1     -47.219 -51.853  15.529  1.00  0.00     0.008 C 
ENDBRANCH  14  16
BRANCH  14  18
HETATM   18  O   UNL     1     -46.128 -53.160  12.662  1.00  0.00    -0.389 OA
HETATM   19  H   UNL     1     -45.362 -52.623  12.393  1.00  0.00     0.210 HD
ENDBRANCH  14  18
ENDBRANCH  13  14
ENDBRANCH   1  13
BRANCH   6  20
HETATM   20  N   UNL     1     -40.315 -50.678  11.153  1.00  0.00    -0.370 N 
HETATM   21  H   UNL     1     -39.972 -50.946  10.233  1.00  0.00     0.161 HD
BRANCH  20  22
HETATM   22  C   UNL     1     -39.423 -49.861  11.958  1.00  0.00     0.075 C 
HETATM   23  C   UNL     1     -37.981 -50.031  11.482  1.00  0.00     0.031 C 
HETATM   24  C   UNL     1     -39.855 -48.402  11.802  1.00  0.00     0.031 C 
ENDBRANCH  20  22
ENDBRANCH   6  20
TORSDOF 6
ENDMDL
MODEL 2
REMARK VINA RESULT:      -5.6      1.431      2.447
REMARK  6 active torsions:
REMARK  status: ('A' for Active; 'I' for Inactive)
REMARK    1  A    between atoms: C_2  and  C_3 
REMARK    2  A    between atoms: C_3  and  O_5 
REMARK    3  A    between atoms: C_3  and  C_6 
REMARK    4  A    between atoms: C_6  and  N_7 
REMARK    5  A    between atoms: C_12  and  N_13 
REMARK    6  A    between atoms: N_13  and  C_14 
ROOT
HETATM    1  N   UNL     1     -42.776 -52.209  13.529  1.00  0.00    -0.324 N 
HETATM    2  C   UNL     1     -41.606 -52.918  13.426  1.00  0.00     0.185 A 
HETATM    3  N   UNL     1     -40.694 -52.272  12.732  1.00  0.00    -0.346 N 
ATOM      4  HN  UNL     1     -39.749 -52.581  12.503  1.00  0.00     0.167 HD
HETATM    5  C   UNL     1     -41.301 -51.082  12.382  1.00  0.00     0.122 A 
HETATM    6  C   UNL     1     -40.844 -49.994  11.609  1.00  0.00     0.133 A 
HETATM    7  N   UNL     1     -41.676 -48.929  11.475  1.00  0.00    -0.337 N 
ATOM      8  HN  UNL     1     -41.384 -48.102  10.954  1.00  0.00     0.168 HD
HETATM    9  C   UNL     1     -42.901 -48.988  12.046  1.00  0.00     0.183 A 
HETATM   10  N   UNL     1     -43.450 -49.987  12.770  1.00  0.00    -0.336 N 
ATOM     11  HN  UNL     1     -44.391 -49.970  13.163  1.00  0.00     0.168 HD
HETATM   12  C   UNL     1     -42.584 -51.007  12.899  1.00  0.00     0.140 A 
ENDROOT
BRANCH   1  13
HETATM   13  C   UNL     1     -44.022 -52.708  14.081  1.00  0.00     0.168 C 
BRANCH  13  14
HETATM   14  C   UNL     1     -44.930 -53.482  13.091  1.00  0.00     0.070 C 
HETATM   15  C   UNL     1     -45.436 -54.788  13.709  1.00  0.00     0.047 C 
BRANCH  14  16
HETATM   16  C   UNL     1     -46.094 -52.554  12.666  1.00  0.00     0.034 C 
HETATM   17  C   UNL     1     -46.524 -51.528  13.712  1.00  0.00     0.008 C 
ENDBRANCH  14  16
BRANCH  14  18
HETATM   18  O   UNL     1     -44.165 -53.784  11.917  1.00  0.00    -0.389 OA
HETATM   19  H   UNL     1     -43.260 -54.018  12.190  1.00  0.00     0.210 HD
ENDBRANCH  14  18
ENDBRANCH  13  14
ENDBRANCH   1  13
BRANCH   6  20
HETATM   20  N   UNL     1     -39.614 -50.049  10.963  1.00  0.00    -0.370 N 
HETATM   21  H   UNL     1     -39.650 -50.691  10.174  1.00  0.00     0.161 HD
BRANCH  20  22
HETATM   22  C   UNL     1     -38.392 -50.067  11.750  1.00  0.00     0.075 C 
HETATM   23  C   UNL     1     -37.172 -50.034  10.829  1.00  0.00     0.031 C 
HETATM   24  C   UNL     1     -38.397 -48.832  12.653  1.00  0.00     0.031 C 
ENDBRANCH  20  22
ENDBRANCH   6  20
TORSDOF 6
ENDMDL
MODEL 3
REMARK VINA RESULT:      -5.4      2.343      3.632
REMARK  6 active torsions:
REMARK  status: ('A' for Active; 'I' for Inactive)
REMARK    1  A    between atoms: C_2  and  C_3 
REMARK    2  A    between atoms: C_3  and  O_5 
REMARK    3  A    between atoms: C_3  and  C_6 
REMARK    4  A    between atoms: C_6  and  N_7 
REMARK    5  A    between atoms: C_12  and  N_13 
REMARK    6  A    between atoms: N_13  and  C_14 
ROOT
HETATM    1  N   UNL     1     -44.203 -53.662  13.205  1.00  0.00    -0.324 N 
HETATM    2  C   UNL     1     -44.064 -54.532  14.257  1.00  0.00     0.185 A 
HETATM    3  N   UNL     1     -42.801 -54.751  14.557  1.00  0.00    -0.346 N 
ATOM      4  HN  UNL     1     -42.430 -55.359  15.286  1.00  0.00     0.167 HD
HETATM    5  C   UNL     1     -42.092 -53.974  13.662  1.00  0.00     0.122 A 
HETATM    6  C   UNL     1     -40.705 -53.813  13.463  1.00  0.00     0.133 A 
HETATM    7  N   UNL     1     -40.308 -52.928  12.511  1.00  0.00    -0.337 N 
ATOM      8  HN  UNL     1     -39.317 -52.749  12.347  1.00  0.00     0.168 HD
HETATM    9  C   UNL     1     -41.255 -52.291  11.785  1.00  0.00     0.183 A 
HETATM   10  N   UNL     1     -42.599 -52.397  11.867  1.00  0.00    -0.336 N 
ATOM     11  HN  UNL     1     -43.259 -51.892  11.275  1.00  0.00     0.168 HD
HETATM   12  C   UNL     1     -42.945 -53.260  12.837  1.00  0.00     0.140 A 
ENDROOT
BRANCH   1  13
HETATM   13  C   UNL     1     -45.447 -53.348  12.527  1.00  0.00     0.168 C 
BRANCH  13  14
HETATM   14  C   UNL     1     -46.033 -51.944  12.821  1.00  0.00     0.070 C 
HETATM   15  C   UNL     1     -47.069 -51.544  11.767  1.00  0.00     0.047 C 
BRANCH  14  16
HETATM   16  C   UNL     1     -46.635 -51.953  14.248  1.00  0.00     0.034 C 
HETATM   17  C   UNL     1     -45.833 -51.186  15.297  1.00  0.00     0.008 C 
ENDBRANCH  14  16
BRANCH  14  18
HETATM   18  O   UNL     1     -44.961 -50.993  12.809  1.00  0.00    -0.389 OA
HETATM   19  H   UNL     1     -44.327 -51.233  13.508  1.00  0.00     0.210 HD
ENDBRANCH  14  18
ENDBRANCH  13  14
ENDBRANCH   1  13
BRANCH   6  20
HETATM   20  N   UNL     1     -39.791 -54.582  14.175  1.00  0.00    -0.370 N 
HETATM   21  H   UNL     1     -39.838 -55.557  13.884  1.00  0.00     0.161 HD
BRANCH  20  22
HETATM   22  C   UNL     1     -39.608 -54.344  15.597  1.00  0.00     0.075 C 
HETATM   23  C   UNL     1     -38.664 -55.390  16.189  1.00  0.00     0.031 C 
HETATM   24  C   UNL     1     -39.011 -52.946  15.765  1.00  0.00     0.031 C 
ENDBRANCH  20  22
ENDBRANCH   6  20
TORSDOF 6
ENDMDL
MODEL 4
REMARK VINA RESULT:      -5.4      2.063      6.317
REMARK  6 active torsions:
REMARK  status: ('A' for Active; 'I' for Inactive)
REMARK    1  A    between atoms: C_2  and  C_3 
REMARK    2  A    between atoms: C_3  and  O_5 
REMARK    3  A    between atoms: C_3  and  C_6 
REMARK    4  A    between atoms: C_6  and  N_7 
REMARK    5  A    between atoms: C_12  and  N_13 
REMARK    6  A    between atoms: N_13  and  C_14 
ROOT
HETATM    1  N   UNL     1     -41.033 -50.472  13.069  1.00  0.00    -0.324 N 
HETATM    2  C   UNL     1     -42.290 -49.929  12.986  1.00  0.00     0.185 A 
HETATM    3  N   UNL     1     -43.223 -50.851  12.891  1.00  0.00    -0.346 N 
ATOM      4  HN  UNL     1     -44.231 -50.712  12.808  1.00  0.00     0.167 HD
HETATM    5  C   UNL     1     -42.536 -52.048  12.927  1.00  0.00     0.122 A 
HETATM    6  C   UNL     1     -42.981 -53.382  12.830  1.00  0.00     0.133 A 
HETATM    7  N   UNL     1     -42.048 -54.363  12.942  1.00  0.00    -0.337 N 
ATOM      8  HN  UNL     1     -42.319 -55.346  12.911  1.00  0.00     0.168 HD
HETATM    9  C   UNL     1     -40.752 -54.009  13.096  1.00  0.00     0.183 A 
HETATM   10  N   UNL     1     -40.215 -52.772  13.164  1.00  0.00    -0.336 N 
ATOM     11  HN  UNL     1     -39.219 -52.575  13.268  1.00  0.00     0.168 HD
HETATM   12  C   UNL     1     -41.175 -51.835  13.075  1.00  0.00     0.140 A 
ENDROOT
BRANCH   1  13
HETATM   13  C   UNL     1     -39.786 -49.731  13.016  1.00  0.00     0.168 C 
BRANCH  13  14
HETATM   14  C   UNL     1     -39.358 -49.242  11.608  1.00  0.00     0.070 C 
HETATM   15  C   UNL     1     -39.637 -47.747  11.433  1.00  0.00     0.047 C 
BRANCH  14  16
HETATM   16  C   UNL     1     -37.859 -49.578  11.408  1.00  0.00     0.034 C 
HETATM   17  C   UNL     1     -37.340 -50.756  12.230  1.00  0.00     0.008 C 
ENDBRANCH  14  16
BRANCH  14  18
HETATM   18  O   UNL     1     -40.102 -49.977  10.628  1.00  0.00    -0.389 OA
HETATM   19  H   UNL     1     -41.033 -50.012  10.910  1.00  0.00     0.210 HD
ENDBRANCH  14  18
ENDBRANCH  13  14
ENDBRANCH   1  13
BRANCH   6  20
HETATM   20  N   UNL     1     -44.316 -53.668  12.564  1.00  0.00    -0.370 N 
HETATM   21  H   UNL     1     -44.614 -53.225  11.697  1.00  0.00     0.161 HD
BRANCH  20  22
HETATM   22  C   UNL     1     -45.280 -53.661  13.652  1.00  0.00     0.075 C 
HETATM   23  C   UNL     1     -46.465 -52.762  13.301  1.00  0.00     0.031 C 
HETATM   24  C   UNL     1     -45.760 -55.098  13.863  1.00  0.00     0.031 C 
ENDBRANCH  20  22
ENDBRANCH   6  20
TORSDOF 6
ENDMDL
MODEL 5
REMARK VINA RESULT:      -5.3      3.517      7.098
REMARK  6 active torsions:
REMARK  status: ('A' for Active; 'I' for Inactive)
REMARK    1  A    between atoms: C_2  and  C_3 
REMARK    2  A    between atoms: C_3  and  O_5 
REMARK    3  A    between atoms: C_3  and  C_6 
REMARK    4  A    between atoms: C_6  and  N_7 
REMARK    5  A    between atoms: C_12  and  N_13 
REMARK    6  A    between atoms: N_13  and  C_14 
ROOT
HETATM    1  N   UNL     1     -41.241 -47.131  10.922  1.00  0.00    -0.324 N 
HETATM    2  C   UNL     1     -42.494 -47.681  10.824  1.00  0.00     0.185 A 
HETATM    3  N   UNL     1     -42.481 -48.982  11.013  1.00  0.00    -0.346 N 
ATOM      4  HN  UNL     1     -43.273 -49.625  10.985  1.00  0.00     0.167 HD
HETATM    5  C   UNL     1     -41.157 -49.286  11.258  1.00  0.00     0.122 A 
HETATM    6  C   UNL     1     -40.510 -50.516  11.497  1.00  0.00     0.133 A 
HETATM    7  N   UNL     1     -39.176 -50.484  11.747  1.00  0.00    -0.337 N 
ATOM      8  HN  UNL     1     -38.664 -51.341  11.958  1.00  0.00     0.168 HD
HETATM    9  C   UNL     1     -38.539 -49.291  11.711  1.00  0.00     0.183 A 
HETATM   10  N   UNL     1     -39.049 -48.067  11.457  1.00  0.00    -0.336 N 
ATOM     11  HN  UNL     1     -38.505 -47.204  11.433  1.00  0.00     0.168 HD
HETATM   12  C   UNL     1     -40.374 -48.143  11.242  1.00  0.00     0.140 A 
ENDROOT
BRANCH   1  13
HETATM   13  C   UNL     1     -40.892 -45.759  10.602  1.00  0.00     0.168 C 
BRANCH  13  14
HETATM   14  C   UNL     1     -41.211 -44.713  11.700  1.00  0.00     0.070 C 
HETATM   15  C   UNL     1     -40.827 -45.233  13.089  1.00  0.00     0.047 C 
BRANCH  14  16
HETATM   16  C   UNL     1     -40.475 -43.396  11.352  1.00  0.00     0.034 C 
HETATM   17  C   UNL     1     -40.221 -42.461  12.533  1.00  0.00     0.008 C 
ENDBRANCH  14  16
BRANCH  14  18
HETATM   18  O   UNL     1     -42.619 -44.444  11.673  1.00  0.00    -0.389 OA
HETATM   19  H   UNL     1     -42.917 -44.266  12.583  1.00  0.00     0.210 HD
ENDBRANCH  14  18
ENDBRANCH  13  14
ENDBRANCH   1  13
BRANCH   6  20
HETATM   20  N   UNL     1     -41.211 -51.714  11.413  1.00  0.00    -0.370 N 
HETATM   21  H   UNL     1     -41.873 -51.691  10.639  1.00  0.00     0.161 HD
BRANCH  20  22
HETATM   22  C   UNL     1     -41.670 -52.363  12.630  1.00  0.00     0.075 C 
HETATM   23  C   UNL     1     -43.152 -52.715  12.513  1.00  0.00     0.031 C 
HETATM   24  C   UNL     1     -40.844 -53.636  12.822  1.00  0.00     0.031 C 
ENDBRANCH  20  22
ENDBRANCH   6  20
TORSDOF 6
ENDMDL
MODEL 6
REMARK VINA RESULT:      -4.9      2.357      6.220
REMARK  6 active torsions:
REMARK  status: ('A' for Active; 'I' for Inactive)
REMARK    1  A    between atoms: C_2  and  C_3 
REMARK    2  A    between atoms: C_3  and  O_5 
REMARK    3  A    between atoms: C_3  and  C_6 
REMARK    4  A    between atoms: C_6  and  N_7 
REMARK    5  A    between atoms: C_12  and  N_13 
REMARK    6  A    between atoms: N_13  and  C_14 
ROOT
HETATM    1  N   UNL     1     -42.222 -49.394  12.140  1.00  0.00    -0.324 N 
HETATM    2  C   UNL     1     -43.250 -49.170  13.021  1.00  0.00     0.185 A 
HETATM    3  N   UNL     1     -43.676 -50.282  13.580  1.00  0.00    -0.346 N 
ATOM      4  HN  UNL     1     -44.430 -50.390  14.258  1.00  0.00     0.167 HD
HETATM    5  C   UNL     1     -42.875 -51.270  13.043  1.00  0.00     0.122 A 
HETATM    6  C   UNL     1     -42.871 -52.669  13.225  1.00  0.00     0.133 A 
HETATM    7  N   UNL     1     -41.915 -53.382  12.574  1.00  0.00    -0.337 N 
ATOM      8  HN  UNL     1     -41.846 -54.392  12.695  1.00  0.00     0.168 HD
HETATM    9  C   UNL     1     -41.056 -52.723  11.762  1.00  0.00     0.183 A 
HETATM   10  N   UNL     1     -40.995 -51.402  11.488  1.00  0.00    -0.336 N 
ATOM     11  HN  UNL     1     -40.324 -50.971  10.851  1.00  0.00     0.168 HD
HETATM   12  C   UNL     1     -41.940 -50.735  12.172  1.00  0.00     0.140 A 
ENDROOT
BRANCH   1  13
HETATM   13  C   UNL     1     -41.648 -48.408  11.242  1.00  0.00     0.168 C 
BRANCH  13  14
HETATM   14  C   UNL     1     -40.229 -47.909  11.615  1.00  0.00     0.070 C 
HETATM   15  C   UNL     1     -39.920 -46.567  10.947  1.00  0.00     0.047 C 
BRANCH  14  16
HETATM   16  C   UNL     1     -40.130 -47.823  13.158  1.00  0.00     0.034 C 
HETATM   17  C   UNL     1     -39.685 -46.469  13.707  1.00  0.00     0.008 C 
ENDBRANCH  14  16
BRANCH  14  18
HETATM   18  O   UNL     1     -39.276 -48.884  11.173  1.00  0.00    -0.389 OA
HETATM   19  H   UNL     1     -39.755 -49.607  10.732  1.00  0.00     0.210 HD
ENDBRANCH  14  18
ENDBRANCH  13  14
ENDBRANCH   1  13
BRANCH   6  20
HETATM   20  N   UNL     1     -43.852 -53.288  13.991  1.00  0.00    -0.370 N 
HETATM   21  H   UNL     1     -43.434 -53.943  14.650  1.00  0.00     0.161 HD
BRANCH  20  22
HETATM   22  C   UNL     1     -45.091 -53.714  13.361  1.00  0.00     0.075 C 
HETATM   23  C   UNL     1     -45.401 -55.163  13.736  1.00  0.00     0.031 C 
HETATM   24  C   UNL     1     -46.209 -52.796  13.858  1.00  0.00     0.031 C 
ENDBRANCH  20  22
ENDBRANCH   6  20
TORSDOF 6
ENDMDL
MODEL 7
REMARK VINA RESULT:      -4.9      3.479      5.418
REMARK  6 active torsions:
REMARK  status: ('A' for Active; 'I' for Inactive)
REMARK    1  A    between atoms: C_2  and  C_3 
REMARK    2  A    between atoms: C_3  and  O_5 
REMARK    3  A    between atoms: C_3  and  C_6 
REMARK    4  A    between atoms: C_6  and  N_7 
REMARK    5  A    between atoms: C_12  and  N_13 
REMARK    6  A    between atoms: N_13  and  C_14 
ROOT
HETATM    1  N   UNL     1     -40.889 -49.690  13.209  1.00  0.00    -0.324 N 
HETATM    2  C   UNL     1     -40.027 -48.955  13.982  1.00  0.00     0.185 A 
HETATM    3  N   UNL     1     -39.738 -47.793  13.437  1.00  0.00    -0.346 N 
ATOM      4  HN  UNL     1     -39.119 -47.069  13.802  1.00  0.00     0.167 HD
HETATM    5  C   UNL     1     -40.460 -47.772  12.260  1.00  0.00     0.122 A 
HETATM    6  C   UNL     1     -40.536 -46.811  11.230  1.00  0.00     0.133 A 
HETATM    7  N   UNL     1     -41.383 -47.066  10.198  1.00  0.00    -0.337 N 
ATOM      8  HN  UNL     1     -41.501 -46.391   9.443  1.00  0.00     0.168 HD
HETATM    9  C   UNL     1     -42.065 -48.234  10.195  1.00  0.00     0.183 A 
HETATM   10  N   UNL     1     -42.039 -49.233  11.103  1.00  0.00    -0.336 N 
ATOM     11  HN  UNL     1     -42.574 -50.098  11.031  1.00  0.00     0.168 HD
HETATM   12  C   UNL     1     -41.211 -48.927  12.116  1.00  0.00     0.140 A 
ENDROOT
BRANCH   1  13
HETATM   13  C   UNL     1     -41.267 -51.071  13.443  1.00  0.00     0.168 C 
BRANCH  13  14
HETATM   14  C   UNL     1     -40.202 -52.131  13.062  1.00  0.00     0.070 C 
HETATM   15  C   UNL     1     -39.236 -52.387  14.222  1.00  0.00     0.047 C 
BRANCH  14  16
HETATM   16  C   UNL     1     -40.932 -53.424  12.621  1.00  0.00     0.034 C 
HETATM   17  C   UNL     1     -42.402 -53.512  13.028  1.00  0.00     0.008 C 
ENDBRANCH  14  16
BRANCH  14  18
HETATM   18  O   UNL     1     -39.462 -51.645  11.934  1.00  0.00    -0.389 OA
HETATM   19  H   UNL     1     -38.568 -51.402  12.233  1.00  0.00     0.210 HD
ENDBRANCH  14  18
ENDBRANCH  13  14
ENDBRANCH   1  13
BRANCH   6  20
HETATM   20  N   UNL     1     -39.724 -45.683  11.250  1.00  0.00    -0.370 N 
HETATM   21  H   UNL     1     -38.743 -45.947  11.319  1.00  0.00     0.161 HD
BRANCH  20  22
HETATM   22  C   UNL     1     -40.132 -44.520  12.020  1.00  0.00     0.075 C 
HETATM   23  C   UNL     1     -39.008 -44.093  12.964  1.00  0.00     0.031 C 
HETATM   24  C   UNL     1     -40.444 -43.391  11.036  1.00  0.00     0.031 C 
ENDBRANCH  20  22
ENDBRANCH   6  20
TORSDOF 6
ENDMDL
MODEL 8
REMARK VINA RESULT:      -4.9      2.637      4.179
REMARK  6 active torsions:
REMARK  status: ('A' for Active; 'I' for Inactive)
REMARK    1  A    between atoms: C_2  and  C_3 
REMARK    2  A    between atoms: C_3  and  O_5 
REMARK    3  A    between atoms: C_3  and  C_6 
REMARK    4  A    between atoms: C_6  and  N_7 
REMARK    5  A    between atoms: C_12  and  N_13 
REMARK    6  A    between atoms: N_13  and  C_14 
ROOT
HETATM    1  N   UNL     1     -41.112 -50.866  13.435  1.00  0.00    -0.324 N 
HETATM    2  C   UNL     1     -42.007 -49.879  13.760  1.00  0.00     0.185 A 
HETATM    3  N   UNL     1     -41.665 -48.713  13.256  1.00  0.00    -0.346 N 
ATOM      4  HN  UNL     1     -42.152 -47.823  13.357  1.00  0.00     0.167 HD
HETATM    5  C   UNL     1     -40.498 -48.964  12.560  1.00  0.00     0.122 A 
HETATM    6  C   UNL     1     -39.640 -48.107  11.839  1.00  0.00     0.133 A 
HETATM    7  N   UNL     1     -38.571 -48.671  11.220  1.00  0.00    -0.337 N 
ATOM      8  HN  UNL     1     -37.936 -48.103  10.658  1.00  0.00     0.168 HD
HETATM    9  C   UNL     1     -38.365 -50.000  11.363  1.00  0.00     0.183 A 
HETATM   10  N   UNL     1     -39.097 -50.900  12.055  1.00  0.00    -0.336 N 
ATOM     11  HN  UNL     1     -38.876 -51.893  12.132  1.00  0.00     0.168 HD
HETATM   12  C   UNL     1     -40.157 -50.304  12.629  1.00  0.00     0.140 A 
ENDROOT
BRANCH   1  13
HETATM   13  C   UNL     1     -41.110 -52.216  13.970  1.00  0.00     0.168 C 
BRANCH  13  14
HETATM   14  C   UNL     1     -41.646 -53.315  13.017  1.00  0.00     0.070 C 
HETATM   15  C   UNL     1     -42.083 -54.558  13.796  1.00  0.00     0.047 C 
BRANCH  14  16
HETATM   16  C   UNL     1     -42.806 -52.717  12.184  1.00  0.00     0.034 C 
HETATM   17  C   UNL     1     -44.186 -53.304  12.475  1.00  0.00     0.008 C 
ENDBRANCH  14  16
BRANCH  14  18
HETATM   18  O   UNL     1     -40.599 -53.675  12.107  1.00  0.00    -0.389 OA
HETATM   19  H   UNL     1     -40.918 -53.534  11.198  1.00  0.00     0.210 HD
ENDBRANCH  14  18
ENDBRANCH  13  14
ENDBRANCH   1  13
BRANCH   6  20
HETATM   20  N   UNL     1     -39.856 -46.734  11.825  1.00  0.00    -0.370 N 
HETATM   21  H   UNL     1     -40.162 -46.408  12.740  1.00  0.00     0.161 HD
BRANCH  20  22
HETATM   22  C   UNL     1     -40.505 -46.123  10.676  1.00  0.00     0.075 C 
HETATM   23  C   UNL     1     -41.895 -45.621  11.062  1.00  0.00     0.031 C 
HETATM   24  C   UNL     1     -39.636 -44.951  10.216  1.00  0.00     0.031 C 
ENDBRANCH  20  22
ENDBRANCH   6  20
TORSDOF 6
ENDMDL
MODEL 9
REMARK VINA RESULT:      -4.8      4.008      6.372
REMARK  6 active torsions:
REMARK  status: ('A' for Active; 'I' for Inactive)
REMARK    1  A    between atoms: C_2  and  C_3 
REMARK    2  A    between atoms: C_3  and  O_5 
REMARK    3  A    between atoms: C_3  and  C_6 
REMARK    4  A    between atoms: C_6  and  N_7 
REMARK    5  A    between atoms: C_12  and  N_13 
REMARK    6  A    between atoms: N_13  and  C_14 
ROOT
HETATM    1  N   UNL     1     -41.223 -49.053  11.519  1.00  0.00    -0.324 N 
HETATM    2  C   UNL     1     -42.090 -49.485  12.491  1.00  0.00     0.185 A 
HETATM    3  N   UNL     1     -41.529 -50.351  13.306  1.00  0.00    -0.346 N 
ATOM      4  HN  UNL     1     -41.956 -50.826  14.102  1.00  0.00     0.167 HD
HETATM    5  C   UNL     1     -40.233 -50.474  12.846  1.00  0.00     0.122 A 
HETATM    6  C   UNL     1     -39.160 -51.279  13.283  1.00  0.00     0.133 A 
HETATM    7  N   UNL     1     -37.973 -51.144  12.637  1.00  0.00    -0.337 N 
ATOM      8  HN  UNL     1     -37.155 -51.678  12.933  1.00  0.00     0.168 HD
HETATM    9  C   UNL     1     -37.897 -50.287  11.593  1.00  0.00     0.183 A 
HETATM   10  N   UNL     1     -38.864 -49.501  11.071  1.00  0.00    -0.336 N 
ATOM     11  HN  UNL     1     -38.741 -48.883  10.269  1.00  0.00     0.168 HD
HETATM   12  C   UNL     1     -40.011 -49.648  11.756  1.00  0.00     0.140 A 
ENDROOT
BRANCH   1  13
HETATM   13  C   UNL     1     -41.576 -48.233  10.374  1.00  0.00     0.168 C 
BRANCH  13  14
HETATM   14  C   UNL     1     -41.588 -46.703  10.625  1.00  0.00     0.070 C 
HETATM   15  C   UNL     1     -42.595 -46.329  11.716  1.00  0.00     0.047 C 
BRANCH  14  16
HETATM   16  C   UNL     1     -40.151 -46.255  10.988  1.00  0.00     0.034 C 
HETATM   17  C   UNL     1     -39.635 -45.040  10.219  1.00  0.00     0.008 C 
ENDBRANCH  14  16
BRANCH  14  18
HETATM   18  O   UNL     1     -41.953 -46.047   9.405  1.00  0.00    -0.389 OA
HETATM   19  H   UNL     1     -41.999 -45.088   9.571  1.00  0.00     0.210 HD
ENDBRANCH  14  18
ENDBRANCH  13  14
ENDBRANCH   1  13
BRANCH   6  20
HETATM   20  N   UNL     1     -39.341 -52.216  14.294  1.00  0.00    -0.370 N 
HETATM   21  H   UNL     1     -38.894 -51.907  15.156  1.00  0.00     0.161 HD
BRANCH  20  22
HETATM   22  C   UNL     1     -39.232 -53.632  13.987  1.00  0.00     0.075 C 
HETATM   23  C   UNL     1     -39.016 -54.434  15.269  1.00  0.00     0.031 C 
HETATM   24  C   UNL     1     -40.535 -54.067  13.313  1.00  0.00     0.031 C 
ENDBRANCH  20  22
ENDBRANCH   6  20
TORSDOF 6
ENDMDL
