MODEL 1
REMARK VINA RESULT:      -6.1      0.000      0.000
REMARK  7 active torsions:
REMARK  status: ('A' for Active; 'I' for Inactive)
REMARK    1  A    between atoms: N_6  and  C_7 
REMARK    2  A    between atoms: C_7  and  C_8 
REMARK    3  A    between atoms: C_8  and  O_9 
REMARK    4  A    between atoms: C_8  and  C_10 
REMARK    5  A    between atoms: C_10  and  O_11 
REMARK    6  A    between atoms: O_11  and  C_12 
REMARK    7  A    between atoms: C_12  and  C_13 
ROOT
HETATM    1  C   UNL     1     -40.892 -52.394  12.376  1.00  0.00     0.160 C 
ENDROOT
BRANCH   1   2
HETATM    2  C   UNL     1     -39.677 -51.526  12.767  1.00  0.00     0.166 C 
BRANCH   2   3
HETATM    3  N   UNL     1     -39.815 -50.135  12.358  1.00  0.00    -0.307 N 
HETATM    4  C   UNL     1     -40.437 -49.815  11.181  1.00  0.00     0.186 A 
HETATM    5  N   UNL     1     -40.632 -48.617  10.748  1.00  0.00    -0.355 N 
HETATM    6  C   UNL     1     -40.195 -47.581  11.533  1.00  0.00     0.017 A 
ATOM      7  HN  UNL     1     -41.095 -48.447   9.856  1.00  0.00     0.166 HD
HETATM    8  C   UNL     1     -40.487 -46.211  10.974  1.00  0.00     0.069 C 
HETATM    9  C   UNL     1     -39.554 -47.745  12.707  1.00  0.00     0.028 A 
HETATM   10  C   UNL     1     -39.318 -49.140  13.175  1.00  0.00     0.256 A 
HETATM   11  C   UNL     1     -39.078 -46.622  13.574  1.00  0.00     0.056 C 
HETATM   12  O   UNL     1     -38.727 -49.371  14.230  1.00  0.00    -0.267 OA
ENDBRANCH   2   3
ENDBRANCH   1   2
BRANCH   1  13
HETATM   13  O   UNL     1     -40.559 -53.411  11.427  1.00  0.00    -0.392 OA
HETATM   14  H   UNL     1     -41.193 -53.366  10.684  1.00  0.00     0.210 HD
ENDBRANCH   1  13
BRANCH   1  15
HETATM   15  C   UNL     1     -41.492 -53.067  13.617  1.00  0.00     0.201 C 
BRANCH  15  16
HETATM   16  O   UNL     1     -42.433 -54.052  13.209  1.00  0.00    -0.384 OA
BRANCH  16  17
HETATM   17  C   UNL     1     -43.441 -54.276  14.193  1.00  0.00     0.206 C 
BRANCH  17  18
HETATM   18  C   UNL     1     -44.551 -53.290  13.948  1.00  0.00    -0.035 A 
HETATM   19  C   UNL     1     -44.997 -52.460  14.987  1.00  0.00     0.009 A 
HETATM   20  C   UNL     1     -46.036 -51.552  14.776  1.00  0.00     0.001 A 
HETATM   21  C   UNL     1     -46.638 -51.463  13.523  1.00  0.00     0.000 A 
HETATM   22  C   UNL     1     -46.201 -52.279  12.481  1.00  0.00     0.001 A 
HETATM   23  C   UNL     1     -45.163 -53.188  12.689  1.00  0.00     0.009 A 
ENDBRANCH  17  18
ENDBRANCH  16  17
ENDBRANCH  15  16
ENDBRANCH   1  15
TORSDOF 7
ENDMDL
MODEL 2
REMARK VINA RESULT:      -6.0      3.282      5.646
REMARK  7 active torsions:
REMARK  status: ('A' for Active; 'I' for Inactive)
REMARK    1  A    between atoms: N_6  and  C_7 
REMARK    2  A    between atoms: C_7  and  C_8 
REMARK    3  A    between atoms: C_8  and  O_9 
REMARK    4  A    between atoms: C_8  and  C_10 
REMARK    5  A    between atoms: C_10  and  O_11 
REMARK    6  A    between atoms: O_11  and  C_12 
REMARK    7  A    between atoms: C_12  and  C_13 
ROOT
HETATM    1  C   UNL     1     -41.019 -52.708  12.299  1.00  0.00     0.160 C 
ENDROOT
BRANCH   1   2
HETATM    2  C   UNL     1     -41.174 -54.128  12.885  1.00  0.00     0.166 C 
BRANCH   2   3
HETATM    3  N   UNL     1     -42.150 -54.197  13.964  1.00  0.00    -0.307 N 
HETATM    4  C   UNL     1     -41.758 -54.041  15.266  1.00  0.00     0.186 A 
HETATM    5  N   UNL     1     -42.548 -54.057  16.284  1.00  0.00    -0.355 N 
HETATM    6  C   UNL     1     -43.887 -54.231  16.044  1.00  0.00     0.017 A 
ATOM      7  HN  UNL     1     -42.190 -53.945  17.232  1.00  0.00     0.166 HD
HETATM    8  C   UNL     1     -44.749 -54.207  17.282  1.00  0.00     0.069 C 
HETATM    9  C   UNL     1     -44.414 -54.411  14.817  1.00  0.00     0.028 A 
HETATM   10  C   UNL     1     -43.478 -54.413  13.658  1.00  0.00     0.256 A 
HETATM   11  C   UNL     1     -45.874 -54.595  14.544  1.00  0.00     0.056 C 
HETATM   12  O   UNL     1     -43.883 -54.586  12.508  1.00  0.00    -0.267 OA
ENDBRANCH   2   3
ENDBRANCH   1   2
BRANCH   1  13
HETATM   13  O   UNL     1     -42.070 -52.371  11.390  1.00  0.00    -0.392 OA
HETATM   14  H   UNL     1     -41.672 -52.062  10.552  1.00  0.00     0.210 HD
ENDBRANCH   1  13
BRANCH   1  15
HETATM   15  C   UNL     1     -40.995 -51.665  13.422  1.00  0.00     0.201 C 
BRANCH  15  16
HETATM   16  O   UNL     1     -42.108 -50.792  13.276  1.00  0.00    -0.384 OA
BRANCH  16  17
HETATM   17  C   UNL     1     -42.682 -50.433  14.532  1.00  0.00     0.206 C 
BRANCH  17  18
HETATM   18  C   UNL     1     -44.148 -50.768  14.481  1.00  0.00    -0.035 A 
HETATM   19  C   UNL     1     -44.896 -50.828  15.666  1.00  0.00     0.009 A 
HETATM   20  C   UNL     1     -46.253 -51.151  15.634  1.00  0.00     0.001 A 
HETATM   21  C   UNL     1     -46.877 -51.415  14.417  1.00  0.00     0.000 A 
HETATM   22  C   UNL     1     -46.145 -51.354  13.232  1.00  0.00     0.001 A 
HETATM   23  C   UNL     1     -44.787 -51.031  13.261  1.00  0.00     0.009 A 
ENDBRANCH  17  18
ENDBRANCH  16  17
ENDBRANCH  15  16
ENDBRANCH   1  15
TORSDOF 7
ENDMDL
MODEL 3
REMARK VINA RESULT:      -6.0      1.839      2.269
REMARK  7 active torsions:
REMARK  status: ('A' for Active; 'I' for Inactive)
REMARK    1  A    between atoms: N_6  and  C_7 
REMARK    2  A    between atoms: C_7  and  C_8 
REMARK    3  A    between atoms: C_8  and  O_9 
REMARK    4  A    between atoms: C_8  and  C_10 
REMARK    5  A    between atoms: C_10  and  O_11 
REMARK    6  A    between atoms: O_11  and  C_12 
REMARK    7  A    between atoms: C_12  and  C_13 
ROOT
HETATM    1  C   UNL     1     -40.046 -53.699  13.377  1.00  0.00     0.160 C 
ENDROOT
BRANCH   1   2
HETATM    2  C   UNL     1     -39.680 -52.286  13.879  1.00  0.00     0.166 C 
BRANCH   2   3
HETATM    3  N   UNL     1     -40.237 -51.224  13.052  1.00  0.00    -0.307 N 
HETATM    4  C   UNL     1     -39.593 -50.819  11.915  1.00  0.00     0.186 A 
HETATM    5  N   UNL     1     -40.019 -49.912  11.106  1.00  0.00    -0.355 N 
HETATM    6  C   UNL     1     -41.218 -49.312  11.399  1.00  0.00     0.017 A 
ATOM      7  HN  UNL     1     -39.484 -49.649  10.278  1.00  0.00     0.166 HD
HETATM    8  C   UNL     1     -41.663 -48.284  10.390  1.00  0.00     0.069 C 
HETATM    9  C   UNL     1     -41.954 -49.599  12.491  1.00  0.00     0.028 A 
HETATM   10  C   UNL     1     -41.429 -50.634  13.424  1.00  0.00     0.256 A 
HETATM   11  C   UNL     1     -43.265 -48.956  12.817  1.00  0.00     0.056 C 
HETATM   12  O   UNL     1     -42.037 -50.940  14.450  1.00  0.00    -0.267 OA
ENDBRANCH   2   3
ENDBRANCH   1   2
BRANCH   1  13
HETATM   13  O   UNL     1     -38.933 -54.596  13.400  1.00  0.00    -0.392 OA
HETATM   14  H   UNL     1     -38.889 -55.063  12.542  1.00  0.00     0.210 HD
ENDBRANCH   1  13
BRANCH   1  15
HETATM   15  C   UNL     1     -41.169 -54.298  14.232  1.00  0.00     0.201 C 
BRANCH  15  16
HETATM   16  O   UNL     1     -42.408 -54.155  13.548  1.00  0.00    -0.384 OA
BRANCH  16  17
HETATM   17  C   UNL     1     -43.526 -54.399  14.398  1.00  0.00     0.206 C 
BRANCH  17  18
HETATM   18  C   UNL     1     -44.581 -53.375  14.078  1.00  0.00    -0.035 A 
HETATM   19  C   UNL     1     -45.089 -53.274  12.774  1.00  0.00     0.009 A 
HETATM   20  C   UNL     1     -46.057 -52.319  12.460  1.00  0.00     0.001 A 
HETATM   21  C   UNL     1     -46.529 -51.457  13.447  1.00  0.00     0.000 A 
HETATM   22  C   UNL     1     -46.035 -51.550  14.747  1.00  0.00     0.001 A 
HETATM   23  C   UNL     1     -45.067 -52.504  15.064  1.00  0.00     0.009 A 
ENDBRANCH  17  18
ENDBRANCH  16  17
ENDBRANCH  15  16
ENDBRANCH   1  15
TORSDOF 7
ENDMDL
MODEL 4
REMARK VINA RESULT:      -6.0      1.909      3.056
REMARK  7 active torsions:
REMARK  status: ('A' for Active; 'I' for Inactive)
REMARK    1  A    between atoms: N_6  and  C_7 
REMARK    2  A    between atoms: C_7  and  C_8 
REMARK    3  A    between atoms: C_8  and  O_9 
REMARK    4  A    between atoms: C_8  and  C_10 
REMARK    5  A    between atoms: C_10  and  O_11 
REMARK    6  A    between atoms: O_11  and  C_12 
REMARK    7  A    between atoms: C_12  and  C_13 
ROOT
HETATM    1  C   UNL     1     -39.230 -50.677  12.130  1.00  0.00     0.160 C 
ENDROOT
BRANCH   1   2
HETATM    2  C   UNL     1     -39.343 -49.195  12.546  1.00  0.00     0.166 C 
BRANCH   2   3
HETATM    3  N   UNL     1     -40.288 -48.444  11.732  1.00  0.00    -0.307 N 
HETATM    4  C   UNL     1     -41.196 -49.095  10.942  1.00  0.00     0.186 A 
HETATM    5  N   UNL     1     -42.088 -48.521  10.210  1.00  0.00    -0.355 N 
HETATM    6  C   UNL     1     -42.141 -47.150  10.234  1.00  0.00     0.017 A 
ATOM      7  HN  UNL     1     -42.730 -49.066   9.635  1.00  0.00     0.166 HD
HETATM    8  C   UNL     1     -43.230 -46.555   9.377  1.00  0.00     0.069 C 
HETATM    9  C   UNL     1     -41.302 -46.378  10.953  1.00  0.00     0.028 A 
HETATM   10  C   UNL     1     -40.264 -47.064  11.771  1.00  0.00     0.256 A 
HETATM   11  C   UNL     1     -41.355 -44.883  10.990  1.00  0.00     0.056 C 
HETATM   12  O   UNL     1     -39.452 -46.426  12.443  1.00  0.00    -0.267 OA
ENDBRANCH   2   3
ENDBRANCH   1   2
BRANCH   1  13
HETATM   13  O   UNL     1     -37.963 -50.989  11.544  1.00  0.00    -0.392 OA
HETATM   14  H   UNL     1     -38.113 -51.358  10.651  1.00  0.00     0.210 HD
ENDBRANCH   1  13
BRANCH   1  15
HETATM   15  C   UNL     1     -39.443 -51.593  13.341  1.00  0.00     0.201 C 
BRANCH  15  16
HETATM   16  O   UNL     1     -39.991 -52.830  12.905  1.00  0.00    -0.384 OA
BRANCH  16  17
HETATM   17  C   UNL     1     -41.235 -52.662  12.228  1.00  0.00     0.206 C 
BRANCH  17  18
HETATM   18  C   UNL     1     -42.275 -53.457  12.970  1.00  0.00    -0.035 A 
HETATM   19  C   UNL     1     -43.607 -53.454  12.532  1.00  0.00     0.009 A 
HETATM   20  C   UNL     1     -44.583 -54.175  13.219  1.00  0.00     0.001 A 
HETATM   21  C   UNL     1     -44.237 -54.911  14.350  1.00  0.00     0.000 A 
HETATM   22  C   UNL     1     -42.916 -54.926  14.793  1.00  0.00     0.001 A 
HETATM   23  C   UNL     1     -41.937 -54.205  14.107  1.00  0.00     0.009 A 
ENDBRANCH  17  18
ENDBRANCH  16  17
ENDBRANCH  15  16
ENDBRANCH   1  15
TORSDOF 7
ENDMDL
MODEL 5
REMARK VINA RESULT:      -6.0      3.387      5.694
REMARK  7 active torsions:
REMARK  status: ('A' for Active; 'I' for Inactive)
REMARK    1  A    between atoms: N_6  and  C_7 
REMARK    2  A    between atoms: C_7  and  C_8 
REMARK    3  A    between atoms: C_8  and  O_9 
REMARK    4  A    between atoms: C_8  and  C_10 
REMARK    5  A    between atoms: C_10  and  O_11 
REMARK    6  A    between atoms: O_11  and  C_12 
REMARK    7  A    between atoms: C_12  and  C_13 
ROOT
HETATM    1  C   UNL     1     -40.782 -52.849  12.434  1.00  0.00     0.160 C 
ENDROOT
BRANCH   1   2
HETATM    2  C   UNL     1     -41.561 -53.737  13.428  1.00  0.00     0.166 C 
BRANCH   2   3
HETATM    3  N   UNL     1     -40.700 -54.398  14.399  1.00  0.00    -0.307 N 
HETATM    4  C   UNL     1     -39.355 -54.509  14.173  1.00  0.00     0.186 A 
HETATM    5  N   UNL     1     -38.509 -55.049  14.981  1.00  0.00    -0.355 N 
HETATM    6  C   UNL     1     -38.993 -55.541  16.167  1.00  0.00     0.017 A 
ATOM      7  HN  UNL     1     -37.518 -55.108  14.748  1.00  0.00     0.166 HD
HETATM    8  C   UNL     1     -37.939 -56.129  17.072  1.00  0.00     0.069 C 
HETATM    9  C   UNL     1     -40.294 -55.515  16.517  1.00  0.00     0.028 A 
HETATM   10  C   UNL     1     -41.255 -54.907  15.556  1.00  0.00     0.256 A 
HETATM   11  C   UNL     1     -40.830 -56.043  17.811  1.00  0.00     0.056 C 
HETATM   12  O   UNL     1     -42.461 -54.860  15.798  1.00  0.00    -0.267 OA
ENDBRANCH   2   3
ENDBRANCH   1   2
BRANCH   1  13
HETATM   13  O   UNL     1     -40.618 -53.469  11.156  1.00  0.00    -0.392 OA
HETATM   14  H   UNL     1     -40.946 -54.389  11.209  1.00  0.00     0.210 HD
ENDBRANCH   1  13
BRANCH   1  15
HETATM   15  C   UNL     1     -41.501 -51.509  12.234  1.00  0.00     0.201 C 
BRANCH  15  16
HETATM   16  O   UNL     1     -42.852 -51.633  12.661  1.00  0.00    -0.384 OA
BRANCH  16  17
HETATM   17  C   UNL     1     -43.328 -50.447  13.294  1.00  0.00     0.206 C 
BRANCH  17  18
HETATM   18  C   UNL     1     -44.589 -50.796  14.037  1.00  0.00    -0.035 A 
HETATM   19  C   UNL     1     -44.643 -50.663  15.433  1.00  0.00     0.009 A 
HETATM   20  C   UNL     1     -45.801 -50.998  16.134  1.00  0.00     0.001 A 
HETATM   21  C   UNL     1     -46.920 -51.465  15.449  1.00  0.00     0.000 A 
HETATM   22  C   UNL     1     -46.881 -51.598  14.062  1.00  0.00     0.001 A 
HETATM   23  C   UNL     1     -45.723 -51.264  13.357  1.00  0.00     0.009 A 
ENDBRANCH  17  18
ENDBRANCH  16  17
ENDBRANCH  15  16
ENDBRANCH   1  15
TORSDOF 7
ENDMDL
MODEL 6
REMARK VINA RESULT:      -5.8      2.573      4.923
REMARK  7 active torsions:
REMARK  status: ('A' for Active; 'I' for Inactive)
REMARK    1  A    between atoms: N_6  and  C_7 
REMARK    2  A    between atoms: C_7  and  C_8 
REMARK    3  A    between atoms: C_8  and  O_9 
REMARK    4  A    between atoms: C_8  and  C_10 
REMARK    5  A    between atoms: C_10  and  O_11 
REMARK    6  A    between atoms: O_11  and  C_12 
REMARK    7  A    between atoms: C_12  and  C_13 
ROOT
HETATM    1  C   UNL     1     -40.831 -50.502  12.336  1.00  0.00     0.160 C 
ENDROOT
BRANCH   1   2
HETATM    2  C   UNL     1     -40.525 -51.989  12.619  1.00  0.00     0.166 C 
BRANCH   2   3
HETATM    3  N   UNL     1     -41.705 -52.751  13.004  1.00  0.00    -0.307 N 
HETATM    4  C   UNL     1     -42.658 -53.073  12.076  1.00  0.00     0.186 A 
HETATM    5  N   UNL     1     -43.718 -53.766  12.312  1.00  0.00    -0.355 N 
HETATM    6  C   UNL     1     -43.901 -54.228  13.591  1.00  0.00     0.017 A 
ATOM      7  HN  UNL     1     -44.395 -53.964  11.575  1.00  0.00     0.166 HD
HETATM    8  C   UNL     1     -45.147 -55.056  13.780  1.00  0.00     0.069 C 
HETATM    9  C   UNL     1     -43.055 -53.977  14.609  1.00  0.00     0.028 A 
HETATM   10  C   UNL     1     -41.849 -53.153  14.316  1.00  0.00     0.256 A 
HETATM   11  C   UNL     1     -43.242 -54.482  16.005  1.00  0.00     0.056 C 
HETATM   12  O   UNL     1     -41.037 -52.870  15.198  1.00  0.00    -0.267 OA
ENDBRANCH   2   3
ENDBRANCH   1   2
BRANCH   1  13
HETATM   13  O   UNL     1     -41.914 -50.329  11.418  1.00  0.00    -0.392 OA
HETATM   14  H   UNL     1     -42.756 -50.425  11.906  1.00  0.00     0.210 HD
ENDBRANCH   1  13
BRANCH   1  15
HETATM   15  C   UNL     1     -41.177 -49.769  13.638  1.00  0.00     0.201 C 
BRANCH  15  16
HETATM   16  O   UNL     1     -42.584 -49.576  13.709  1.00  0.00    -0.384 OA
BRANCH  16  17
HETATM   17  C   UNL     1     -43.095 -49.806  15.020  1.00  0.00     0.206 C 
BRANCH  17  18
HETATM   18  C   UNL     1     -44.413 -50.519  14.882  1.00  0.00    -0.035 A 
HETATM   19  C   UNL     1     -45.093 -50.966  16.024  1.00  0.00     0.009 A 
HETATM   20  C   UNL     1     -46.309 -51.641  15.909  1.00  0.00     0.001 A 
HETATM   21  C   UNL     1     -46.859 -51.873  14.651  1.00  0.00     0.000 A 
HETATM   22  C   UNL     1     -46.195 -51.430  13.508  1.00  0.00     0.001 A 
HETATM   23  C   UNL     1     -44.979 -50.754  13.621  1.00  0.00     0.009 A 
ENDBRANCH  17  18
ENDBRANCH  16  17
ENDBRANCH  15  16
ENDBRANCH   1  15
TORSDOF 7
ENDMDL
MODEL 7
REMARK VINA RESULT:      -5.7      2.625      7.142
REMARK  7 active torsions:
REMARK  status: ('A' for Active; 'I' for Inactive)
REMARK    1  A    between atoms: N_6  and  C_7 
REMARK    2  A    between atoms: C_7  and  C_8 
REMARK    3  A    between atoms: C_8  and  O_9 
REMARK    4  A    between atoms: C_8  and  C_10 
REMARK    5  A    between atoms: C_10  and  O_11 
REMARK    6  A    between atoms: O_11  and  C_12 
REMARK    7  A    between atoms: C_12  and  C_13 
ROOT
HETATM    1  C   UNL     1     -40.989 -52.867  12.567  1.00  0.00     0.160 C 
ENDROOT
BRANCH   1   2
HETATM    2  C   UNL     1     -42.244 -52.017  12.281  1.00  0.00     0.166 C 
BRANCH   2   3
HETATM    3  N   UNL     1     -43.451 -52.557  12.893  1.00  0.00    -0.307 N 
HETATM    4  C   UNL     1     -43.630 -53.910  13.000  1.00  0.00     0.186 A 
HETATM    5  N   UNL     1     -44.646 -54.481  13.548  1.00  0.00    -0.355 N 
HETATM    6  C   UNL     1     -45.619 -53.672  14.078  1.00  0.00     0.017 A 
ATOM      7  HN  UNL     1     -44.723 -55.497  13.588  1.00  0.00     0.166 HD
HETATM    8  C   UNL     1     -46.759 -54.414  14.729  1.00  0.00     0.069 C 
HETATM    9  C   UNL     1     -45.584 -52.325  14.032  1.00  0.00     0.028 A 
HETATM   10  C   UNL     1     -44.411 -51.688  13.372  1.00  0.00     0.256 A 
HETATM   11  C   UNL     1     -46.637 -51.434  14.612  1.00  0.00     0.056 C 
HETATM   12  O   UNL     1     -44.315 -50.464  13.278  1.00  0.00    -0.267 OA
ENDBRANCH   2   3
ENDBRANCH   1   2
BRANCH   1  13
HETATM   13  O   UNL     1     -40.381 -53.369  11.374  1.00  0.00    -0.392 OA
HETATM   14  H   UNL     1     -40.078 -54.284  11.538  1.00  0.00     0.210 HD
ENDBRANCH   1  13
BRANCH   1  15
HETATM   15  C   UNL     1     -39.946 -52.044  13.333  1.00  0.00     0.201 C 
BRANCH  15  16
HETATM   16  O   UNL     1     -39.417 -51.041  12.475  1.00  0.00    -0.384 OA
BRANCH  16  17
HETATM   17  C   UNL     1     -38.003 -50.909  12.607  1.00  0.00     0.206 C 
BRANCH  17  18
HETATM   18  C   UNL     1     -37.733 -49.838  13.628  1.00  0.00    -0.035 A 
HETATM   19  C   UNL     1     -37.088 -50.160  14.832  1.00  0.00     0.009 A 
HETATM   20  C   UNL     1     -36.845 -49.178  15.793  1.00  0.00     0.001 A 
HETATM   21  C   UNL     1     -37.242 -47.864  15.561  1.00  0.00     0.000 A 
HETATM   22  C   UNL     1     -37.880 -47.530  14.367  1.00  0.00     0.001 A 
HETATM   23  C   UNL     1     -38.124 -48.510  13.404  1.00  0.00     0.009 A 
ENDBRANCH  17  18
ENDBRANCH  16  17
ENDBRANCH  15  16
ENDBRANCH   1  15
TORSDOF 7
ENDMDL
MODEL 8
REMARK VINA RESULT:      -5.7      2.167      3.154
REMARK  7 active torsions:
REMARK  status: ('A' for Active; 'I' for Inactive)
REMARK    1  A    between atoms: N_6  and  C_7 
REMARK    2  A    between atoms: C_7  and  C_8 
REMARK    3  A    between atoms: C_8  and  O_9 
REMARK    4  A    between atoms: C_8  and  C_10 
REMARK    5  A    between atoms: C_10  and  O_11 
REMARK    6  A    between atoms: O_11  and  C_12 
REMARK    7  A    between atoms: C_12  and  C_13 
ROOT
HETATM    1  C   UNL     1     -40.686 -52.116  12.496  1.00  0.00     0.160 C 
ENDROOT
BRANCH   1   2
HETATM    2  C   UNL     1     -39.369 -51.404  12.872  1.00  0.00     0.166 C 
BRANCH   2   3
HETATM    3  N   UNL     1     -39.426 -49.961  12.685  1.00  0.00    -0.307 N 
HETATM    4  C   UNL     1     -39.635 -49.429  11.441  1.00  0.00     0.186 A 
HETATM    5  N   UNL     1     -39.729 -48.171  11.180  1.00  0.00    -0.355 N 
HETATM    6  C   UNL     1     -39.626 -47.296  12.232  1.00  0.00     0.017 A 
ATOM      7  HN  UNL     1     -39.876 -47.839  10.227  1.00  0.00     0.166 HD
HETATM    8  C   UNL     1     -39.778 -45.844  11.850  1.00  0.00     0.069 C 
HETATM    9  C   UNL     1     -39.406 -47.675  13.506  1.00  0.00     0.028 A 
HETATM   10  C   UNL     1     -39.276 -49.133  13.779  1.00  0.00     0.256 A 
HETATM   11  C   UNL     1     -39.298 -46.729  14.661  1.00  0.00     0.056 C 
HETATM   12  O   UNL     1     -39.060 -49.556  14.916  1.00  0.00    -0.267 OA
ENDBRANCH   2   3
ENDBRANCH   1   2
BRANCH   1  13
HETATM   13  O   UNL     1     -40.473 -53.271  11.681  1.00  0.00    -0.392 OA
HETATM   14  H   UNL     1     -41.222 -53.357  11.058  1.00  0.00     0.210 HD
ENDBRANCH   1  13
BRANCH   1  15
HETATM   15  C   UNL     1     -41.443 -52.545  13.759  1.00  0.00     0.201 C 
BRANCH  15  16
HETATM   16  O   UNL     1     -42.225 -51.454  14.231  1.00  0.00    -0.384 OA
BRANCH  16  17
HETATM   17  C   UNL     1     -43.060 -50.908  13.212  1.00  0.00     0.206 C 
BRANCH  17  18
HETATM   18  C   UNL     1     -43.057 -49.411  13.368  1.00  0.00    -0.035 A 
HETATM   19  C   UNL     1     -43.178 -48.587  12.239  1.00  0.00     0.009 A 
HETATM   20  C   UNL     1     -43.162 -47.198  12.368  1.00  0.00     0.001 A 
HETATM   21  C   UNL     1     -43.029 -46.618  13.628  1.00  0.00     0.000 A 
HETATM   22  C   UNL     1     -42.912 -47.426  14.757  1.00  0.00     0.001 A 
HETATM   23  C   UNL     1     -42.928 -48.816  14.631  1.00  0.00     0.009 A 
ENDBRANCH  17  18
ENDBRANCH  16  17
ENDBRANCH  15  16
ENDBRANCH   1  15
TORSDOF 7
ENDMDL
MODEL 9
REMARK VINA RESULT:      -5.6      1.952      6.460
REMARK  7 active torsions:
REMARK  status: ('A' for Active; 'I' for Inactive)
REMARK    1  A    between atoms: N_6  and  C_7 
REMARK    2  A    between atoms: C_7  and  C_8 
REMARK    3  A    between atoms: C_8  and  O_9 
REMARK    4  A    between atoms: C_8  and  C_10 
REMARK    5  A    between atoms: C_10  and  O_11 
REMARK    6  A    between atoms: O_11  and  C_12 
REMARK    7  A    between atoms: C_12  and  C_13 
ROOT
HETATM    1  C   UNL     1     -39.769 -53.605  13.753  1.00  0.00     0.160 C 
ENDROOT
BRANCH   1   2
HETATM    2  C   UNL     1     -40.828 -53.667  12.631  1.00  0.00     0.166 C 
BRANCH   2   3
HETATM    3  N   UNL     1     -42.121 -53.132  13.037  1.00  0.00    -0.307 N 
HETATM    4  C   UNL     1     -42.579 -51.952  12.516  1.00  0.00     0.186 A 
HETATM    5  N   UNL     1     -43.717 -51.414  12.790  1.00  0.00    -0.355 N 
HETATM    6  C   UNL     1     -44.540 -52.081  13.661  1.00  0.00     0.017 A 
ATOM      7  HN  UNL     1     -43.995 -50.525  12.374  1.00  0.00     0.166 HD
HETATM    8  C   UNL     1     -45.866 -51.404  13.906  1.00  0.00     0.069 C 
HETATM    9  C   UNL     1     -44.216 -53.243  14.261  1.00  0.00     0.028 A 
HETATM   10  C   UNL     1     -42.885 -53.833  13.948  1.00  0.00     0.256 A 
HETATM   11  C   UNL     1     -45.110 -53.982  15.208  1.00  0.00     0.056 C 
HETATM   12  O   UNL     1     -42.512 -54.886  14.467  1.00  0.00    -0.267 OA
ENDBRANCH   2   3
ENDBRANCH   1   2
BRANCH   1  13
HETATM   13  O   UNL     1     -38.679 -54.503  13.529  1.00  0.00    -0.392 OA
HETATM   14  H   UNL     1     -38.537 -54.589  12.565  1.00  0.00     0.210 HD
ENDBRANCH   1  13
BRANCH   1  15
HETATM   15  C   UNL     1     -39.209 -52.184  13.883  1.00  0.00     0.201 C 
BRANCH  15  16
HETATM   16  O   UNL     1     -38.679 -51.771  12.630  1.00  0.00    -0.384 OA
BRANCH  16  17
HETATM   17  C   UNL     1     -37.577 -50.877  12.778  1.00  0.00     0.206 C 
BRANCH  17  18
HETATM   18  C   UNL     1     -38.130 -49.490  12.959  1.00  0.00    -0.035 A 
HETATM   19  C   UNL     1     -37.713 -48.703  14.043  1.00  0.00     0.009 A 
HETATM   20  C   UNL     1     -38.229 -47.420  14.230  1.00  0.00     0.001 A 
HETATM   21  C   UNL     1     -39.165 -46.909  13.334  1.00  0.00     0.000 A 
HETATM   22  C   UNL     1     -39.584 -47.680  12.251  1.00  0.00     0.001 A 
HETATM   23  C   UNL     1     -39.070 -48.963  12.061  1.00  0.00     0.009 A 
ENDBRANCH  17  18
ENDBRANCH  16  17
ENDBRANCH  15  16
ENDBRANCH   1  15
TORSDOF 7
ENDMDL
