MODEL 1
REMARK VINA RESULT:      -6.8      0.000      0.000
REMARK  6 active torsions:
REMARK  status: ('A' for Active; 'I' for Inactive)
REMARK    1  A    between atoms: N_5  and  C_6 
REMARK    2  A    between atoms: C_6  and  C_7 
REMARK    3  A    between atoms: C_7  and  O_8 
REMARK    4  A    between atoms: C_7  and  C_9 
REMARK    5  A    between atoms: C_9  and  N_10 
REMARK       I    between atoms: N_10  and  C_11 
REMARK       I    between atoms: C_11  and  N_13 
REMARK    6  A    between atoms: N_13  and  C_14 
ROOT
HETATM    1  N   UNL     1     -40.518 -50.843  11.539  1.00  0.00    -0.340 N 
HETATM    2  C   UNL     1     -41.137 -49.635  11.709  1.00  0.00     0.320 C 
HETATM    3  O   UNL     1     -41.484 -49.256  12.825  1.00  0.00    -0.247 OA
HETATM    4  N   UNL     1     -41.275 -48.932  10.539  1.00  0.00    -0.308 N 
HETATM    5  H   UNL     1     -40.491 -51.281  10.628  1.00  0.00     0.164 HD
HETATM    6  H   UNL     1     -41.203 -49.457   9.681  1.00  0.00     0.170 HD
ENDROOT
BRANCH   1   7
HETATM    7  C   UNL     1     -40.350 -51.720  12.684  1.00  0.00     0.157 C 
BRANCH   7   8
HETATM    8  C   UNL     1     -41.103 -53.036  12.495  1.00  0.00     0.164 C 
BRANCH   8   9
HETATM    9  C   UNL     1     -42.620 -52.741  12.396  1.00  0.00     0.305 C 
BRANCH   9  10
HETATM   10  N   UNL     1     -43.404 -53.024  13.615  1.00  0.00     0.091 N 
HETATM   11  C   UNL     1     -44.705 -53.635  13.286  1.00  0.00     0.273 C 
HETATM   12  C   UNL     1     -45.704 -52.668  12.636  1.00  0.00     0.034 C 
HETATM   13  C   UNL     1     -45.904 -51.387  13.458  1.00  0.00    -0.015 C 
HETATM   14  C   UNL     1     -46.793 -51.642  14.679  1.00  0.00     0.010 C 
HETATM   15  C   UNL     1     -44.548 -50.795  13.865  1.00  0.00     0.034 C 
HETATM   16  C   UNL     1     -43.610 -51.846  14.473  1.00  0.00     0.273 C 
ENDBRANCH   9  10
ENDBRANCH   8   9
BRANCH   8  17
HETATM   17  O   UNL     1     -40.590 -53.681  11.321  1.00  0.00    -0.392 OA
HETATM   18  H   UNL     1     -41.145 -54.462  11.156  1.00  0.00     0.210 HD
ENDBRANCH   8  17
ENDBRANCH   7   8
ENDBRANCH   1   7
BRANCH   4  19
HETATM   19  C   UNL     1     -41.727 -47.596  10.456  1.00  0.00     0.051 A 
HETATM   20  C   UNL     1     -40.911 -46.495  10.716  1.00  0.00     0.032 A 
HETATM   21  C   UNL     1     -41.434 -45.207  10.654  1.00  0.00     0.019 A 
HETATM   22  C   UNL     1     -42.765 -45.057  10.314  1.00  0.00     0.088 A 
HETATM   23  N   UNL     1     -43.584 -46.090  10.015  1.00  0.00    -0.373 N 
HETATM   24  C   UNL     1     -43.043 -47.331  10.086  1.00  0.00     0.117 A 
ATOM     25  HN  UNL     1     -44.557 -45.943   9.749  1.00  0.00     0.164 HD
ENDBRANCH   4  19
TORSDOF 6
ENDMDL
MODEL 2
REMARK VINA RESULT:      -6.2      1.220      1.754
REMARK  6 active torsions:
REMARK  status: ('A' for Active; 'I' for Inactive)
REMARK    1  A    between atoms: N_5  and  C_6 
REMARK    2  A    between atoms: C_6  and  C_7 
REMARK    3  A    between atoms: C_7  and  O_8 
REMARK    4  A    between atoms: C_7  and  C_9 
REMARK    5  A    between atoms: C_9  and  N_10 
REMARK       I    between atoms: N_10  and  C_11 
REMARK       I    between atoms: C_11  and  N_13 
REMARK    6  A    between atoms: N_13  and  C_14 
ROOT
HETATM    1  N   UNL     1     -40.043 -50.930  11.718  1.00  0.00    -0.340 N 
HETATM    2  C   UNL     1     -40.861 -49.835  11.783  1.00  0.00     0.320 C 
HETATM    3  O   UNL     1     -41.404 -49.514  12.837  1.00  0.00    -0.247 OA
HETATM    4  N   UNL     1     -40.956 -49.163  10.590  1.00  0.00    -0.308 N 
HETATM    5  H   UNL     1     -39.831 -51.358  10.828  1.00  0.00     0.164 HD
HETATM    6  H   UNL     1     -40.691 -49.671   9.760  1.00  0.00     0.170 HD
ENDROOT
BRANCH   1   7
HETATM    7  C   UNL     1     -39.890 -51.768  12.894  1.00  0.00     0.157 C 
BRANCH   7   8
HETATM    8  C   UNL     1     -40.654 -53.083  12.746  1.00  0.00     0.164 C 
BRANCH   8   9
HETATM    9  C   UNL     1     -42.073 -52.913  13.343  1.00  0.00     0.305 C 
BRANCH   9  10
HETATM   10  N   UNL     1     -42.938 -54.107  13.277  1.00  0.00     0.091 N 
HETATM   11  C   UNL     1     -44.194 -53.821  12.559  1.00  0.00     0.273 C 
HETATM   12  C   UNL     1     -45.167 -52.922  13.333  1.00  0.00     0.034 C 
HETATM   13  C   UNL     1     -45.463 -53.451  14.743  1.00  0.00    -0.015 C 
HETATM   14  C   UNL     1     -46.434 -54.635  14.701  1.00  0.00     0.010 C 
HETATM   15  C   UNL     1     -44.158 -53.821  15.461  1.00  0.00     0.034 C 
HETATM   16  C   UNL     1     -43.240 -54.692  14.594  1.00  0.00     0.273 C 
ENDBRANCH   9  10
ENDBRANCH   8   9
BRANCH   8  17
HETATM   17  O   UNL     1     -40.680 -53.432  11.355  1.00  0.00    -0.392 OA
HETATM   18  H   UNL     1     -41.012 -54.344  11.294  1.00  0.00     0.210 HD
ENDBRANCH   8  17
ENDBRANCH   7   8
ENDBRANCH   1   7
BRANCH   4  19
HETATM   19  C   UNL     1     -41.597 -47.915  10.422  1.00  0.00     0.051 A 
HETATM   20  C   UNL     1     -42.896 -47.783   9.933  1.00  0.00     0.032 A 
HETATM   21  C   UNL     1     -43.452 -46.520   9.756  1.00  0.00     0.019 A 
HETATM   22  C   UNL     1     -42.689 -45.417  10.093  1.00  0.00     0.088 A 
HETATM   23  N   UNL     1     -41.442 -45.497  10.606  1.00  0.00    -0.373 N 
HETATM   24  C   UNL     1     -40.930 -46.742  10.764  1.00  0.00     0.117 A 
ATOM     25  HN  UNL     1     -40.913 -44.663  10.861  1.00  0.00     0.164 HD
ENDBRANCH   4  19
TORSDOF 6
ENDMDL
MODEL 3
REMARK VINA RESULT:      -6.0      1.933      6.898
REMARK  6 active torsions:
REMARK  status: ('A' for Active; 'I' for Inactive)
REMARK    1  A    between atoms: N_5  and  C_6 
REMARK    2  A    between atoms: C_6  and  C_7 
REMARK    3  A    between atoms: C_7  and  O_8 
REMARK    4  A    between atoms: C_7  and  C_9 
REMARK    5  A    between atoms: C_9  and  N_10 
REMARK       I    between atoms: N_10  and  C_11 
REMARK       I    between atoms: C_11  and  N_13 
REMARK    6  A    between atoms: N_13  and  C_14 
ROOT
HETATM    1  N   UNL     1     -41.814 -51.333  11.803  1.00  0.00    -0.340 N 
HETATM    2  C   UNL     1     -42.659 -51.732  12.802  1.00  0.00     0.320 C 
HETATM    3  O   UNL     1     -42.300 -51.713  13.976  1.00  0.00    -0.247 OA
HETATM    4  N   UNL     1     -43.900 -52.098  12.343  1.00  0.00    -0.308 N 
HETATM    5  H   UNL     1     -41.987 -51.608  10.846  1.00  0.00     0.164 HD
HETATM    6  H   UNL     1     -43.973 -52.325  11.363  1.00  0.00     0.170 HD
ENDROOT
BRANCH   1   7
HETATM    7  C   UNL     1     -40.449 -50.967  12.135  1.00  0.00     0.157 C 
BRANCH   7   8
HETATM    8  C   UNL     1     -39.999 -49.727  11.363  1.00  0.00     0.164 C 
BRANCH   8   9
HETATM    9  C   UNL     1     -39.811 -48.554  12.356  1.00  0.00     0.305 C 
BRANCH   9  10
HETATM   10  N   UNL     1     -40.889 -47.545  12.360  1.00  0.00     0.091 N 
HETATM   11  C   UNL     1     -41.010 -46.884  11.047  1.00  0.00     0.273 C 
HETATM   12  C   UNL     1     -39.855 -45.929  10.718  1.00  0.00     0.034 C 
HETATM   13  C   UNL     1     -39.616 -44.890  11.823  1.00  0.00    -0.015 C 
HETATM   14  C   UNL     1     -40.674 -43.783  11.784  1.00  0.00     0.010 C 
HETATM   15  C   UNL     1     -39.568 -45.572  13.197  1.00  0.00     0.034 C 
HETATM   16  C   UNL     1     -40.746 -46.529  13.417  1.00  0.00     0.273 C 
ENDBRANCH   9  10
ENDBRANCH   8   9
BRANCH   8  17
HETATM   17  O   UNL     1     -38.791 -50.051  10.660  1.00  0.00    -0.392 OA
HETATM   18  H   UNL     1     -38.194 -49.289  10.749  1.00  0.00     0.210 HD
ENDBRANCH   8  17
ENDBRANCH   7   8
ENDBRANCH   1   7
BRANCH   4  19
HETATM   19  C   UNL     1     -45.006 -52.390  13.172  1.00  0.00     0.051 A 
HETATM   20  C   UNL     1     -45.778 -51.408  13.791  1.00  0.00     0.032 A 
HETATM   21  C   UNL     1     -46.830 -51.770  14.627  1.00  0.00     0.019 A 
HETATM   22  C   UNL     1     -47.090 -53.116  14.806  1.00  0.00     0.088 A 
HETATM   23  N   UNL     1     -46.394 -54.101  14.198  1.00  0.00    -0.373 N 
HETATM   24  C   UNL     1     -45.376 -53.714  13.391  1.00  0.00     0.117 A 
ATOM     25  HN  UNL     1     -46.624 -55.085  14.338  1.00  0.00     0.164 HD
ENDBRANCH   4  19
TORSDOF 6
ENDMDL
MODEL 4
REMARK VINA RESULT:      -5.9      3.314      4.413
REMARK  6 active torsions:
REMARK  status: ('A' for Active; 'I' for Inactive)
REMARK    1  A    between atoms: N_5  and  C_6 
REMARK    2  A    between atoms: C_6  and  C_7 
REMARK    3  A    between atoms: C_7  and  O_8 
REMARK    4  A    between atoms: C_7  and  C_9 
REMARK    5  A    between atoms: C_9  and  N_10 
REMARK       I    between atoms: N_10  and  C_11 
REMARK       I    between atoms: C_11  and  N_13 
REMARK    6  A    between atoms: N_13  and  C_14 
ROOT
HETATM    1  N   UNL     1     -41.730 -53.345  14.529  1.00  0.00    -0.340 N 
HETATM    2  C   UNL     1     -40.783 -53.025  13.595  1.00  0.00     0.320 C 
HETATM    3  O   UNL     1     -40.576 -53.755  12.630  1.00  0.00    -0.247 OA
HETATM    4  N   UNL     1     -40.161 -51.827  13.848  1.00  0.00    -0.308 N 
HETATM    5  H   UNL     1     -41.709 -52.920  15.446  1.00  0.00     0.164 HD
HETATM    6  H   UNL     1     -40.224 -51.473  14.790  1.00  0.00     0.170 HD
ENDROOT
BRANCH   1   7
HETATM    7  C   UNL     1     -42.433 -54.611  14.418  1.00  0.00     0.157 C 
BRANCH   7   8
HETATM    8  C   UNL     1     -43.843 -54.419  13.860  1.00  0.00     0.164 C 
BRANCH   8   9
HETATM    9  C   UNL     1     -44.516 -53.228  14.585  1.00  0.00     0.305 C 
BRANCH   9  10
HETATM   10  N   UNL     1     -45.745 -53.553  15.336  1.00  0.00     0.091 N 
HETATM   11  C   UNL     1     -46.925 -52.898  14.742  1.00  0.00     0.273 C 
HETATM   12  C   UNL     1     -46.970 -51.379  14.950  1.00  0.00     0.034 C 
HETATM   13  C   UNL     1     -46.820 -50.982  16.426  1.00  0.00    -0.015 C 
HETATM   14  C   UNL     1     -48.118 -51.226  17.202  1.00  0.00     0.010 C 
HETATM   15  C   UNL     1     -45.638 -51.724  17.062  1.00  0.00     0.034 C 
HETATM   16  C   UNL     1     -45.666 -53.229  16.770  1.00  0.00     0.273 C 
ENDBRANCH   9  10
ENDBRANCH   8   9
BRANCH   8  17
HETATM   17  O   UNL     1     -43.740 -54.214  12.444  1.00  0.00    -0.392 OA
HETATM   18  H   UNL     1     -44.560 -54.550  12.044  1.00  0.00     0.210 HD
ENDBRANCH   8  17
ENDBRANCH   7   8
ENDBRANCH   1   7
BRANCH   4  19
HETATM   19  C   UNL     1     -39.269 -51.185  12.961  1.00  0.00     0.051 A 
HETATM   20  C   UNL     1     -37.882 -51.252  13.090  1.00  0.00     0.032 A 
HETATM   21  C   UNL     1     -37.063 -50.561  12.203  1.00  0.00     0.019 A 
HETATM   22  C   UNL     1     -37.661 -49.831  11.193  1.00  0.00     0.088 A 
HETATM   23  N   UNL     1     -38.998 -49.767  11.006  1.00  0.00    -0.373 N 
HETATM   24  C   UNL     1     -39.767 -50.451  11.888  1.00  0.00     0.117 A 
ATOM     25  HN  UNL     1     -39.407 -49.233  10.239  1.00  0.00     0.164 HD
ENDBRANCH   4  19
TORSDOF 6
ENDMDL
MODEL 5
REMARK VINA RESULT:      -5.9      3.202      4.317
REMARK  6 active torsions:
REMARK  status: ('A' for Active; 'I' for Inactive)
REMARK    1  A    between atoms: N_5  and  C_6 
REMARK    2  A    between atoms: C_6  and  C_7 
REMARK    3  A    between atoms: C_7  and  O_8 
REMARK    4  A    between atoms: C_7  and  C_9 
REMARK    5  A    between atoms: C_9  and  N_10 
REMARK       I    between atoms: N_10  and  C_11 
REMARK       I    between atoms: C_11  and  N_13 
REMARK    6  A    between atoms: N_13  and  C_14 
ROOT
HETATM    1  N   UNL     1     -41.014 -53.364  15.182  1.00  0.00    -0.340 N 
HETATM    2  C   UNL     1     -40.245 -53.014  14.106  1.00  0.00     0.320 C 
HETATM    3  O   UNL     1     -40.003 -53.823  13.214  1.00  0.00    -0.247 OA
HETATM    4  N   UNL     1     -39.839 -51.703  14.138  1.00  0.00    -0.308 N 
HETATM    5  H   UNL     1     -40.981 -52.819  16.033  1.00  0.00     0.164 HD
HETATM    6  H   UNL     1     -39.872 -51.239  15.033  1.00  0.00     0.170 HD
ENDROOT
BRANCH   1   7
HETATM    7  C   UNL     1     -41.472 -54.736  15.308  1.00  0.00     0.157 C 
BRANCH   7   8
HETATM    8  C   UNL     1     -42.948 -54.799  15.699  1.00  0.00     0.164 C 
BRANCH   8   9
HETATM    9  C   UNL     1     -43.675 -53.555  15.130  1.00  0.00     0.305 C 
BRANCH   9  10
HETATM   10  N   UNL     1     -44.251 -53.716  13.781  1.00  0.00     0.091 N 
HETATM   11  C   UNL     1     -43.964 -52.545  12.931  1.00  0.00     0.273 C 
HETATM   12  C   UNL     1     -44.745 -51.283  13.322  1.00  0.00     0.034 C 
HETATM   13  C   UNL     1     -46.258 -51.529  13.408  1.00  0.00    -0.015 C 
HETATM   14  C   UNL     1     -46.889 -51.608  12.015  1.00  0.00     0.010 C 
HETATM   15  C   UNL     1     -46.549 -52.793  14.228  1.00  0.00     0.034 C 
HETATM   16  C   UNL     1     -45.698 -53.988  13.783  1.00  0.00     0.273 C 
ENDBRANCH   9  10
ENDBRANCH   8   9
BRANCH   8  17
HETATM   17  O   UNL     1     -43.491 -56.029  15.200  1.00  0.00    -0.392 OA
HETATM   18  H   UNL     1     -44.445 -55.892  15.076  1.00  0.00     0.210 HD
ENDBRANCH   8  17
ENDBRANCH   7   8
ENDBRANCH   1   7
BRANCH   4  19
HETATM   19  C   UNL     1     -39.180 -51.042  13.077  1.00  0.00     0.051 A 
HETATM   20  C   UNL     1     -37.795 -50.895  13.012  1.00  0.00     0.032 A 
HETATM   21  C   UNL     1     -37.215 -50.197  11.957  1.00  0.00     0.019 A 
HETATM   22  C   UNL     1     -38.045 -49.678  10.981  1.00  0.00     0.088 A 
HETATM   23  N   UNL     1     -39.388 -49.829  10.982  1.00  0.00    -0.373 N 
HETATM   24  C   UNL     1     -39.920 -50.513  12.024  1.00  0.00     0.117 A 
ATOM     25  HN  UNL     1     -39.970 -49.449  10.236  1.00  0.00     0.164 HD
ENDBRANCH   4  19
TORSDOF 6
ENDMDL
MODEL 6
REMARK VINA RESULT:      -5.8      2.173      7.595
REMARK  6 active torsions:
REMARK  status: ('A' for Active; 'I' for Inactive)
REMARK    1  A    between atoms: N_5  and  C_6 
REMARK    2  A    between atoms: C_6  and  C_7 
REMARK    3  A    between atoms: C_7  and  O_8 
REMARK    4  A    between atoms: C_7  and  C_9 
REMARK    5  A    between atoms: C_9  and  N_10 
REMARK       I    between atoms: N_10  and  C_11 
REMARK       I    between atoms: C_11  and  N_13 
REMARK    6  A    between atoms: N_13  and  C_14 
ROOT
HETATM    1  N   UNL     1     -41.787 -50.436  11.620  1.00  0.00    -0.340 N 
HETATM    2  C   UNL     1     -42.512 -51.103  12.569  1.00  0.00     0.320 C 
HETATM    3  O   UNL     1     -42.753 -50.585  13.657  1.00  0.00    -0.247 OA
HETATM    4  N   UNL     1     -42.939 -52.338  12.151  1.00  0.00    -0.308 N 
HETATM    5  H   UNL     1     -41.349 -50.941  10.862  1.00  0.00     0.164 HD
HETATM    6  H   UNL     1     -42.454 -52.745  11.366  1.00  0.00     0.170 HD
ENDROOT
BRANCH   1   7
HETATM    7  C   UNL     1     -41.226 -49.136  11.942  1.00  0.00     0.157 C 
BRANCH   7   8
HETATM    8  C   UNL     1     -41.719 -48.060  10.976  1.00  0.00     0.164 C 
BRANCH   8   9
HETATM    9  C   UNL     1     -40.898 -46.765  11.200  1.00  0.00     0.305 C 
BRANCH   9  10
HETATM   10  N   UNL     1     -41.541 -45.744  12.050  1.00  0.00     0.091 N 
HETATM   11  C   UNL     1     -41.620 -44.443  11.360  1.00  0.00     0.273 C 
HETATM   12  C   UNL     1     -40.268 -43.736  11.201  1.00  0.00     0.034 C 
HETATM   13  C   UNL     1     -39.517 -43.594  12.532  1.00  0.00    -0.015 C 
HETATM   14  C   UNL     1     -40.113 -42.474  13.390  1.00  0.00     0.010 C 
HETATM   15  C   UNL     1     -39.503 -44.931  13.284  1.00  0.00     0.034 C 
HETATM   16  C   UNL     1     -40.894 -45.573  13.361  1.00  0.00     0.273 C 
ENDBRANCH   9  10
ENDBRANCH   8   9
BRANCH   8  17
HETATM   17  O   UNL     1     -41.593 -48.566   9.639  1.00  0.00    -0.392 OA
HETATM   18  H   UNL     1     -42.197 -48.050   9.079  1.00  0.00     0.210 HD
ENDBRANCH   8  17
ENDBRANCH   7   8
ENDBRANCH   1   7
BRANCH   4  19
HETATM   19  C   UNL     1     -43.837 -53.160  12.868  1.00  0.00     0.051 A 
HETATM   20  C   UNL     1     -43.423 -54.186  13.717  1.00  0.00     0.032 A 
HETATM   21  C   UNL     1     -44.365 -54.983  14.361  1.00  0.00     0.019 A 
HETATM   22  C   UNL     1     -45.704 -54.716  14.147  1.00  0.00     0.088 A 
HETATM   23  N   UNL     1     -46.152 -53.709  13.365  1.00  0.00    -0.373 N 
HETATM   24  C   UNL     1     -45.209 -52.953  12.751  1.00  0.00     0.117 A 
ATOM     25  HN  UNL     1     -47.148 -53.528  13.242  1.00  0.00     0.164 HD
ENDBRANCH   4  19
TORSDOF 6
ENDMDL
MODEL 7
REMARK VINA RESULT:      -5.8      1.741      2.305
REMARK  6 active torsions:
REMARK  status: ('A' for Active; 'I' for Inactive)
REMARK    1  A    between atoms: N_5  and  C_6 
REMARK    2  A    between atoms: C_6  and  C_7 
REMARK    3  A    between atoms: C_7  and  O_8 
REMARK    4  A    between atoms: C_7  and  C_9 
REMARK    5  A    between atoms: C_9  and  N_10 
REMARK       I    between atoms: N_10  and  C_11 
REMARK       I    between atoms: C_11  and  N_13 
REMARK    6  A    between atoms: N_13  and  C_14 
ROOT
HETATM    1  N   UNL     1     -39.437 -51.632  12.978  1.00  0.00    -0.340 N 
HETATM    2  C   UNL     1     -40.050 -50.414  12.872  1.00  0.00     0.320 C 
HETATM    3  O   UNL     1     -40.550 -49.872  13.854  1.00  0.00    -0.247 OA
HETATM    4  N   UNL     1     -40.000 -49.895  11.602  1.00  0.00    -0.308 N 
HETATM    5  H   UNL     1     -39.285 -52.202  12.157  1.00  0.00     0.164 HD
HETATM    6  H   UNL     1     -39.812 -50.543  10.853  1.00  0.00     0.170 HD
ENDROOT
BRANCH   1   7
HETATM    7  C   UNL     1     -39.458 -52.326  14.253  1.00  0.00     0.157 C 
BRANCH   7   8
HETATM    8  C   UNL     1     -39.834 -53.798  14.082  1.00  0.00     0.164 C 
BRANCH   8   9
HETATM    9  C   UNL     1     -41.209 -53.889  13.375  1.00  0.00     0.305 C 
BRANCH   9  10
HETATM   10  N   UNL     1     -42.306 -53.140  14.017  1.00  0.00     0.091 N 
HETATM   11  C   UNL     1     -42.843 -53.867  15.183  1.00  0.00     0.273 C 
HETATM   12  C   UNL     1     -43.653 -55.118  14.820  1.00  0.00     0.034 C 
HETATM   13  C   UNL     1     -44.770 -54.825  13.808  1.00  0.00    -0.015 C 
HETATM   14  C   UNL     1     -45.958 -54.128  14.477  1.00  0.00     0.010 C 
HETATM   15  C   UNL     1     -44.225 -54.001  12.634  1.00  0.00     0.034 C 
HETATM   16  C   UNL     1     -43.403 -52.792  13.099  1.00  0.00     0.273 C 
ENDBRANCH   9  10
ENDBRANCH   8   9
BRANCH   8  17
HETATM   17  O   UNL     1     -38.790 -54.444  13.341  1.00  0.00    -0.392 OA
HETATM   18  H   UNL     1     -39.217 -55.043  12.705  1.00  0.00     0.210 HD
ENDBRANCH   8  17
ENDBRANCH   7   8
ENDBRANCH   1   7
BRANCH   4  19
HETATM   19  C   UNL     1     -40.408 -48.587  11.255  1.00  0.00     0.051 A 
HETATM   20  C   UNL     1     -39.718 -47.442  11.651  1.00  0.00     0.032 A 
HETATM   21  C   UNL     1     -40.199 -46.182  11.305  1.00  0.00     0.019 A 
HETATM   22  C   UNL     1     -41.357 -46.108  10.554  1.00  0.00     0.088 A 
HETATM   23  N   UNL     1     -42.037 -47.190  10.115  1.00  0.00    -0.373 N 
HETATM   24  C   UNL     1     -41.542 -48.401  10.470  1.00  0.00     0.117 A 
ATOM     25  HN  UNL     1     -42.878 -47.100   9.546  1.00  0.00     0.164 HD
ENDBRANCH   4  19
TORSDOF 6
ENDMDL
MODEL 8
REMARK VINA RESULT:      -5.8      3.322      7.229
REMARK  6 active torsions:
REMARK  status: ('A' for Active; 'I' for Inactive)
REMARK    1  A    between atoms: N_5  and  C_6 
REMARK    2  A    between atoms: C_6  and  C_7 
REMARK    3  A    between atoms: C_7  and  O_8 
REMARK    4  A    between atoms: C_7  and  C_9 
REMARK    5  A    between atoms: C_9  and  N_10 
REMARK       I    between atoms: N_10  and  C_11 
REMARK       I    between atoms: C_11  and  N_13 
REMARK    6  A    between atoms: N_13  and  C_14 
ROOT
HETATM    1  N   UNL     1     -40.537 -51.041  11.337  1.00  0.00    -0.340 N 
HETATM    2  C   UNL     1     -41.455 -51.498  12.243  1.00  0.00     0.320 C 
HETATM    3  O   UNL     1     -42.005 -50.729  13.026  1.00  0.00    -0.247 OA
HETATM    4  N   UNL     1     -41.691 -52.846  12.136  1.00  0.00    -0.308 N 
HETATM    5  H   UNL     1     -39.887 -51.679  10.899  1.00  0.00     0.164 HD
HETATM    6  H   UNL     1     -40.993 -53.392  11.655  1.00  0.00     0.170 HD
ENDROOT
BRANCH   1   7
HETATM    7  C   UNL     1     -40.150 -49.642  11.367  1.00  0.00     0.157 C 
BRANCH   7   8
HETATM    8  C   UNL     1     -38.644 -49.483  11.576  1.00  0.00     0.164 C 
BRANCH   8   9
HETATM    9  C   UNL     1     -38.261 -50.070  12.957  1.00  0.00     0.305 C 
BRANCH   9  10
HETATM   10  N   UNL     1     -38.863 -49.397  14.124  1.00  0.00     0.091 N 
HETATM   11  C   UNL     1     -38.545 -47.957  14.136  1.00  0.00     0.273 C 
HETATM   12  C   UNL     1     -37.081 -47.642  14.469  1.00  0.00     0.034 C 
HETATM   13  C   UNL     1     -36.618 -48.307  15.773  1.00  0.00    -0.015 C 
HETATM   14  C   UNL     1     -37.159 -47.565  16.999  1.00  0.00     0.010 C 
HETATM   15  C   UNL     1     -37.019 -49.788  15.791  1.00  0.00     0.034 C 
HETATM   16  C   UNL     1     -38.490 -50.000  15.414  1.00  0.00     0.273 C 
ENDBRANCH   9  10
ENDBRANCH   8   9
BRANCH   8  17
HETATM   17  O   UNL     1     -37.971 -50.140  10.493  1.00  0.00    -0.392 OA
HETATM   18  H   UNL     1     -37.367 -50.794  10.884  1.00  0.00     0.210 HD
ENDBRANCH   8  17
ENDBRANCH   7   8
ENDBRANCH   1   7
BRANCH   4  19
HETATM   19  C   UNL     1     -42.705 -53.539  12.833  1.00  0.00     0.051 A 
HETATM   20  C   UNL     1     -44.044 -53.531  12.442  1.00  0.00     0.032 A 
HETATM   21  C   UNL     1     -44.997 -54.205  13.199  1.00  0.00     0.019 A 
HETATM   22  C   UNL     1     -44.576 -54.886  14.326  1.00  0.00     0.088 A 
HETATM   23  N   UNL     1     -43.286 -54.953  14.723  1.00  0.00    -0.373 N 
HETATM   24  C   UNL     1     -42.383 -54.285  13.963  1.00  0.00     0.117 A 
ATOM     25  HN  UNL     1     -43.006 -55.480  15.550  1.00  0.00     0.164 HD
ENDBRANCH   4  19
TORSDOF 6
ENDMDL
MODEL 9
REMARK VINA RESULT:      -5.6      1.903      2.258
REMARK  6 active torsions:
REMARK  status: ('A' for Active; 'I' for Inactive)
REMARK    1  A    between atoms: N_5  and  C_6 
REMARK    2  A    between atoms: C_6  and  C_7 
REMARK    3  A    between atoms: C_7  and  O_8 
REMARK    4  A    between atoms: C_7  and  C_9 
REMARK    5  A    between atoms: C_9  and  N_10 
REMARK       I    between atoms: N_10  and  C_11 
REMARK       I    between atoms: C_11  and  N_13 
REMARK    6  A    between atoms: N_13  and  C_14 
ROOT
HETATM    1  N   UNL     1     -42.750 -52.021  12.437  1.00  0.00    -0.340 N 
HETATM    2  C   UNL     1     -42.095 -50.820  12.405  1.00  0.00     0.320 C 
HETATM    3  O   UNL     1     -40.904 -50.744  12.694  1.00  0.00    -0.247 OA
HETATM    4  N   UNL     1     -42.894 -49.782  11.994  1.00  0.00    -0.308 N 
HETATM    5  H   UNL     1     -43.760 -52.052  12.483  1.00  0.00     0.164 HD
HETATM    6  H   UNL     1     -43.890 -49.925  12.052  1.00  0.00     0.170 HD
ENDROOT
BRANCH   1   7
HETATM    7  C   UNL     1     -42.044 -53.200  12.903  1.00  0.00     0.157 C 
BRANCH   7   8
HETATM    8  C   UNL     1     -42.470 -53.584  14.320  1.00  0.00     0.164 C 
BRANCH   8   9
HETATM    9  C   UNL     1     -43.993 -53.865  14.330  1.00  0.00     0.305 C 
BRANCH   9  10
HETATM   10  N   UNL     1     -44.680 -53.596  15.608  1.00  0.00     0.091 N 
HETATM   11  C   UNL     1     -46.096 -54.006  15.553  1.00  0.00     0.273 C 
HETATM   12  C   UNL     1     -46.974 -53.109  14.671  1.00  0.00     0.034 C 
HETATM   13  C   UNL     1     -46.858 -51.623  15.042  1.00  0.00    -0.015 C 
HETATM   14  C   UNL     1     -47.643 -51.306  16.318  1.00  0.00     0.010 C 
HETATM   15  C   UNL     1     -45.384 -51.218  15.175  1.00  0.00     0.034 C 
HETATM   16  C   UNL     1     -44.586 -52.194  16.048  1.00  0.00     0.273 C 
ENDBRANCH   9  10
ENDBRANCH   8   9
BRANCH   8  17
HETATM   17  O   UNL     1     -41.698 -54.723  14.726  1.00  0.00    -0.392 OA
HETATM   18  H   UNL     1     -41.066 -54.912  14.011  1.00  0.00     0.210 HD
ENDBRANCH   8  17
ENDBRANCH   7   8
ENDBRANCH   1   7
BRANCH   4  19
HETATM   19  C   UNL     1     -42.431 -48.477  11.716  1.00  0.00     0.051 A 
HETATM   20  C   UNL     1     -42.599 -47.404  12.590  1.00  0.00     0.032 A 
HETATM   21  C   UNL     1     -42.153 -46.135  12.234  1.00  0.00     0.019 A 
HETATM   22  C   UNL     1     -41.529 -45.981  11.009  1.00  0.00     0.088 A 
HETATM   23  N   UNL     1     -41.309 -46.998  10.147  1.00  0.00    -0.373 N 
HETATM   24  C   UNL     1     -41.758 -48.220  10.524  1.00  0.00     0.117 A 
ATOM     25  HN  UNL     1     -40.830 -46.853   9.259  1.00  0.00     0.164 HD
ENDBRANCH   4  19
TORSDOF 6
ENDMDL
