MODEL 1
REMARK VINA RESULT:      -5.6      0.000      0.000
REMARK  2 active torsions:
REMARK  status: ('A' for Active; 'I' for Inactive)
REMARK    1  A    between atoms: C_2  and  C_4 
REMARK    2  A    between atoms: C_8  and  C_11 
ROOT
HETATM    1  C   UNL     1     -42.939 -47.913  10.341  1.00  0.00     0.100 A 
HETATM    2  N   UNL     1     -41.912 -48.238   9.548  1.00  0.00    -0.287 N 
ATOM      3  HN  UNL     1     -41.714 -47.941   8.592  1.00  0.00     0.188 HD
HETATM    4  N   UNL     1     -41.209 -49.058  10.344  1.00  0.00    -0.285 N 
HETATM    5  C   UNL     1     -41.808 -49.210  11.564  1.00  0.00     0.128 A 
HETATM    6  N   UNL     1     -42.896 -48.469  11.596  1.00  0.00    -0.331 N 
ATOM      7  HN  UNL     1     -43.551 -48.339  12.367  1.00  0.00     0.168 HD
HETATM    8  H   UNL     1     -40.363 -49.508  10.005  1.00  0.00     0.188 HD
ENDROOT
BRANCH   5   9
HETATM    9  C   UNL     1     -41.261 -50.112  12.626  1.00  0.00     0.218 C 
HETATM   10  C   UNL     1     -40.492 -51.336  12.077  1.00  0.00     0.309 C 
HETATM   11  N   UNL     1     -41.379 -52.297  11.377  1.00  0.00     0.088 N 
HETATM   12  C   UNL     1     -42.455 -52.693  12.311  1.00  0.00     0.295 C 
HETATM   13  H   UNL     1     -40.835 -53.131  11.143  1.00  0.00     0.316 HD
HETATM   14  C   UNL     1     -43.212 -51.487  12.887  1.00  0.00     0.198 C 
HETATM   15  O   UNL     1     -42.331 -50.533  13.497  1.00  0.00    -0.375 OA
ENDBRANCH   5   9
BRANCH   1  16
HETATM   16  C   UNL     1     -44.060 -47.033   9.893  1.00  0.00     0.047 C 
HETATM   17  C   UNL     1     -43.626 -46.132   8.736  1.00  0.00     0.017 C 
HETATM   18  C   UNL     1     -45.288 -47.854   9.504  1.00  0.00     0.017 C 
ENDBRANCH   1  16
TORSDOF 2
ENDMDL
MODEL 2
REMARK VINA RESULT:      -5.5      3.451      4.140
REMARK  2 active torsions:
REMARK  status: ('A' for Active; 'I' for Inactive)
REMARK    1  A    between atoms: C_2  and  C_4 
REMARK    2  A    between atoms: C_8  and  C_11 
ROOT
HETATM    1  C   UNL     1     -44.689 -47.569   9.094  1.00  0.00     0.100 A 
HETATM    2  N   UNL     1     -43.657 -47.861   8.295  1.00  0.00    -0.287 N 
ATOM      3  HN  UNL     1     -43.617 -48.496   7.498  1.00  0.00     0.188 HD
HETATM    4  N   UNL     1     -42.689 -47.096   8.820  1.00  0.00    -0.285 N 
HETATM    5  C   UNL     1     -43.139 -46.380   9.895  1.00  0.00     0.128 A 
HETATM    6  N   UNL     1     -44.417 -46.644  10.072  1.00  0.00    -0.331 N 
ATOM      7  HN  UNL     1     -45.053 -46.254  10.768  1.00  0.00     0.168 HD
HETATM    8  H   UNL     1     -41.746 -47.122   8.440  1.00  0.00     0.188 HD
ENDROOT
BRANCH   5   9
HETATM    9  C   UNL     1     -42.250 -45.485  10.700  1.00  0.00     0.218 C 
HETATM   10  C   UNL     1     -40.755 -45.569  10.312  1.00  0.00     0.309 C 
HETATM   11  N   UNL     1     -40.152 -46.880  10.655  1.00  0.00     0.088 N 
HETATM   12  C   UNL     1     -40.363 -47.119  12.099  1.00  0.00     0.295 C 
HETATM   13  H   UNL     1     -39.145 -46.830  10.483  1.00  0.00     0.316 HD
HETATM   14  C   UNL     1     -41.841 -47.013  12.507  1.00  0.00     0.198 C 
HETATM   15  O   UNL     1     -42.427 -45.767  12.103  1.00  0.00    -0.375 OA
ENDBRANCH   5   9
BRANCH   1  16
HETATM   16  C   UNL     1     -46.030 -48.213   8.953  1.00  0.00     0.047 C 
HETATM   17  C   UNL     1     -47.155 -47.198   9.166  1.00  0.00     0.017 C 
HETATM   18  C   UNL     1     -46.174 -48.897   7.594  1.00  0.00     0.017 C 
ENDBRANCH   1  16
TORSDOF 2
ENDMDL
MODEL 3
REMARK VINA RESULT:      -5.5      3.221      4.503
REMARK  2 active torsions:
REMARK  status: ('A' for Active; 'I' for Inactive)
REMARK    1  A    between atoms: C_2  and  C_4 
REMARK    2  A    between atoms: C_8  and  C_11 
ROOT
HETATM    1  C   UNL     1     -44.578 -47.671   8.888  1.00  0.00     0.100 A 
HETATM    2  N   UNL     1     -43.542 -48.181   8.211  1.00  0.00    -0.287 N 
ATOM      3  HN  UNL     1     -43.512 -48.556   7.262  1.00  0.00     0.188 HD
HETATM    4  N   UNL     1     -42.554 -48.070   9.111  1.00  0.00    -0.285 N 
HETATM    5  C   UNL     1     -42.998 -47.514  10.280  1.00  0.00     0.128 A 
HETATM    6  N   UNL     1     -44.277 -47.226  10.151  1.00  0.00    -0.331 N 
ATOM      7  HN  UNL     1     -44.895 -46.780  10.828  1.00  0.00     0.168 HD
HETATM    8  H   UNL     1     -41.621 -48.412   8.900  1.00  0.00     0.188 HD
ENDROOT
BRANCH   5   9
HETATM    9  C   UNL     1     -42.112 -47.323  11.471  1.00  0.00     0.218 C 
HETATM   10  C   UNL     1     -42.691 -46.363  12.537  1.00  0.00     0.309 C 
HETATM   11  N   UNL     1     -42.761 -44.960  12.060  1.00  0.00     0.088 N 
HETATM   12  C   UNL     1     -41.407 -44.555  11.627  1.00  0.00     0.295 C 
HETATM   13  H   UNL     1     -43.039 -44.364  12.844  1.00  0.00     0.316 HD
HETATM   14  C   UNL     1     -40.806 -45.513  10.587  1.00  0.00     0.198 C 
HETATM   15  O   UNL     1     -40.812 -46.875  11.037  1.00  0.00    -0.375 OA
ENDBRANCH   5   9
BRANCH   1  16
HETATM   16  C   UNL     1     -45.960 -47.608   8.325  1.00  0.00     0.047 C 
HETATM   17  C   UNL     1     -46.429 -48.987   7.859  1.00  0.00     0.017 C 
HETATM   18  C   UNL     1     -46.943 -47.020   9.337  1.00  0.00     0.017 C 
ENDBRANCH   1  16
TORSDOF 2
ENDMDL
MODEL 4
REMARK VINA RESULT:      -5.4      3.642      5.430
REMARK  2 active torsions:
REMARK  status: ('A' for Active; 'I' for Inactive)
REMARK    1  A    between atoms: C_2  and  C_4 
REMARK    2  A    between atoms: C_8  and  C_11 
ROOT
HETATM    1  C   UNL     1     -41.663 -52.903  12.612  1.00  0.00     0.100 A 
HETATM    2  N   UNL     1     -41.529 -52.649  11.305  1.00  0.00    -0.287 N 
ATOM      3  HN  UNL     1     -41.874 -53.180  10.505  1.00  0.00     0.188 HD
HETATM    4  N   UNL     1     -40.822 -51.510  11.326  1.00  0.00    -0.285 N 
HETATM    5  C   UNL     1     -40.548 -51.111  12.605  1.00  0.00     0.128 A 
HETATM    6  N   UNL     1     -41.097 -51.967  13.442  1.00  0.00    -0.331 N 
ATOM      7  HN  UNL     1     -41.102 -51.942  14.461  1.00  0.00     0.168 HD
HETATM    8  H   UNL     1     -40.525 -51.069  10.460  1.00  0.00     0.188 HD
ENDROOT
BRANCH   5   9
HETATM    9  C   UNL     1     -39.727 -49.898  12.916  1.00  0.00     0.218 C 
HETATM   10  C   UNL     1     -39.352 -49.057  11.673  1.00  0.00     0.309 C 
HETATM   11  N   UNL     1     -38.408 -49.763  10.773  1.00  0.00     0.088 N 
HETATM   12  C   UNL     1     -37.218 -50.143  11.564  1.00  0.00     0.295 C 
HETATM   13  H   UNL     1     -38.112 -49.115  10.039  1.00  0.00     0.316 HD
HETATM   14  C   UNL     1     -37.575 -50.957  12.817  1.00  0.00     0.198 C 
HETATM   15  O   UNL     1     -38.543 -50.291  13.639  1.00  0.00    -0.375 OA
ENDBRANCH   5   9
BRANCH   1  16
HETATM   16  C   UNL     1     -42.355 -54.120  13.132  1.00  0.00     0.047 C 
HETATM   17  C   UNL     1     -41.997 -54.374  14.597  1.00  0.00     0.017 C 
HETATM   18  C   UNL     1     -43.870 -54.012  12.961  1.00  0.00     0.017 C 
ENDBRANCH   1  16
TORSDOF 2
ENDMDL
MODEL 5
REMARK VINA RESULT:      -5.2      2.463      5.365
REMARK  2 active torsions:
REMARK  status: ('A' for Active; 'I' for Inactive)
REMARK    1  A    between atoms: C_2  and  C_4 
REMARK    2  A    between atoms: C_8  and  C_11 
ROOT
HETATM    1  C   UNL     1     -39.122 -49.413  11.832  1.00  0.00     0.100 A 
HETATM    2  N   UNL     1     -39.276 -50.045  10.662  1.00  0.00    -0.287 N 
ATOM      3  HN  UNL     1     -38.613 -50.624  10.149  1.00  0.00     0.188 HD
HETATM    4  N   UNL     1     -40.537 -49.713  10.345  1.00  0.00    -0.285 N 
HETATM    5  C   UNL     1     -41.102 -48.911  11.297  1.00  0.00     0.128 A 
HETATM    6  N   UNL     1     -40.230 -48.728  12.267  1.00  0.00    -0.331 N 
ATOM      7  HN  UNL     1     -40.349 -48.205  13.135  1.00  0.00     0.168 HD
HETATM    8  H   UNL     1     -40.948 -50.023   9.468  1.00  0.00     0.188 HD
ENDROOT
BRANCH   5   9
HETATM    9  C   UNL     1     -42.485 -48.352  11.167  1.00  0.00     0.218 C 
HETATM   10  C   UNL     1     -42.788 -47.741   9.779  1.00  0.00     0.309 C 
HETATM   11  N   UNL     1     -42.005 -46.509   9.517  1.00  0.00     0.088 N 
HETATM   12  C   UNL     1     -42.273 -45.554  10.613  1.00  0.00     0.295 C 
HETATM   13  H   UNL     1     -42.335 -46.094   8.642  1.00  0.00     0.316 HD
HETATM   14  C   UNL     1     -42.001 -46.153  12.001  1.00  0.00     0.198 C 
HETATM   15  O   UNL     1     -42.711 -47.382  12.210  1.00  0.00    -0.375 OA
ENDBRANCH   5   9
BRANCH   1  16
HETATM   16  C   UNL     1     -37.840 -49.430  12.598  1.00  0.00     0.047 C 
HETATM   17  C   UNL     1     -37.954 -48.609  13.883  1.00  0.00     0.017 C 
HETATM   18  C   UNL     1     -37.401 -50.860  12.911  1.00  0.00     0.017 C 
ENDBRANCH   1  16
TORSDOF 2
ENDMDL
MODEL 6
REMARK VINA RESULT:      -5.1      4.480      5.387
REMARK  2 active torsions:
REMARK  status: ('A' for Active; 'I' for Inactive)
REMARK    1  A    between atoms: C_2  and  C_4 
REMARK    2  A    between atoms: C_8  and  C_11 
ROOT
HETATM    1  C   UNL     1     -44.568 -52.826  13.617  1.00  0.00     0.100 A 
HETATM    2  N   UNL     1     -44.585 -52.665  12.289  1.00  0.00    -0.287 N 
ATOM      3  HN  UNL     1     -45.340 -52.333  11.688  1.00  0.00     0.188 HD
HETATM    4  N   UNL     1     -43.346 -53.056  11.956  1.00  0.00    -0.285 N 
HETATM    5  C   UNL     1     -42.626 -53.436  13.055  1.00  0.00     0.128 A 
HETATM    6  N   UNL     1     -43.373 -53.272  14.127  1.00  0.00    -0.331 N 
ATOM      7  HN  UNL     1     -43.125 -53.437  15.103  1.00  0.00     0.168 HD
HETATM    8  H   UNL     1     -43.054 -53.078  10.983  1.00  0.00     0.188 HD
ENDROOT
BRANCH   5   9
HETATM    9  C   UNL     1     -41.228 -53.964  12.963  1.00  0.00     0.218 C 
HETATM   10  C   UNL     1     -40.552 -54.196  14.335  1.00  0.00     0.309 C 
HETATM   11  N   UNL     1     -40.284 -52.929  15.058  1.00  0.00     0.088 N 
HETATM   12  C   UNL     1     -39.470 -52.063  14.178  1.00  0.00     0.295 C 
HETATM   13  H   UNL     1     -39.736 -53.142  15.895  1.00  0.00     0.316 HD
HETATM   14  C   UNL     1     -40.115 -51.843  12.801  1.00  0.00     0.198 C 
HETATM   15  O   UNL     1     -40.433 -53.080  12.148  1.00  0.00    -0.375 OA
ENDBRANCH   5   9
BRANCH   1  16
HETATM   16  C   UNL     1     -45.759 -52.564  14.480  1.00  0.00     0.047 C 
HETATM   17  C   UNL     1     -46.640 -51.465  13.884  1.00  0.00     0.017 C 
HETATM   18  C   UNL     1     -46.569 -53.840  14.706  1.00  0.00     0.017 C 
ENDBRANCH   1  16
TORSDOF 2
ENDMDL
MODEL 7
REMARK VINA RESULT:      -5.0      2.526      5.523
REMARK  2 active torsions:
REMARK  status: ('A' for Active; 'I' for Inactive)
REMARK    1  A    between atoms: C_2  and  C_4 
REMARK    2  A    between atoms: C_8  and  C_11 
ROOT
HETATM    1  C   UNL     1     -41.305 -53.091  12.722  1.00  0.00     0.100 A 
HETATM    2  N   UNL     1     -40.856 -53.035  11.463  1.00  0.00    -0.287 N 
ATOM      3  HN  UNL     1     -40.470 -53.779  10.881  1.00  0.00     0.188 HD
HETATM    4  N   UNL     1     -41.048 -51.741  11.168  1.00  0.00    -0.285 N 
HETATM    5  C   UNL     1     -41.591 -51.060  12.223  1.00  0.00     0.128 A 
HETATM    6  N   UNL     1     -41.789 -51.904  13.214  1.00  0.00    -0.331 N 
ATOM      7  HN  UNL     1     -42.203 -51.721  14.128  1.00  0.00     0.168 HD
HETATM    8  H   UNL     1     -40.767 -51.369  10.265  1.00  0.00     0.188 HD
ENDROOT
BRANCH   5   9
HETATM    9  C   UNL     1     -41.861 -49.588  12.182  1.00  0.00     0.218 C 
HETATM   10  C   UNL     1     -41.157 -48.852  11.018  1.00  0.00     0.309 C 
HETATM   11  N   UNL     1     -39.682 -48.822  11.174  1.00  0.00     0.088 N 
HETATM   12  C   UNL     1     -39.372 -48.212  12.485  1.00  0.00     0.295 C 
HETATM   13  H   UNL     1     -39.290 -48.226  10.441  1.00  0.00     0.316 HD
HETATM   14  C   UNL     1     -40.085 -48.915  13.650  1.00  0.00     0.198 C 
HETATM   15  O   UNL     1     -41.502 -48.998  13.448  1.00  0.00    -0.375 OA
ENDBRANCH   5   9
BRANCH   1  16
HETATM   16  C   UNL     1     -41.264 -54.340  13.541  1.00  0.00     0.047 C 
HETATM   17  C   UNL     1     -40.017 -54.379  14.426  1.00  0.00     0.017 C 
HETATM   18  C   UNL     1     -42.528 -54.488  14.387  1.00  0.00     0.017 C 
ENDBRANCH   1  16
TORSDOF 2
ENDMDL
MODEL 8
REMARK VINA RESULT:      -5.0      2.295      3.024
REMARK  2 active torsions:
REMARK  status: ('A' for Active; 'I' for Inactive)
REMARK    1  A    between atoms: C_2  and  C_4 
REMARK    2  A    between atoms: C_8  and  C_11 
ROOT
HETATM    1  C   UNL     1     -41.973 -48.564  11.074  1.00  0.00     0.100 A 
HETATM    2  N   UNL     1     -41.312 -48.850   9.946  1.00  0.00    -0.287 N 
ATOM      3  HN  UNL     1     -41.409 -48.438   9.018  1.00  0.00     0.188 HD
HETATM    4  N   UNL     1     -40.487 -49.823  10.361  1.00  0.00    -0.285 N 
HETATM    5  C   UNL     1     -40.661 -50.100  11.689  1.00  0.00     0.128 A 
HETATM    6  N   UNL     1     -41.583 -49.292  12.171  1.00  0.00    -0.331 N 
ATOM      7  HN  UNL     1     -41.925 -49.223  13.129  1.00  0.00     0.168 HD
HETATM    8  H   UNL     1     -39.860 -50.283   9.706  1.00  0.00     0.188 HD
ENDROOT
BRANCH   5   9
HETATM    9  C   UNL     1     -39.903 -51.180  12.396  1.00  0.00     0.218 C 
HETATM   10  C   UNL     1     -40.070 -51.161  13.933  1.00  0.00     0.309 C 
HETATM   11  N   UNL     1     -39.439 -49.974  14.559  1.00  0.00     0.088 N 
HETATM   12  C   UNL     1     -38.017 -49.944  14.156  1.00  0.00     0.295 C 
HETATM   13  H   UNL     1     -39.482 -50.081  15.576  1.00  0.00     0.316 HD
HETATM   14  C   UNL     1     -37.832 -49.988  12.632  1.00  0.00     0.198 C 
HETATM   15  O   UNL     1     -38.509 -51.103  12.035  1.00  0.00    -0.375 OA
ENDBRANCH   5   9
BRANCH   1  16
HETATM   16  C   UNL     1     -43.067 -47.549  11.135  1.00  0.00     0.047 C 
HETATM   17  C   UNL     1     -42.526 -46.179  11.548  1.00  0.00     0.017 C 
HETATM   18  C   UNL     1     -43.810 -47.454   9.803  1.00  0.00     0.017 C 
ENDBRANCH   1  16
TORSDOF 2
ENDMDL
MODEL 9
REMARK VINA RESULT:      -4.9      1.929      2.678
REMARK  2 active torsions:
REMARK  status: ('A' for Active; 'I' for Inactive)
REMARK    1  A    between atoms: C_2  and  C_4 
REMARK    2  A    between atoms: C_8  and  C_11 
ROOT
HETATM    1  C   UNL     1     -42.041 -49.031  11.275  1.00  0.00     0.100 A 
HETATM    2  N   UNL     1     -40.896 -49.041  10.583  1.00  0.00    -0.287 N 
ATOM      3  HN  UNL     1     -40.489 -48.313   9.995  1.00  0.00     0.188 HD
HETATM    4  N   UNL     1     -40.423 -50.264  10.867  1.00  0.00    -0.285 N 
HETATM    5  C   UNL     1     -41.266 -50.949  11.699  1.00  0.00     0.128 A 
HETATM    6  N   UNL     1     -42.290 -50.174  11.994  1.00  0.00    -0.331 N 
ATOM      7  HN  UNL     1     -43.078 -50.374  12.609  1.00  0.00     0.168 HD
HETATM    8  H   UNL     1     -39.556 -50.593  10.452  1.00  0.00     0.188 HD
ENDROOT
BRANCH   5   9
HETATM    9  C   UNL     1     -41.006 -52.357  12.133  1.00  0.00     0.218 C 
HETATM   10  C   UNL     1     -42.022 -52.894  13.167  1.00  0.00     0.309 C 
HETATM   11  N   UNL     1     -41.913 -52.212  14.480  1.00  0.00     0.088 N 
HETATM   12  C   UNL     1     -40.519 -52.348  14.953  1.00  0.00     0.295 C 
HETATM   13  H   UNL     1     -42.526 -52.689  15.146  1.00  0.00     0.316 HD
HETATM   14  C   UNL     1     -39.493 -51.843  13.926  1.00  0.00     0.198 C 
HETATM   15  O   UNL     1     -39.660 -52.461  12.643  1.00  0.00    -0.375 OA
ENDBRANCH   5   9
BRANCH   1  16
HETATM   16  C   UNL     1     -42.989 -47.877  11.253  1.00  0.00     0.047 C 
HETATM   17  C   UNL     1     -42.879 -47.048  12.534  1.00  0.00     0.017 C 
HETATM   18  C   UNL     1     -42.763 -46.998  10.023  1.00  0.00     0.017 C 
ENDBRANCH   1  16
TORSDOF 2
ENDMDL
