MODEL 1
REMARK VINA RESULT:      -5.9      0.000      0.000
REMARK  4 active torsions:
REMARK  status: ('A' for Active; 'I' for Inactive)
REMARK    1  A    between atoms: N1_1  and  C1*_4 
REMARK    2  A    between atoms: C4*_10  and  C5*_16 
REMARK    3  A    between atoms: C3*_11  and  O3*_15 
REMARK    4  A    between atoms: C5*_16  and  O5*_17 
ROOT
ATOM      1  N1    T A   1     -41.304 -47.658  11.333  1.00  0.00    -0.282 N 
ATOM      2  C2    T A   1     -40.790 -46.491  10.778  1.00  0.00     0.331 C 
ATOM      3  N3    T A   1     -41.501 -45.962   9.736  1.00  0.00    -0.275 N 
ATOM      4  C6    T A   1     -42.618 -48.028  11.054  1.00  0.00     0.110 C 
ATOM      5  C5    T A   1     -43.403 -47.357  10.201  1.00  0.00     0.022 C 
ATOM      6  C4    T A   1     -42.826 -46.184   9.514  1.00  0.00     0.256 C 
ATOM      7  O2    T A   1     -39.788 -45.899  11.170  1.00  0.00    -0.246 OA
ATOM      8  O4    T A   1     -43.507 -45.432   8.826  1.00  0.00    -0.267 OA
ATOM      9  C5M   T A   1     -44.835 -47.676   9.926  1.00  0.00     0.056 C 
ATOM     10  H3    T A   1     -41.135 -45.105   9.351  1.00  0.00     0.173 HD
ENDROOT
BRANCH   1  11
ATOM     11  C1*   T A   1     -40.627 -48.302  12.473  1.00  0.00     0.235 C 
ATOM     12  O4*   T A   1     -41.483 -49.368  12.964  1.00  0.00    -0.356 OA
ATOM     13  C4*   T A   1     -40.843 -50.639  12.707  1.00  0.00     0.176 C 
ATOM     14  C3*   T A   1     -39.644 -50.356  11.813  1.00  0.00     0.153 C 
ATOM     15  C2*   T A   1     -39.270 -48.968  12.261  1.00  0.00     0.088 C 
BRANCH  13  16
ATOM     16  C5*   T A   1     -41.844 -51.614  12.086  1.00  0.00     0.198 C 
BRANCH  16  17
ATOM     17  O5*   T A   1     -41.227 -52.429  11.090  1.00  0.00    -0.398 OA
ATOM     18  H5*   T A   1     -41.526 -52.082  10.231  1.00  0.00     0.209 HD
ENDBRANCH  16  17
ENDBRANCH  13  16
BRANCH  14  19
ATOM     19  O3*   T A   1     -38.600 -51.302  11.999  1.00  0.00    -0.393 OA
ATOM     20  H3*   T A   1     -38.712 -52.037  11.373  1.00  0.00     0.210 HD
ENDBRANCH  14  19
ENDBRANCH   1  11
TORSDOF 4
ENDMDL
MODEL 2
REMARK VINA RESULT:      -5.5      5.125      6.700
REMARK  4 active torsions:
REMARK  status: ('A' for Active; 'I' for Inactive)
REMARK    1  A    between atoms: N1_1  and  C1*_4 
REMARK    2  A    between atoms: C4*_10  and  C5*_16 
REMARK    3  A    between atoms: C3*_11  and  O3*_15 
REMARK    4  A    between atoms: C5*_16  and  O5*_17 
ROOT
ATOM      1  N1    T A   1     -41.611 -53.361  13.818  1.00  0.00    -0.282 N 
ATOM      2  C2    T A   1     -41.805 -52.622  12.655  1.00  0.00     0.331 C 
ATOM      3  N3    T A   1     -42.959 -52.881  11.969  1.00  0.00    -0.275 N 
ATOM      4  C6    T A   1     -42.687 -54.041  14.384  1.00  0.00     0.110 C 
ATOM      5  C5    T A   1     -43.901 -54.092  13.819  1.00  0.00     0.022 C 
ATOM      6  C4    T A   1     -44.084 -53.410  12.522  1.00  0.00     0.256 C 
ATOM      7  O2    T A   1     -41.048 -51.751  12.232  1.00  0.00    -0.246 OA
ATOM      8  O4    T A   1     -45.188 -53.287  12.002  1.00  0.00    -0.267 OA
ATOM      9  C5M   T A   1     -45.097 -54.748  14.425  1.00  0.00     0.056 C 
ATOM     10  H3    T A   1     -43.104 -52.328  11.138  1.00  0.00     0.173 HD
ENDROOT
BRANCH   1  11
ATOM     11  C1*   T A   1     -40.409 -53.148  14.644  1.00  0.00     0.235 C 
ATOM     12  O4*   T A   1     -40.695 -53.620  15.988  1.00  0.00    -0.356 OA
ATOM     13  C4*   T A   1     -39.879 -54.782  16.261  1.00  0.00     0.176 C 
ATOM     14  C3*   T A   1     -39.227 -55.181  14.944  1.00  0.00     0.153 C 
ATOM     15  C2*   T A   1     -39.104 -53.843  14.265  1.00  0.00     0.088 C 
BRANCH  13  16
ATOM     16  C5*   T A   1     -40.734 -55.891  16.873  1.00  0.00     0.198 C 
BRANCH  16  17
ATOM     17  O5*   T A   1     -40.115 -57.168  16.725  1.00  0.00    -0.398 OA
ATOM     18  H5*   T A   1     -39.751 -57.190  15.822  1.00  0.00     0.209 HD
ENDBRANCH  16  17
ENDBRANCH  13  16
BRANCH  14  19
ATOM     19  O3*   T A   1     -37.975 -55.825  15.139  1.00  0.00    -0.393 OA
ATOM     20  H3*   T A   1     -37.672 -55.677  16.050  1.00  0.00     0.210 HD
ENDBRANCH  14  19
ENDBRANCH   1  11
TORSDOF 4
ENDMDL
MODEL 3
REMARK VINA RESULT:      -5.4      3.623      5.739
REMARK  4 active torsions:
REMARK  status: ('A' for Active; 'I' for Inactive)
REMARK    1  A    between atoms: N1_1  and  C1*_4 
REMARK    2  A    between atoms: C4*_10  and  C5*_16 
REMARK    3  A    between atoms: C3*_11  and  O3*_15 
REMARK    4  A    between atoms: C5*_16  and  O5*_17 
ROOT
ATOM      1  N1    T A   1     -42.318 -52.145  13.232  1.00  0.00    -0.282 N 
ATOM      2  C2    T A   1     -41.045 -52.580  12.877  1.00  0.00     0.331 C 
ATOM      3  N3    T A   1     -40.404 -51.835  11.926  1.00  0.00    -0.275 N 
ATOM      4  C6    T A   1     -42.724 -50.859  12.882  1.00  0.00     0.110 C 
ATOM      5  C5    T A   1     -41.978 -50.031  12.139  1.00  0.00     0.022 C 
ATOM      6  C4    T A   1     -40.674 -50.529  11.656  1.00  0.00     0.256 C 
ATOM      7  O2    T A   1     -40.459 -53.540  13.371  1.00  0.00    -0.246 OA
ATOM      8  O4    T A   1     -39.867 -49.799  11.091  1.00  0.00    -0.267 OA
ATOM      9  C5M   T A   1     -42.342 -48.624  11.801  1.00  0.00     0.056 C 
ATOM     10  H3    T A   1     -39.473 -52.143  11.688  1.00  0.00     0.173 HD
ENDROOT
BRANCH   1  11
ATOM     11  C1*   T A   1     -43.091 -52.864  14.261  1.00  0.00     0.235 C 
ATOM     12  O4*   T A   1     -44.326 -52.135  14.490  1.00  0.00    -0.356 OA
ATOM     13  C4*   T A   1     -45.437 -52.936  14.027  1.00  0.00     0.176 C 
ATOM     14  C3*   T A   1     -44.843 -54.116  13.271  1.00  0.00     0.153 C 
ATOM     15  C2*   T A   1     -43.538 -54.299  13.998  1.00  0.00     0.088 C 
BRANCH  13  16
ATOM     16  C5*   T A   1     -46.380 -52.085  13.177  1.00  0.00     0.198 C 
BRANCH  16  17
ATOM     17  O5*   T A   1     -46.651 -52.706  11.921  1.00  0.00    -0.398 OA
ATOM     18  H5*   T A   1     -46.944 -51.995  11.324  1.00  0.00     0.209 HD
ENDBRANCH  16  17
ENDBRANCH  13  16
BRANCH  14  19
ATOM     19  O3*   T A   1     -45.678 -55.265  13.327  1.00  0.00    -0.393 OA
ATOM     20  H3*   T A   1     -45.330 -55.888  13.987  1.00  0.00     0.210 HD
ENDBRANCH  14  19
ENDBRANCH   1  11
TORSDOF 4
ENDMDL
MODEL 4
REMARK VINA RESULT:      -5.2      4.163      6.775
REMARK  4 active torsions:
REMARK  status: ('A' for Active; 'I' for Inactive)
REMARK    1  A    between atoms: N1_1  and  C1*_4 
REMARK    2  A    between atoms: C4*_10  and  C5*_16 
REMARK    3  A    between atoms: C3*_11  and  O3*_15 
REMARK    4  A    between atoms: C5*_16  and  O5*_17 
ROOT
ATOM      1  N1    T A   1     -41.152 -53.541  14.102  1.00  0.00    -0.282 N 
ATOM      2  C2    T A   1     -41.282 -54.536  15.066  1.00  0.00     0.331 C 
ATOM      3  N3    T A   1     -42.562 -54.928  15.349  1.00  0.00    -0.275 N 
ATOM      4  C6    T A   1     -42.232 -53.247  13.272  1.00  0.00     0.110 C 
ATOM      5  C5    T A   1     -43.435 -53.821  13.403  1.00  0.00     0.022 C 
ATOM      6  C4    T A   1     -43.617 -54.792  14.501  1.00  0.00     0.256 C 
ATOM      7  O2    T A   1     -40.351 -55.096  15.639  1.00  0.00    -0.246 OA
ATOM      8  O4    T A   1     -44.636 -55.465  14.613  1.00  0.00    -0.267 OA
ATOM      9  C5M   T A   1     -44.596 -53.588  12.495  1.00  0.00     0.056 C 
ATOM     10  H3    T A   1     -42.648 -55.665  16.033  1.00  0.00     0.173 HD
ENDROOT
BRANCH   1  11
ATOM     11  C1*   T A   1     -39.817 -53.056  13.706  1.00  0.00     0.235 C 
ATOM     12  O4*   T A   1     -39.924 -52.468  12.383  1.00  0.00    -0.356 OA
ATOM     13  C4*   T A   1     -39.693 -51.044  12.481  1.00  0.00     0.176 C 
ATOM     14  C3*   T A   1     -39.669 -50.704  13.965  1.00  0.00     0.153 C 
ATOM     15  C2*   T A   1     -39.129 -51.984  14.547  1.00  0.00     0.088 C 
BRANCH  13  16
ATOM     16  C5*   T A   1     -40.768 -50.283  11.705  1.00  0.00     0.198 C 
BRANCH  16  17
ATOM     17  O5*   T A   1     -40.383 -50.082  10.345  1.00  0.00    -0.398 OA
ATOM     18  H5*   T A   1     -39.895 -50.882  10.080  1.00  0.00     0.209 HD
ENDBRANCH  16  17
ENDBRANCH  13  16
BRANCH  14  19
ATOM     19  O3*   T A   1     -38.851 -49.577  14.244  1.00  0.00    -0.393 OA
ATOM     20  H3*   T A   1     -38.215 -49.449  13.520  1.00  0.00     0.210 HD
ENDBRANCH  14  19
ENDBRANCH   1  11
TORSDOF 4
ENDMDL
MODEL 5
REMARK VINA RESULT:      -5.2      4.372      6.707
REMARK  4 active torsions:
REMARK  status: ('A' for Active; 'I' for Inactive)
REMARK    1  A    between atoms: N1_1  and  C1*_4 
REMARK    2  A    between atoms: C4*_10  and  C5*_16 
REMARK    3  A    between atoms: C3*_11  and  O3*_15 
REMARK    4  A    between atoms: C5*_16  and  O5*_17 
ROOT
ATOM      1  N1    T A   1     -43.339 -53.709  13.755  1.00  0.00    -0.282 N 
ATOM      2  C2    T A   1     -43.930 -54.559  14.684  1.00  0.00     0.331 C 
ATOM      3  N3    T A   1     -45.163 -54.180  15.139  1.00  0.00    -0.275 N 
ATOM      4  C6    T A   1     -44.119 -52.753  13.108  1.00  0.00     0.110 C 
ATOM      5  C5    T A   1     -45.412 -52.546  13.394  1.00  0.00     0.022 C 
ATOM      6  C4    T A   1     -46.017 -53.363  14.465  1.00  0.00     0.256 C 
ATOM      7  O2    T A   1     -43.449 -55.614  15.088  1.00  0.00    -0.246 OA
ATOM      8  O4    T A   1     -47.221 -53.340  14.699  1.00  0.00    -0.267 OA
ATOM      9  C5M   T A   1     -46.301 -51.584  12.679  1.00  0.00     0.056 C 
ATOM     10  H3    T A   1     -45.596 -54.810  15.797  1.00  0.00     0.173 HD
ENDROOT
BRANCH   1  11
ATOM     11  C1*   T A   1     -42.018 -54.031  13.185  1.00  0.00     0.235 C 
ATOM     12  O4*   T A   1     -41.791 -53.157  12.047  1.00  0.00    -0.356 OA
ATOM     13  C4*   T A   1     -40.710 -52.250  12.359  1.00  0.00     0.176 C 
ATOM     14  C3*   T A   1     -40.407 -52.421  13.842  1.00  0.00     0.153 C 
ATOM     15  C2*   T A   1     -40.769 -53.868  14.047  1.00  0.00     0.088 C 
BRANCH  13  16
ATOM     16  C5*   T A   1     -41.098 -50.820  11.982  1.00  0.00     0.198 C 
BRANCH  16  17
ATOM     17  O5*   T A   1     -40.645 -50.487  10.670  1.00  0.00    -0.398 OA
ATOM     18  H5*   T A   1     -40.174 -49.639  10.753  1.00  0.00     0.209 HD
ENDBRANCH  16  17
ENDBRANCH  13  16
BRANCH  14  19
ATOM     19  O3*   T A   1     -39.048 -52.137  14.148  1.00  0.00    -0.393 OA
ATOM     20  H3*   T A   1     -38.909 -52.211  15.107  1.00  0.00     0.210 HD
ENDBRANCH  14  19
ENDBRANCH   1  11
TORSDOF 4
ENDMDL
MODEL 6
REMARK VINA RESULT:      -5.1      5.737      7.278
REMARK  4 active torsions:
REMARK  status: ('A' for Active; 'I' for Inactive)
REMARK    1  A    between atoms: N1_1  and  C1*_4 
REMARK    2  A    between atoms: C4*_10  and  C5*_16 
REMARK    3  A    between atoms: C3*_11  and  O3*_15 
REMARK    4  A    between atoms: C5*_16  and  O5*_17 
ROOT
ATOM      1  N1    T A   1     -44.203 -53.796  15.044  1.00  0.00    -0.282 N 
ATOM      2  C2    T A   1     -44.839 -53.824  16.281  1.00  0.00     0.331 C 
ATOM      3  N3    T A   1     -45.776 -52.851  16.493  1.00  0.00    -0.275 N 
ATOM      4  C6    T A   1     -44.753 -53.043  14.009  1.00  0.00     0.110 C 
ATOM      5  C5    T A   1     -45.833 -52.265  14.162  1.00  0.00     0.022 C 
ATOM      6  C4    T A   1     -46.444 -52.195  15.505  1.00  0.00     0.256 C 
ATOM      7  O2    T A   1     -44.645 -54.661  17.160  1.00  0.00    -0.246 OA
ATOM      8  O4    T A   1     -47.509 -51.622  15.707  1.00  0.00    -0.267 OA
ATOM      9  C5M   T A   1     -46.496 -51.498  13.067  1.00  0.00     0.056 C 
ATOM     10  H3    T A   1     -46.248 -52.889  17.383  1.00  0.00     0.173 HD
ENDROOT
BRANCH   1  11
ATOM     11  C1*   T A   1     -43.188 -54.810  14.704  1.00  0.00     0.235 C 
ATOM     12  O4*   T A   1     -42.724 -54.549  13.353  1.00  0.00    -0.356 OA
ATOM     13  C4*   T A   1     -41.342 -54.129  13.404  1.00  0.00     0.176 C 
ATOM     14  C3*   T A   1     -41.005 -53.901  14.871  1.00  0.00     0.153 C 
ATOM     15  C2*   T A   1     -41.912 -54.903  15.536  1.00  0.00     0.088 C 
BRANCH  13  16
ATOM     16  C5*   T A   1     -41.138 -52.887  12.536  1.00  0.00     0.198 C 
BRANCH  16  17
ATOM     17  O5*   T A   1     -40.620 -53.228  11.252  1.00  0.00    -0.398 OA
ATOM     18  H5*   T A   1     -39.655 -53.302  11.359  1.00  0.00     0.209 HD
ENDBRANCH  16  17
ENDBRANCH  13  16
BRANCH  14  19
ATOM     19  O3*   T A   1     -39.630 -54.124  15.148  1.00  0.00    -0.393 OA
ATOM     20  H3*   T A   1     -39.316 -54.890  14.638  1.00  0.00     0.210 HD
ENDBRANCH  14  19
ENDBRANCH   1  11
TORSDOF 4
ENDMDL
MODEL 7
REMARK VINA RESULT:      -5.1      4.341      5.542
REMARK  4 active torsions:
REMARK  status: ('A' for Active; 'I' for Inactive)
REMARK    1  A    between atoms: N1_1  and  C1*_4 
REMARK    2  A    between atoms: C4*_10  and  C5*_16 
REMARK    3  A    between atoms: C3*_11  and  O3*_15 
REMARK    4  A    between atoms: C5*_16  and  O5*_17 
ROOT
ATOM      1  N1    T A   1     -42.807 -51.906  13.837  1.00  0.00    -0.282 N 
ATOM      2  C2    T A   1     -43.617 -50.926  13.272  1.00  0.00     0.331 C 
ATOM      3  N3    T A   1     -44.709 -51.379  12.583  1.00  0.00    -0.275 N 
ATOM      4  C6    T A   1     -43.293 -53.205  13.966  1.00  0.00     0.110 C 
ATOM      5  C5    T A   1     -44.487 -53.591  13.495  1.00  0.00     0.022 C 
ATOM      6  C4    T A   1     -45.303 -52.586  12.786  1.00  0.00     0.256 C 
ATOM      7  O2    T A   1     -43.442 -49.714  13.374  1.00  0.00    -0.246 OA
ATOM      8  O4    T A   1     -46.459 -52.810  12.444  1.00  0.00    -0.267 OA
ATOM      9  C5M   T A   1     -45.076 -54.951  13.673  1.00  0.00     0.056 C 
ATOM     10  H3    T A   1     -45.303 -50.663  12.193  1.00  0.00     0.173 HD
ENDROOT
BRANCH   1  11
ATOM     11  C1*   T A   1     -41.614 -51.528  14.617  1.00  0.00     0.235 C 
ATOM     12  O4*   T A   1     -41.079 -52.729  15.234  1.00  0.00    -0.356 OA
ATOM     13  C4*   T A   1     -39.794 -53.029  14.642  1.00  0.00     0.176 C 
ATOM     14  C3*   T A   1     -39.633 -52.100  13.446  1.00  0.00     0.153 C 
ATOM     15  C2*   T A   1     -40.420 -50.900  13.903  1.00  0.00     0.088 C 
BRANCH  13  16
ATOM     16  C5*   T A   1     -39.719 -54.510  14.271  1.00  0.00     0.198 C 
BRANCH  16  17
ATOM     17  O5*   T A   1     -38.638 -54.768  13.376  1.00  0.00    -0.398 OA
ATOM     18  H5*   T A   1     -37.900 -54.206  13.672  1.00  0.00     0.209 HD
ENDBRANCH  16  17
ENDBRANCH  13  16
BRANCH  14  19
ATOM     19  O3*   T A   1     -38.270 -51.803  13.176  1.00  0.00    -0.393 OA
ATOM     20  H3*   T A   1     -38.049 -52.082  12.272  1.00  0.00     0.210 HD
ENDBRANCH  14  19
ENDBRANCH   1  11
TORSDOF 4
ENDMDL
MODEL 8
REMARK VINA RESULT:      -5.0      5.400      7.527
REMARK  4 active torsions:
REMARK  status: ('A' for Active; 'I' for Inactive)
REMARK    1  A    between atoms: N1_1  and  C1*_4 
REMARK    2  A    between atoms: C4*_10  and  C5*_16 
REMARK    3  A    between atoms: C3*_11  and  O3*_15 
REMARK    4  A    between atoms: C5*_16  and  O5*_17 
ROOT
ATOM      1  N1    T A   1     -43.249 -52.877  14.962  1.00  0.00    -0.282 N 
ATOM      2  C2    T A   1     -44.622 -52.670  14.878  1.00  0.00     0.331 C 
ATOM      3  N3    T A   1     -45.398 -53.496  15.644  1.00  0.00    -0.275 N 
ATOM      4  C6    T A   1     -42.734 -53.633  16.013  1.00  0.00     0.110 C 
ATOM      5  C5    T A   1     -43.505 -54.252  16.917  1.00  0.00     0.022 C 
ATOM      6  C4    T A   1     -44.970 -54.137  16.765  1.00  0.00     0.256 C 
ATOM      7  O2    T A   1     -45.169 -51.798  14.207  1.00  0.00    -0.246 OA
ATOM      8  O4    T A   1     -45.747 -54.552  17.618  1.00  0.00    -0.267 OA
ATOM      9  C5M   T A   1     -42.996 -55.012  18.097  1.00  0.00     0.056 C 
ATOM     10  H3    T A   1     -46.391 -53.327  15.595  1.00  0.00     0.173 HD
ENDROOT
BRANCH   1  11
ATOM     11  C1*   T A   1     -42.319 -52.031  14.192  1.00  0.00     0.235 C 
ATOM     12  O4*   T A   1     -40.979 -52.243  14.712  1.00  0.00    -0.356 OA
ATOM     13  C4*   T A   1     -40.183 -52.904  13.702  1.00  0.00     0.176 C 
ATOM     14  C3*   T A   1     -41.139 -53.323  12.593  1.00  0.00     0.153 C 
ATOM     15  C2*   T A   1     -42.183 -52.243  12.687  1.00  0.00     0.088 C 
BRANCH  13  16
ATOM     16  C5*   T A   1     -39.421 -54.077  14.319  1.00  0.00     0.198 C 
BRANCH  16  17
ATOM     17  O5*   T A   1     -38.799 -54.879  13.315  1.00  0.00    -0.398 OA
ATOM     18  H5*   T A   1     -39.106 -55.790  13.468  1.00  0.00     0.209 HD
ENDBRANCH  16  17
ENDBRANCH  13  16
BRANCH  14  19
ATOM     19  O3*   T A   1     -40.501 -53.373  11.325  1.00  0.00    -0.393 OA
ATOM     20  H3*   T A   1     -40.469 -54.292  11.012  1.00  0.00     0.210 HD
ENDBRANCH  14  19
ENDBRANCH   1  11
TORSDOF 4
ENDMDL
MODEL 9
REMARK VINA RESULT:      -4.9      5.819      8.205
REMARK  4 active torsions:
REMARK  status: ('A' for Active; 'I' for Inactive)
REMARK    1  A    between atoms: N1_1  and  C1*_4 
REMARK    2  A    between atoms: C4*_10  and  C5*_16 
REMARK    3  A    between atoms: C3*_11  and  O3*_15 
REMARK    4  A    between atoms: C5*_16  and  O5*_17 
ROOT
ATOM      1  N1    T A   1     -44.163 -53.875  14.086  1.00  0.00    -0.282 N 
ATOM      2  C2    T A   1     -44.097 -53.442  12.765  1.00  0.00     0.331 C 
ATOM      3  N3    T A   1     -42.861 -53.054  12.326  1.00  0.00    -0.275 N 
ATOM      4  C6    T A   1     -42.988 -54.203  14.758  1.00  0.00     0.110 C 
ATOM      5  C5    T A   1     -41.769 -54.045  14.225  1.00  0.00     0.022 C 
ATOM      6  C4    T A   1     -41.683 -53.472  12.866  1.00  0.00     0.256 C 
ATOM      7  O2    T A   1     -45.040 -53.416  11.978  1.00  0.00    -0.246 OA
ATOM      8  O4    T A   1     -40.626 -53.420  12.247  1.00  0.00    -0.267 OA
ATOM      9  C5M   T A   1     -40.491 -54.448  14.881  1.00  0.00     0.056 C 
ATOM     10  H3    T A   1     -42.815 -52.761  11.362  1.00  0.00     0.173 HD
ENDROOT
BRANCH   1  11
ATOM     11  C1*   T A   1     -45.443 -54.333  14.657  1.00  0.00     0.235 C 
ATOM     12  O4*   T A   1     -45.236 -54.607  16.068  1.00  0.00    -0.356 OA
ATOM     13  C4*   T A   1     -45.982 -53.644  16.847  1.00  0.00     0.176 C 
ATOM     14  C3*   T A   1     -46.489 -52.588  15.874  1.00  0.00     0.153 C 
ATOM     15  C2*   T A   1     -46.655 -53.405  14.621  1.00  0.00     0.088 C 
BRANCH  13  16
ATOM     16  C5*   T A   1     -45.100 -53.070  17.956  1.00  0.00     0.198 C 
BRANCH  16  17
ATOM     17  O5*   T A   1     -45.158 -51.644  17.982  1.00  0.00    -0.398 OA
ATOM     18  H5*   T A   1     -44.380 -51.332  17.487  1.00  0.00     0.209 HD
ENDBRANCH  16  17
ENDBRANCH  13  16
BRANCH  14  19
ATOM     19  O3*   T A   1     -47.701 -51.991  16.314  1.00  0.00    -0.393 OA
ATOM     20  H3*   T A   1     -48.383 -52.676  16.416  1.00  0.00     0.210 HD
ENDBRANCH  14  19
ENDBRANCH   1  11
TORSDOF 4
ENDMDL
