MODEL 1
REMARK VINA RESULT:      -6.5      0.000      0.000
REMARK  6 active torsions:
REMARK  status: ('A' for Active; 'I' for Inactive)
REMARK    1  A    between atoms: C_7  and  O_8 
REMARK    2  A    between atoms: O_8  and  C_9 
REMARK    3  A    between atoms: C_9  and  C_10 
REMARK    4  A    between atoms: C_10  and  N_11 
REMARK       I    between atoms: N_11  and  C_12 
REMARK    5  A    between atoms: C_12  and  C_14 
REMARK    6  A    between atoms: C_14  and  C_15 
ROOT
HETATM    1  N   UNL     1     -41.919 -50.112  11.633  1.00  0.00    -0.359 N 
HETATM    2  C   UNL     1     -42.346 -48.807  11.493  1.00  0.00     0.222 C 
HETATM    3  O   UNL     1     -43.052 -48.234  12.320  1.00  0.00    -0.273 OA
HETATM    4  H   UNL     1     -41.417 -50.556  10.875  1.00  0.00     0.162 HD
ENDROOT
BRANCH   1   5
HETATM    5  C   UNL     1     -42.313 -50.930  12.766  1.00  0.00     0.148 C 
BRANCH   5   6
HETATM    6  C   UNL     1     -42.428 -52.407  12.389  1.00  0.00     0.187 C 
BRANCH   6   7
HETATM    7  O   UNL     1     -43.804 -52.792  12.341  1.00  0.00    -0.384 OA
BRANCH   7   8
HETATM    8  C   UNL     1     -44.543 -52.436  13.517  1.00  0.00     0.125 C 
HETATM    9  C   UNL     1     -44.796 -53.634  14.461  1.00  0.00     0.010 C 
HETATM   10  C   UNL     1     -45.382 -54.849  13.729  1.00  0.00     0.012 C 
HETATM   11  C   UNL     1     -45.673 -53.207  15.645  1.00  0.00     0.007 C 
HETATM   12  C   UNL     1     -46.985 -52.563  15.207  1.00  0.00     0.001 C 
HETATM   13  C   UNL     1     -46.754 -51.407  14.240  1.00  0.00     0.002 C 
HETATM   14  C   UNL     1     -45.865 -51.798  13.062  1.00  0.00     0.032 C 
ENDBRANCH   7   8
ENDBRANCH   6   7
ENDBRANCH   5   6
ENDBRANCH   1   5
BRANCH   2  15
HETATM   15  C   UNL     1     -41.874 -48.121  10.223  1.00  0.00     0.146 C 
BRANCH  15  16
HETATM   16  C   UNL     1     -42.568 -46.823  10.010  1.00  0.00     0.006 A 
HETATM   17  C   UNL     1     -43.828 -46.581   9.394  1.00  0.00     0.038 A 
HETATM   18  C   UNL     1     -44.792 -47.545   8.813  1.00  0.00     0.071 C 
HETATM   19  N   UNL     1     -44.115 -45.274   9.368  1.00  0.00    -0.265 N 
HETATM   20  O   UNL     1     -43.055 -44.641   9.982  1.00  0.00    -0.242 OA
ATOM     21  HN  UNL     1     -44.947 -44.837   8.975  1.00  0.00     0.194 HD
HETATM   22  C   UNL     1     -42.135 -45.563  10.365  1.00  0.00     0.081 A 
HETATM   23  C   UNL     1     -40.937 -45.039  11.047  1.00  0.00     0.079 C 
ENDBRANCH  15  16
ENDBRANCH   2  15
TORSDOF 6
ENDMDL
MODEL 2
REMARK VINA RESULT:      -6.0      1.268      2.181
REMARK  6 active torsions:
REMARK  status: ('A' for Active; 'I' for Inactive)
REMARK    1  A    between atoms: C_7  and  O_8 
REMARK    2  A    between atoms: O_8  and  C_9 
REMARK    3  A    between atoms: C_9  and  C_10 
REMARK    4  A    between atoms: C_10  and  N_11 
REMARK       I    between atoms: N_11  and  C_12 
REMARK    5  A    between atoms: C_12  and  C_14 
REMARK    6  A    between atoms: C_14  and  C_15 
ROOT
HETATM    1  N   UNL     1     -42.302 -50.791  12.083  1.00  0.00    -0.359 N 
HETATM    2  C   UNL     1     -41.639 -49.628  11.746  1.00  0.00     0.222 C 
HETATM    3  O   UNL     1     -40.528 -49.611  11.221  1.00  0.00    -0.273 OA
HETATM    4  H   UNL     1     -43.172 -50.738  12.595  1.00  0.00     0.162 HD
ENDROOT
BRANCH   1   5
HETATM    5  C   UNL     1     -41.707 -52.100  11.876  1.00  0.00     0.148 C 
BRANCH   5   6
HETATM    6  C   UNL     1     -42.367 -53.169  12.746  1.00  0.00     0.187 C 
BRANCH   6   7
HETATM    7  O   UNL     1     -43.779 -53.175  12.526  1.00  0.00    -0.384 OA
BRANCH   7   8
HETATM    8  C   UNL     1     -44.539 -52.712  13.651  1.00  0.00     0.125 C 
HETATM    9  C   UNL     1     -44.954 -53.850  14.612  1.00  0.00     0.010 C 
HETATM   10  C   UNL     1     -45.616 -55.027  13.884  1.00  0.00     0.012 C 
HETATM   11  C   UNL     1     -45.844 -53.304  15.735  1.00  0.00     0.007 C 
HETATM   12  C   UNL     1     -47.064 -52.553  15.211  1.00  0.00     0.001 C 
HETATM   13  C   UNL     1     -46.675 -51.455  14.227  1.00  0.00     0.002 C 
HETATM   14  C   UNL     1     -45.769 -51.967  13.109  1.00  0.00     0.032 C 
ENDBRANCH   7   8
ENDBRANCH   6   7
ENDBRANCH   5   6
ENDBRANCH   1   5
BRANCH   2  15
HETATM   15  C   UNL     1     -42.395 -48.354  12.078  1.00  0.00     0.146 C 
BRANCH  15  16
HETATM   16  C   UNL     1     -42.130 -47.283  11.079  1.00  0.00     0.006 A 
HETATM   17  C   UNL     1     -41.033 -46.378  11.018  1.00  0.00     0.038 A 
HETATM   18  C   UNL     1     -39.858 -46.261  11.913  1.00  0.00     0.071 C 
HETATM   19  N   UNL     1     -41.149 -45.542   9.980  1.00  0.00    -0.265 N 
HETATM   20  O   UNL     1     -42.315 -45.896   9.335  1.00  0.00    -0.242 OA
ATOM     21  HN  UNL     1     -40.506 -44.795   9.719  1.00  0.00     0.194 HD
HETATM   22  C   UNL     1     -42.898 -46.933   9.989  1.00  0.00     0.081 A 
HETATM   23  C   UNL     1     -44.160 -47.435   9.414  1.00  0.00     0.079 C 
ENDBRANCH  15  16
ENDBRANCH   2  15
TORSDOF 6
ENDMDL
MODEL 3
REMARK VINA RESULT:      -5.9      1.404      2.242
REMARK  6 active torsions:
REMARK  status: ('A' for Active; 'I' for Inactive)
REMARK    1  A    between atoms: C_7  and  O_8 
REMARK    2  A    between atoms: O_8  and  C_9 
REMARK    3  A    between atoms: C_9  and  C_10 
REMARK    4  A    between atoms: C_10  and  N_11 
REMARK       I    between atoms: N_11  and  C_12 
REMARK    5  A    between atoms: C_12  and  C_14 
REMARK    6  A    between atoms: C_14  and  C_15 
ROOT
HETATM    1  N   UNL     1     -41.974 -49.574  11.366  1.00  0.00    -0.359 N 
HETATM    2  C   UNL     1     -42.162 -48.456  12.153  1.00  0.00     0.222 C 
HETATM    3  O   UNL     1     -41.367 -48.096  13.018  1.00  0.00    -0.273 OA
HETATM    4  H   UNL     1     -42.707 -49.868  10.735  1.00  0.00     0.162 HD
ENDROOT
BRANCH   1   5
HETATM    5  C   UNL     1     -40.823 -50.444  11.533  1.00  0.00     0.148 C 
BRANCH   5   6
HETATM    6  C   UNL     1     -41.193 -51.749  12.238  1.00  0.00     0.187 C 
BRANCH   6   7
HETATM    7  O   UNL     1     -42.557 -52.080  11.968  1.00  0.00    -0.384 OA
BRANCH   7   8
HETATM    8  C   UNL     1     -42.987 -53.301  12.585  1.00  0.00     0.125 C 
HETATM    9  C   UNL     1     -44.523 -53.398  12.732  1.00  0.00     0.010 C 
HETATM   10  C   UNL     1     -45.134 -52.149  13.382  1.00  0.00     0.012 C 
HETATM   11  C   UNL     1     -44.908 -54.677  13.485  1.00  0.00     0.007 C 
HETATM   12  C   UNL     1     -44.216 -54.798  14.839  1.00  0.00     0.001 C 
HETATM   13  C   UNL     1     -42.702 -54.660  14.716  1.00  0.00     0.002 C 
HETATM   14  C   UNL     1     -42.290 -53.405  13.950  1.00  0.00     0.032 C 
ENDBRANCH   7   8
ENDBRANCH   6   7
ENDBRANCH   5   6
ENDBRANCH   1   5
BRANCH   2  15
HETATM   15  C   UNL     1     -43.443 -47.693  11.868  1.00  0.00     0.146 C 
BRANCH  15  16
HETATM   16  C   UNL     1     -43.410 -47.046  10.528  1.00  0.00     0.006 A 
HETATM   17  C   UNL     1     -44.362 -47.137   9.475  1.00  0.00     0.038 A 
HETATM   18  C   UNL     1     -45.642 -47.883   9.424  1.00  0.00     0.071 C 
HETATM   19  N   UNL     1     -43.979 -46.425   8.408  1.00  0.00    -0.265 N 
HETATM   20  O   UNL     1     -42.777 -45.843   8.753  1.00  0.00    -0.242 OA
ATOM     21  HN  UNL     1     -44.474 -46.333   7.522  1.00  0.00     0.194 HD
HETATM   22  C   UNL     1     -42.440 -46.211  10.014  1.00  0.00     0.081 A 
HETATM   23  C   UNL     1     -41.174 -45.661  10.534  1.00  0.00     0.079 C 
ENDBRANCH  15  16
ENDBRANCH   2  15
TORSDOF 6
ENDMDL
MODEL 4
REMARK VINA RESULT:      -5.9      3.567      4.813
REMARK  6 active torsions:
REMARK  status: ('A' for Active; 'I' for Inactive)
REMARK    1  A    between atoms: C_7  and  O_8 
REMARK    2  A    between atoms: O_8  and  C_9 
REMARK    3  A    between atoms: C_9  and  C_10 
REMARK    4  A    between atoms: C_10  and  N_11 
REMARK       I    between atoms: N_11  and  C_12 
REMARK    5  A    between atoms: C_12  and  C_14 
REMARK    6  A    between atoms: C_14  and  C_15 
ROOT
HETATM    1  N   UNL     1     -40.791 -53.035  14.902  1.00  0.00    -0.359 N 
HETATM    2  C   UNL     1     -39.668 -52.736  14.157  1.00  0.00     0.222 C 
HETATM    3  O   UNL     1     -39.008 -53.583  13.559  1.00  0.00    -0.273 OA
HETATM    4  H   UNL     1     -41.238 -52.307  15.444  1.00  0.00     0.162 HD
ENDROOT
BRANCH   1   5
HETATM    5  C   UNL     1     -41.260 -54.399  15.069  1.00  0.00     0.148 C 
BRANCH   5   6
HETATM    6  C   UNL     1     -42.619 -54.453  15.765  1.00  0.00     0.187 C 
BRANCH   6   7
HETATM    7  O   UNL     1     -43.628 -54.854  14.836  1.00  0.00    -0.384 OA
BRANCH   7   8
HETATM    8  C   UNL     1     -44.761 -53.975  14.801  1.00  0.00     0.125 C 
HETATM    9  C   UNL     1     -45.302 -53.739  13.372  1.00  0.00     0.010 C 
HETATM   10  C   UNL     1     -44.199 -53.336  12.383  1.00  0.00     0.012 C 
HETATM   11  C   UNL     1     -46.445 -52.717  13.395  1.00  0.00     0.007 C 
HETATM   12  C   UNL     1     -46.051 -51.402  14.060  1.00  0.00     0.001 C 
HETATM   13  C   UNL     1     -45.475 -51.622  15.454  1.00  0.00     0.002 C 
HETATM   14  C   UNL     1     -44.348 -52.653  15.465  1.00  0.00     0.032 C 
ENDBRANCH   7   8
ENDBRANCH   6   7
ENDBRANCH   5   6
ENDBRANCH   1   5
BRANCH   2  15
HETATM   15  C   UNL     1     -39.302 -51.262  14.132  1.00  0.00     0.146 C 
BRANCH  15  16
HETATM   16  C   UNL     1     -39.681 -50.624  12.843  1.00  0.00     0.006 A 
HETATM   17  C   UNL     1     -38.843 -50.264  11.751  1.00  0.00     0.038 A 
HETATM   18  C   UNL     1     -37.379 -50.432  11.592  1.00  0.00     0.071 C 
HETATM   19  N   UNL     1     -39.545 -49.692  10.766  1.00  0.00    -0.265 N 
HETATM   20  O   UNL     1     -40.857 -49.685  11.189  1.00  0.00    -0.242 OA
ATOM     21  HN  UNL     1     -39.183 -49.335   9.882  1.00  0.00     0.194 HD
HETATM   22  C   UNL     1     -40.938 -50.241  12.425  1.00  0.00     0.081 A 
HETATM   23  C   UNL     1     -42.287 -50.313  13.017  1.00  0.00     0.079 C 
ENDBRANCH  15  16
ENDBRANCH   2  15
TORSDOF 6
ENDMDL
MODEL 5
REMARK VINA RESULT:      -5.9      2.925      3.782
REMARK  6 active torsions:
REMARK  status: ('A' for Active; 'I' for Inactive)
REMARK    1  A    between atoms: C_7  and  O_8 
REMARK    2  A    between atoms: O_8  and  C_9 
REMARK    3  A    between atoms: C_9  and  C_10 
REMARK    4  A    between atoms: C_10  and  N_11 
REMARK       I    between atoms: N_11  and  C_12 
REMARK    5  A    between atoms: C_12  and  C_14 
REMARK    6  A    between atoms: C_14  and  C_15 
ROOT
HETATM    1  N   UNL     1     -40.638 -51.090  11.454  1.00  0.00    -0.359 N 
HETATM    2  C   UNL     1     -39.431 -50.903  12.097  1.00  0.00     0.222 C 
HETATM    3  O   UNL     1     -39.009 -51.652  12.975  1.00  0.00    -0.273 OA
HETATM    4  H   UNL     1     -40.971 -50.389  10.806  1.00  0.00     0.162 HD
ENDROOT
BRANCH   1   5
HETATM    5  C   UNL     1     -41.530 -52.182  11.801  1.00  0.00     0.148 C 
BRANCH   5   6
HETATM    6  C   UNL     1     -42.586 -51.752  12.820  1.00  0.00     0.187 C 
BRANCH   6   7
HETATM    7  O   UNL     1     -43.770 -52.534  12.654  1.00  0.00    -0.384 OA
BRANCH   7   8
HETATM    8  C   UNL     1     -44.634 -52.521  13.799  1.00  0.00     0.125 C 
HETATM    9  C   UNL     1     -46.114 -52.791  13.446  1.00  0.00     0.010 C 
HETATM   10  C   UNL     1     -46.621 -51.902  12.302  1.00  0.00     0.012 C 
HETATM   11  C   UNL     1     -46.995 -52.666  14.695  1.00  0.00     0.007 C 
HETATM   12  C   UNL     1     -46.833 -51.323  15.400  1.00  0.00     0.001 C 
HETATM   13  C   UNL     1     -45.372 -51.021  15.717  1.00  0.00     0.002 C 
HETATM   14  C   UNL     1     -44.468 -51.160  14.494  1.00  0.00     0.032 C 
ENDBRANCH   7   8
ENDBRANCH   6   7
ENDBRANCH   5   6
ENDBRANCH   1   5
BRANCH   2  15
HETATM   15  C   UNL     1     -38.653 -49.684  11.635  1.00  0.00     0.146 C 
BRANCH  15  16
HETATM   16  C   UNL     1     -38.971 -48.485  12.456  1.00  0.00     0.006 A 
HETATM   17  C   UNL     1     -39.901 -47.443  12.181  1.00  0.00     0.038 A 
HETATM   18  C   UNL     1     -40.807 -47.272  11.021  1.00  0.00     0.071 C 
HETATM   19  N   UNL     1     -39.899 -46.520  13.150  1.00  0.00    -0.265 N 
HETATM   20  O   UNL     1     -38.980 -46.951  14.083  1.00  0.00    -0.242 OA
ATOM     21  HN  UNL     1     -40.462 -45.671  13.190  1.00  0.00     0.194 HD
HETATM   22  C   UNL     1     -38.429 -48.121  13.670  1.00  0.00     0.081 A 
HETATM   23  C   UNL     1     -37.425 -48.718  14.570  1.00  0.00     0.079 C 
ENDBRANCH  15  16
ENDBRANCH   2  15
TORSDOF 6
ENDMDL
MODEL 6
REMARK VINA RESULT:      -5.9      1.558      1.942
REMARK  6 active torsions:
REMARK  status: ('A' for Active; 'I' for Inactive)
REMARK    1  A    between atoms: C_7  and  O_8 
REMARK    2  A    between atoms: O_8  and  C_9 
REMARK    3  A    between atoms: C_9  and  C_10 
REMARK    4  A    between atoms: C_10  and  N_11 
REMARK       I    between atoms: N_11  and  C_12 
REMARK    5  A    between atoms: C_12  and  C_14 
REMARK    6  A    between atoms: C_14  and  C_15 
ROOT
HETATM    1  N   UNL     1     -42.197 -50.342  11.967  1.00  0.00    -0.359 N 
HETATM    2  C   UNL     1     -41.938 -49.365  12.907  1.00  0.00     0.222 C 
HETATM    3  O   UNL     1     -41.162 -49.520  13.847  1.00  0.00    -0.273 OA
HETATM    4  H   UNL     1     -42.913 -50.185  11.270  1.00  0.00     0.162 HD
ENDROOT
BRANCH   1   5
HETATM    5  C   UNL     1     -41.593 -51.660  12.044  1.00  0.00     0.148 C 
BRANCH   5   6
HETATM    6  C   UNL     1     -42.433 -52.623  12.883  1.00  0.00     0.187 C 
BRANCH   6   7
HETATM    7  O   UNL     1     -43.819 -52.447  12.586  1.00  0.00    -0.384 OA
BRANCH   7   8
HETATM    8  C   UNL     1     -44.667 -52.491  13.742  1.00  0.00     0.125 C 
HETATM    9  C   UNL     1     -46.144 -52.788  13.400  1.00  0.00     0.010 C 
HETATM   10  C   UNL     1     -46.689 -51.877  12.291  1.00  0.00     0.012 C 
HETATM   11  C   UNL     1     -47.010 -52.723  14.665  1.00  0.00     0.007 C 
HETATM   12  C   UNL     1     -46.872 -51.398  15.409  1.00  0.00     0.001 C 
HETATM   13  C   UNL     1     -45.414 -51.069  15.715  1.00  0.00     0.002 C 
HETATM   14  C   UNL     1     -44.525 -51.148  14.476  1.00  0.00     0.032 C 
ENDBRANCH   7   8
ENDBRANCH   6   7
ENDBRANCH   5   6
ENDBRANCH   1   5
BRANCH   2  15
HETATM   15  C   UNL     1     -42.694 -48.066  12.691  1.00  0.00     0.146 C 
BRANCH  15  16
HETATM   16  C   UNL     1     -42.082 -47.247  11.610  1.00  0.00     0.006 A 
HETATM   17  C   UNL     1     -42.590 -46.973  10.309  1.00  0.00     0.038 A 
HETATM   18  C   UNL     1     -43.860 -47.411   9.683  1.00  0.00     0.071 C 
HETATM   19  N   UNL     1     -41.746 -46.208   9.608  1.00  0.00    -0.265 N 
HETATM   20  O   UNL     1     -40.679 -45.955  10.444  1.00  0.00    -0.242 OA
ATOM     21  HN  UNL     1     -41.867 -45.879   8.650  1.00  0.00     0.194 HD
HETATM   22  C   UNL     1     -40.880 -46.573  11.636  1.00  0.00     0.081 A 
HETATM   23  C   UNL     1     -39.822 -46.392  12.647  1.00  0.00     0.079 C 
ENDBRANCH  15  16
ENDBRANCH   2  15
TORSDOF 6
ENDMDL
MODEL 7
REMARK VINA RESULT:      -5.8      3.756      6.745
REMARK  6 active torsions:
REMARK  status: ('A' for Active; 'I' for Inactive)
REMARK    1  A    between atoms: C_7  and  O_8 
REMARK    2  A    between atoms: O_8  and  C_9 
REMARK    3  A    between atoms: C_9  and  C_10 
REMARK    4  A    between atoms: C_10  and  N_11 
REMARK       I    between atoms: N_11  and  C_12 
REMARK    5  A    between atoms: C_12  and  C_14 
REMARK    6  A    between atoms: C_14  and  C_15 
ROOT
HETATM    1  N   UNL     1     -41.766 -51.590  11.778  1.00  0.00    -0.359 N 
HETATM    2  C   UNL     1     -42.874 -51.832  12.563  1.00  0.00     0.222 C 
HETATM    3  O   UNL     1     -43.227 -51.094  13.481  1.00  0.00    -0.273 OA
HETATM    4  H   UNL     1     -41.476 -52.281  11.098  1.00  0.00     0.162 HD
ENDROOT
BRANCH   1   5
HETATM    5  C   UNL     1     -40.897 -50.449  12.007  1.00  0.00     0.148 C 
BRANCH   5   6
HETATM    6  C   UNL     1     -39.914 -50.704  13.150  1.00  0.00     0.187 C 
BRANCH   6   7
HETATM    7  O   UNL     1     -39.238 -51.946  12.944  1.00  0.00    -0.384 OA
BRANCH   7   8
HETATM    8  C   UNL     1     -39.020 -52.690  14.151  1.00  0.00     0.125 C 
HETATM    9  C   UNL     1     -39.194 -54.214  13.964  1.00  0.00     0.010 C 
HETATM   10  C   UNL     1     -40.512 -54.577  13.264  1.00  0.00     0.012 C 
HETATM   11  C   UNL     1     -39.047 -54.939  15.307  1.00  0.00     0.007 C 
HETATM   12  C   UNL     1     -39.994 -54.404  16.376  1.00  0.00     0.001 C 
HETATM   13  C   UNL     1     -39.866 -52.893  16.542  1.00  0.00     0.002 C 
HETATM   14  C   UNL     1     -39.987 -52.146  15.215  1.00  0.00     0.032 C 
ENDBRANCH   7   8
ENDBRANCH   6   7
ENDBRANCH   5   6
ENDBRANCH   1   5
BRANCH   2  15
HETATM   15  C   UNL     1     -43.637 -53.095  12.206  1.00  0.00     0.146 C 
BRANCH  15  16
HETATM   16  C   UNL     1     -44.749 -53.353  13.160  1.00  0.00     0.006 A 
HETATM   17  C   UNL     1     -46.069 -52.823  13.149  1.00  0.00     0.038 A 
HETATM   18  C   UNL     1     -46.700 -51.887  12.189  1.00  0.00     0.071 C 
HETATM   19  N   UNL     1     -46.785 -53.275  14.186  1.00  0.00    -0.265 N 
HETATM   20  O   UNL     1     -45.949 -54.122  14.883  1.00  0.00    -0.242 OA
ATOM     21  HN  UNL     1     -47.751 -53.041  14.414  1.00  0.00     0.194 HD
HETATM   22  C   UNL     1     -44.738 -54.170  14.272  1.00  0.00     0.081 A 
HETATM   23  C   UNL     1     -43.730 -55.044  14.898  1.00  0.00     0.079 C 
ENDBRANCH  15  16
ENDBRANCH   2  15
TORSDOF 6
ENDMDL
MODEL 8
REMARK VINA RESULT:      -5.8      3.859      4.414
REMARK  6 active torsions:
REMARK  status: ('A' for Active; 'I' for Inactive)
REMARK    1  A    between atoms: C_7  and  O_8 
REMARK    2  A    between atoms: O_8  and  C_9 
REMARK    3  A    between atoms: C_9  and  C_10 
REMARK    4  A    between atoms: C_10  and  N_11 
REMARK       I    between atoms: N_11  and  C_12 
REMARK    5  A    between atoms: C_12  and  C_14 
REMARK    6  A    between atoms: C_14  and  C_15 
ROOT
HETATM    1  N   UNL     1     -41.617 -52.928  12.320  1.00  0.00    -0.359 N 
HETATM    2  C   UNL     1     -40.484 -52.159  12.492  1.00  0.00     0.222 C 
HETATM    3  O   UNL     1     -39.531 -52.505  13.186  1.00  0.00    -0.273 OA
HETATM    4  H   UNL     1     -42.404 -52.549  11.811  1.00  0.00     0.162 HD
ENDROOT
BRANCH   1   5
HETATM    5  C   UNL     1     -41.786 -54.205  12.991  1.00  0.00     0.148 C 
BRANCH   5   6
HETATM    6  C   UNL     1     -43.179 -54.348  13.602  1.00  0.00     0.187 C 
BRANCH   6   7
HETATM    7  O   UNL     1     -44.154 -53.762  12.736  1.00  0.00    -0.384 OA
BRANCH   7   8
HETATM    8  C   UNL     1     -45.327 -53.299  13.418  1.00  0.00     0.125 C 
HETATM    9  C   UNL     1     -45.632 -51.806  13.158  1.00  0.00     0.010 C 
HETATM   10  C   UNL     1     -44.410 -50.905  13.387  1.00  0.00     0.012 C 
HETATM   11  C   UNL     1     -46.836 -51.352  13.992  1.00  0.00     0.007 C 
HETATM   12  C   UNL     1     -46.662 -51.627  15.482  1.00  0.00     0.001 C 
HETATM   13  C   UNL     1     -46.318 -53.089  15.752  1.00  0.00     0.002 C 
HETATM   14  C   UNL     1     -45.134 -53.574  14.918  1.00  0.00     0.032 C 
ENDBRANCH   7   8
ENDBRANCH   6   7
ENDBRANCH   5   6
ENDBRANCH   1   5
BRANCH   2  15
HETATM   15  C   UNL     1     -40.503 -50.835  11.749  1.00  0.00     0.146 C 
BRANCH  15  16
HETATM   16  C   UNL     1     -39.653 -49.816  12.422  1.00  0.00     0.006 A 
HETATM   17  C   UNL     1     -39.990 -48.951  13.501  1.00  0.00     0.038 A 
HETATM   18  C   UNL     1     -41.262 -48.835  14.252  1.00  0.00     0.071 C 
HETATM   19  N   UNL     1     -38.965 -48.155  13.827  1.00  0.00    -0.265 N 
HETATM   20  O   UNL     1     -37.934 -48.498  12.977  1.00  0.00    -0.242 OA
ATOM     21  HN  UNL     1     -38.949 -47.441  14.555  1.00  0.00     0.194 HD
HETATM   22  C   UNL     1     -38.343 -49.487  12.143  1.00  0.00     0.081 A 
HETATM   23  C   UNL     1     -37.344 -49.971  11.172  1.00  0.00     0.079 C 
ENDBRANCH  15  16
ENDBRANCH   2  15
TORSDOF 6
ENDMDL
MODEL 9
REMARK VINA RESULT:      -5.7      3.879      7.853
REMARK  6 active torsions:
REMARK  status: ('A' for Active; 'I' for Inactive)
REMARK    1  A    between atoms: C_7  and  O_8 
REMARK    2  A    between atoms: O_8  and  C_9 
REMARK    3  A    between atoms: C_9  and  C_10 
REMARK    4  A    between atoms: C_10  and  N_11 
REMARK       I    between atoms: N_11  and  C_12 
REMARK    5  A    between atoms: C_12  and  C_14 
REMARK    6  A    between atoms: C_14  and  C_15 
ROOT
HETATM    1  N   UNL     1     -43.535 -51.654  12.633  1.00  0.00    -0.359 N 
HETATM    2  C   UNL     1     -44.372 -51.075  13.566  1.00  0.00     0.222 C 
HETATM    3  O   UNL     1     -44.033 -50.143  14.292  1.00  0.00    -0.273 OA
HETATM    4  H   UNL     1     -43.843 -52.475  12.130  1.00  0.00     0.162 HD
ENDROOT
BRANCH   1   5
HETATM    5  C   UNL     1     -42.158 -51.224  12.467  1.00  0.00     0.148 C 
BRANCH   5   6
HETATM    6  C   UNL     1     -41.207 -52.410  12.310  1.00  0.00     0.187 C 
BRANCH   6   7
HETATM    7  O   UNL     1     -39.871 -51.942  12.115  1.00  0.00    -0.384 OA
BRANCH   7   8
HETATM    8  C   UNL     1     -39.452 -50.972  13.085  1.00  0.00     0.125 C 
HETATM    9  C   UNL     1     -38.564 -49.859  12.485  1.00  0.00     0.010 C 
HETATM   10  C   UNL     1     -37.400 -50.416  11.653  1.00  0.00     0.012 C 
HETATM   11  C   UNL     1     -38.071 -48.915  13.589  1.00  0.00     0.007 C 
HETATM   12  C   UNL     1     -37.351 -49.647  14.717  1.00  0.00     0.001 C 
HETATM   13  C   UNL     1     -38.198 -50.778  15.290  1.00  0.00     0.002 C 
HETATM   14  C   UNL     1     -38.721 -51.722  14.210  1.00  0.00     0.032 C 
ENDBRANCH   7   8
ENDBRANCH   6   7
ENDBRANCH   5   6
ENDBRANCH   1   5
BRANCH   2  15
HETATM   15  C   UNL     1     -45.761 -51.683  13.630  1.00  0.00     0.146 C 
BRANCH  15  16
HETATM   16  C   UNL     1     -45.895 -52.628  14.771  1.00  0.00     0.006 A 
HETATM   17  C   UNL     1     -46.267 -52.349  16.117  1.00  0.00     0.038 A 
HETATM   18  C   UNL     1     -46.631 -51.056  16.743  1.00  0.00     0.071 C 
HETATM   19  N   UNL     1     -46.260 -53.458  16.864  1.00  0.00    -0.265 N 
HETATM   20  O   UNL     1     -45.900 -54.485  16.017  1.00  0.00    -0.242 OA
ATOM     21  HN  UNL     1     -46.477 -53.529  17.858  1.00  0.00     0.194 HD
HETATM   22  C   UNL     1     -45.684 -53.991  14.772  1.00  0.00     0.081 A 
HETATM   23  C   UNL     1     -45.296 -54.973  13.743  1.00  0.00     0.079 C 
ENDBRANCH  15  16
ENDBRANCH   2  15
TORSDOF 6
ENDMDL
