MODEL 1
REMARK VINA RESULT:      -6.0      0.000      0.000
REMARK  5 active torsions:
REMARK  status: ('A' for Active; 'I' for Inactive)
REMARK    1  A    between atoms: N_7  and  C_8 
REMARK    2  A    between atoms: C_8  and  C_9 
REMARK       I    between atoms: C_9  and  N_11 
REMARK    3  A    between atoms: N_11  and  C_12 
REMARK    4  A    between atoms: C_12  and  C_13 
REMARK    5  A    between atoms: C_13  and  N_16 
ROOT
HETATM    1  C   UNL     1     -43.151 -53.796  12.937  1.00  0.00     0.236 C 
HETATM    2  O   UNL     1     -42.277 -54.300  13.640  1.00  0.00    -0.272 OA
HETATM    3  N   UNL     1     -42.890 -52.827  11.986  1.00  0.00    -0.357 N 
HETATM    4  H   UNL     1     -43.616 -52.588  11.317  1.00  0.00     0.162 HD
ENDROOT
BRANCH   1   5
HETATM    5  C   UNL     1     -44.618 -54.215  13.058  1.00  0.00     0.235 C 
BRANCH   5   6
HETATM    6  N   UNL     1     -45.369 -53.366  13.974  1.00  0.00    -0.301 N 
HETATM    7  C   UNL     1     -46.009 -52.250  13.488  1.00  0.00     0.102 A 
HETATM    8  C   UNL     1     -46.751 -51.470  14.273  1.00  0.00     0.092 A 
HETATM    9  C   UNL     1     -46.860 -51.780  15.707  1.00  0.00     0.252 A 
HETATM   10  N   UNL     1     -46.124 -52.864  16.150  1.00  0.00    -0.271 N 
HETATM   11  O   UNL     1     -47.583 -51.079  16.411  1.00  0.00    -0.268 OA
HETATM   12  C   UNL     1     -46.123 -53.160  17.569  1.00  0.00     0.164 C 
HETATM   13  C   UNL     1     -45.406 -53.719  15.318  1.00  0.00     0.331 A 
HETATM   14  O   UNL     1     -44.835 -54.729  15.736  1.00  0.00    -0.246 OA
ENDBRANCH   5   6
ENDBRANCH   1   5
BRANCH   3  15
HETATM   15  C   UNL     1     -41.573 -52.207  11.921  1.00  0.00     0.152 C 
BRANCH  15  16
HETATM   16  C   UNL     1     -41.422 -50.750  12.507  1.00  0.00     0.036 C 
HETATM   17  C   UNL     1     -42.855 -50.208  12.739  1.00  0.00     0.039 C 
HETATM   18  C   UNL     1     -40.725 -50.813  13.879  1.00  0.00     0.039 C 
BRANCH  16  19
HETATM   19  N   UNL     1     -40.698 -49.912  11.500  1.00  0.00    -0.399 N 
HETATM   20  C   UNL     1     -39.283 -49.577  11.773  1.00  0.00     0.144 C 
HETATM   21  C   UNL     1     -39.060 -48.260  12.538  1.00  0.00     0.187 C 
HETATM   22  O   UNL     1     -39.699 -47.159  11.886  1.00  0.00    -0.388 OA
HETATM   23  C   UNL     1     -41.099 -47.410  11.723  1.00  0.00     0.187 C 
HETATM   24  C   UNL     1     -41.351 -48.711  10.943  1.00  0.00     0.144 C 
ENDBRANCH  16  19
ENDBRANCH  15  16
ENDBRANCH   3  15
TORSDOF 5
ENDMDL
MODEL 2
REMARK VINA RESULT:      -6.0      1.324      2.007
REMARK  5 active torsions:
REMARK  status: ('A' for Active; 'I' for Inactive)
REMARK    1  A    between atoms: N_7  and  C_8 
REMARK    2  A    between atoms: C_8  and  C_9 
REMARK       I    between atoms: C_9  and  N_11 
REMARK    3  A    between atoms: N_11  and  C_12 
REMARK    4  A    between atoms: C_12  and  C_13 
REMARK    5  A    between atoms: C_13  and  N_16 
ROOT
HETATM    1  C   UNL     1     -42.787 -53.559  12.803  1.00  0.00     0.236 C 
HETATM    2  O   UNL     1     -41.967 -53.918  13.646  1.00  0.00    -0.272 OA
HETATM    3  N   UNL     1     -42.479 -52.689  11.774  1.00  0.00    -0.357 N 
HETATM    4  H   UNL     1     -43.140 -52.578  11.011  1.00  0.00     0.162 HD
ENDROOT
BRANCH   1   5
HETATM    5  C   UNL     1     -44.231 -54.062  12.824  1.00  0.00     0.235 C 
BRANCH   5   6
HETATM    6  N   UNL     1     -45.076 -53.302  13.737  1.00  0.00    -0.301 N 
HETATM    7  C   UNL     1     -45.704 -52.165  13.285  1.00  0.00     0.102 A 
HETATM    8  C   UNL     1     -46.527 -51.463  14.062  1.00  0.00     0.092 A 
HETATM    9  C   UNL     1     -46.744 -51.885  15.455  1.00  0.00     0.252 A 
HETATM   10  N   UNL     1     -46.017 -52.985  15.874  1.00  0.00    -0.271 N 
HETATM   11  O   UNL     1     -47.540 -51.254  16.147  1.00  0.00    -0.268 OA
HETATM   12  C   UNL     1     -46.123 -53.389  17.263  1.00  0.00     0.164 C 
HETATM   13  C   UNL     1     -45.212 -53.758  15.043  1.00  0.00     0.331 A 
HETATM   14  O   UNL     1     -44.650 -54.786  15.429  1.00  0.00    -0.246 OA
ENDBRANCH   5   6
ENDBRANCH   1   5
BRANCH   3  15
HETATM   15  C   UNL     1     -41.201 -51.990  11.770  1.00  0.00     0.152 C 
BRANCH  15  16
HETATM   16  C   UNL     1     -41.161 -50.533  12.375  1.00  0.00     0.036 C 
HETATM   17  C   UNL     1     -40.517 -49.618  11.302  1.00  0.00     0.039 C 
HETATM   18  C   UNL     1     -42.598 -50.029  12.608  1.00  0.00     0.039 C 
BRANCH  16  19
HETATM   19  N   UNL     1     -40.323 -50.562  13.614  1.00  0.00    -0.399 N 
HETATM   20  C   UNL     1     -39.782 -49.277  14.109  1.00  0.00     0.144 C 
HETATM   21  C   UNL     1     -38.387 -48.907  13.574  1.00  0.00     0.187 C 
HETATM   22  O   UNL     1     -37.439 -49.951  13.809  1.00  0.00    -0.388 OA
HETATM   23  C   UNL     1     -37.886 -51.181  13.228  1.00  0.00     0.187 C 
HETATM   24  C   UNL     1     -39.270 -51.586  13.762  1.00  0.00     0.144 C 
ENDBRANCH  16  19
ENDBRANCH  15  16
ENDBRANCH   3  15
TORSDOF 5
ENDMDL
MODEL 3
REMARK VINA RESULT:      -5.8      2.369      3.765
REMARK  5 active torsions:
REMARK  status: ('A' for Active; 'I' for Inactive)
REMARK    1  A    between atoms: N_7  and  C_8 
REMARK    2  A    between atoms: C_8  and  C_9 
REMARK       I    between atoms: C_9  and  N_11 
REMARK    3  A    between atoms: N_11  and  C_12 
REMARK    4  A    between atoms: C_12  and  C_13 
REMARK    5  A    between atoms: C_13  and  N_16 
ROOT
HETATM    1  C   UNL     1     -40.544 -51.504  12.192  1.00  0.00     0.236 C 
HETATM    2  O   UNL     1     -39.981 -51.247  13.255  1.00  0.00    -0.272 OA
HETATM    3  N   UNL     1     -40.783 -50.554  11.217  1.00  0.00    -0.357 N 
HETATM    4  H   UNL     1     -41.079 -50.861  10.295  1.00  0.00     0.162 HD
ENDROOT
BRANCH   1   5
HETATM    5  C   UNL     1     -41.023 -52.918  11.859  1.00  0.00     0.235 C 
BRANCH   5   6
HETATM    6  N   UNL     1     -42.071 -53.381  12.760  1.00  0.00    -0.301 N 
HETATM    7  C   UNL     1     -43.373 -53.003  12.528  1.00  0.00     0.102 A 
HETATM    8  C   UNL     1     -44.375 -53.440  13.290  1.00  0.00     0.092 A 
HETATM    9  C   UNL     1     -44.085 -54.317  14.436  1.00  0.00     0.252 A 
HETATM   10  N   UNL     1     -42.749 -54.589  14.667  1.00  0.00    -0.271 N 
HETATM   11  O   UNL     1     -45.023 -54.748  15.103  1.00  0.00    -0.268 OA
HETATM   12  C   UNL     1     -42.400 -55.373  15.835  1.00  0.00     0.164 C 
HETATM   13  C   UNL     1     -41.710 -54.190  13.830  1.00  0.00     0.331 A 
HETATM   14  O   UNL     1     -40.538 -54.528  14.018  1.00  0.00    -0.246 OA
ENDBRANCH   5   6
ENDBRANCH   1   5
BRANCH   3  15
HETATM   15  C   UNL     1     -40.556 -49.143  11.503  1.00  0.00     0.152 C 
BRANCH  15  16
HETATM   16  C   UNL     1     -41.813 -48.189  11.516  1.00  0.00     0.036 C 
HETATM   17  C   UNL     1     -42.279 -48.041  10.045  1.00  0.00     0.039 C 
HETATM   18  C   UNL     1     -42.961 -48.853  12.298  1.00  0.00     0.039 C 
BRANCH  16  19
HETATM   19  N   UNL     1     -41.391 -46.865  12.069  1.00  0.00    -0.399 N 
HETATM   20  C   UNL     1     -42.384 -45.767  12.060  1.00  0.00     0.144 C 
HETATM   21  C   UNL     1     -42.359 -44.876  10.804  1.00  0.00     0.187 C 
HETATM   22  O   UNL     1     -41.053 -44.347  10.561  1.00  0.00    -0.388 OA
HETATM   23  C   UNL     1     -40.093 -45.402  10.442  1.00  0.00     0.187 C 
HETATM   24  C   UNL     1     -40.081 -46.297  11.693  1.00  0.00     0.144 C 
ENDBRANCH  16  19
ENDBRANCH  15  16
ENDBRANCH   3  15
TORSDOF 5
ENDMDL
MODEL 4
REMARK VINA RESULT:      -5.8      2.975      6.508
REMARK  5 active torsions:
REMARK  status: ('A' for Active; 'I' for Inactive)
REMARK    1  A    between atoms: N_7  and  C_8 
REMARK    2  A    between atoms: C_8  and  C_9 
REMARK       I    between atoms: C_9  and  N_11 
REMARK    3  A    between atoms: N_11  and  C_12 
REMARK    4  A    between atoms: C_12  and  C_13 
REMARK    5  A    between atoms: C_13  and  N_16 
ROOT
HETATM    1  C   UNL     1     -43.427 -54.160  17.187  1.00  0.00     0.236 C 
HETATM    2  O   UNL     1     -43.952 -55.245  17.432  1.00  0.00    -0.272 OA
HETATM    3  N   UNL     1     -44.153 -53.012  16.931  1.00  0.00    -0.357 N 
HETATM    4  H   UNL     1     -43.670 -52.118  16.920  1.00  0.00     0.162 HD
ENDROOT
BRANCH   1   5
HETATM    5  C   UNL     1     -41.907 -53.994  17.152  1.00  0.00     0.235 C 
BRANCH   5   6
HETATM    6  N   UNL     1     -41.413 -53.636  15.828  1.00  0.00    -0.301 N 
HETATM    7  C   UNL     1     -41.680 -54.464  14.762  1.00  0.00     0.102 A 
HETATM    8  C   UNL     1     -41.297 -54.158  13.523  1.00  0.00     0.092 A 
HETATM    9  C   UNL     1     -40.532 -52.923  13.286  1.00  0.00     0.252 A 
HETATM   10  N   UNL     1     -40.221 -52.178  14.410  1.00  0.00    -0.271 N 
HETATM   11  O   UNL     1     -40.223 -52.630  12.133  1.00  0.00    -0.268 OA
HETATM   12  C   UNL     1     -39.392 -51.000  14.245  1.00  0.00     0.164 C 
HETATM   13  C   UNL     1     -40.682 -52.462  15.693  1.00  0.00     0.331 A 
HETATM   14  O   UNL     1     -40.460 -51.725  16.657  1.00  0.00    -0.246 OA
ENDBRANCH   5   6
ENDBRANCH   1   5
BRANCH   3  15
HETATM   15  C   UNL     1     -45.595 -53.090  16.738  1.00  0.00     0.152 C 
BRANCH  15  16
HETATM   16  C   UNL     1     -46.247 -52.105  15.693  1.00  0.00     0.036 C 
HETATM   17  C   UNL     1     -47.463 -51.446  16.393  1.00  0.00     0.039 C 
HETATM   18  C   UNL     1     -45.251 -50.982  15.347  1.00  0.00     0.039 C 
BRANCH  16  19
HETATM   19  N   UNL     1     -46.691 -52.903  14.508  1.00  0.00    -0.399 N 
HETATM   20  C   UNL     1     -46.563 -54.376  14.584  1.00  0.00     0.144 C 
HETATM   21  C   UNL     1     -45.235 -54.943  14.050  1.00  0.00     0.187 C 
HETATM   22  O   UNL     1     -44.974 -54.504  12.715  1.00  0.00    -0.388 OA
HETATM   23  C   UNL     1     -44.970 -53.075  12.643  1.00  0.00     0.187 C 
HETATM   24  C   UNL     1     -46.295 -52.481  13.150  1.00  0.00     0.144 C 
ENDBRANCH  16  19
ENDBRANCH  15  16
ENDBRANCH   3  15
TORSDOF 5
ENDMDL
MODEL 5
REMARK VINA RESULT:      -5.8      2.493      7.376
REMARK  5 active torsions:
REMARK  status: ('A' for Active; 'I' for Inactive)
REMARK    1  A    between atoms: N_7  and  C_8 
REMARK    2  A    between atoms: C_8  and  C_9 
REMARK       I    between atoms: C_9  and  N_11 
REMARK    3  A    between atoms: N_11  and  C_12 
REMARK    4  A    between atoms: C_12  and  C_13 
REMARK    5  A    between atoms: C_13  and  N_16 
ROOT
HETATM    1  C   UNL     1     -43.121 -49.348  13.072  1.00  0.00     0.236 C 
HETATM    2  O   UNL     1     -43.153 -48.560  14.016  1.00  0.00    -0.272 OA
HETATM    3  N   UNL     1     -43.876 -50.506  13.031  1.00  0.00    -0.357 N 
HETATM    4  H   UNL     1     -43.946 -51.014  12.155  1.00  0.00     0.162 HD
ENDROOT
BRANCH   1   5
HETATM    5  C   UNL     1     -42.236 -49.101  11.850  1.00  0.00     0.235 C 
BRANCH   5   6
HETATM    6  N   UNL     1     -42.557 -47.853  11.169  1.00  0.00    -0.301 N 
HETATM    7  C   UNL     1     -43.607 -47.820  10.281  1.00  0.00     0.102 A 
HETATM    8  C   UNL     1     -43.976 -46.694   9.672  1.00  0.00     0.092 A 
HETATM    9  C   UNL     1     -43.219 -45.456   9.918  1.00  0.00     0.252 A 
HETATM   10  N   UNL     1     -42.122 -45.573  10.753  1.00  0.00    -0.271 N 
HETATM   11  O   UNL     1     -43.596 -44.416   9.384  1.00  0.00    -0.268 OA
HETATM   12  C   UNL     1     -41.288 -44.406  10.958  1.00  0.00     0.164 C 
HETATM   13  C   UNL     1     -41.780 -46.733  11.444  1.00  0.00     0.331 A 
HETATM   14  O   UNL     1     -40.849 -46.776  12.251  1.00  0.00    -0.246 OA
ENDBRANCH   5   6
ENDBRANCH   1   5
BRANCH   3  15
HETATM   15  C   UNL     1     -44.597 -50.947  14.218  1.00  0.00     0.152 C 
BRANCH  15  16
HETATM   16  C   UNL     1     -45.870 -51.854  14.004  1.00  0.00     0.036 C 
HETATM   17  C   UNL     1     -46.943 -51.368  15.012  1.00  0.00     0.039 C 
HETATM   18  C   UNL     1     -46.434 -51.631  12.588  1.00  0.00     0.039 C 
BRANCH  16  19
HETATM   19  N   UNL     1     -45.489 -53.273  14.285  1.00  0.00    -0.399 N 
HETATM   20  C   UNL     1     -44.661 -53.539  15.483  1.00  0.00     0.144 C 
HETATM   21  C   UNL     1     -43.141 -53.527  15.242  1.00  0.00     0.187 C 
HETATM   22  O   UNL     1     -42.768 -54.421  14.191  1.00  0.00    -0.388 OA
HETATM   23  C   UNL     1     -43.467 -54.103  12.983  1.00  0.00     0.187 C 
HETATM   24  C   UNL     1     -44.991 -54.128  13.190  1.00  0.00     0.144 C 
ENDBRANCH  16  19
ENDBRANCH  15  16
ENDBRANCH   3  15
TORSDOF 5
ENDMDL
MODEL 6
REMARK VINA RESULT:      -5.8      1.674      6.838
REMARK  5 active torsions:
REMARK  status: ('A' for Active; 'I' for Inactive)
REMARK    1  A    between atoms: N_7  and  C_8 
REMARK    2  A    between atoms: C_8  and  C_9 
REMARK       I    between atoms: C_9  and  N_11 
REMARK    3  A    between atoms: N_11  and  C_12 
REMARK    4  A    between atoms: C_12  and  C_13 
REMARK    5  A    between atoms: C_13  and  N_16 
ROOT
HETATM    1  C   UNL     1     -42.324 -53.096  12.685  1.00  0.00     0.236 C 
HETATM    2  O   UNL     1     -42.220 -53.602  13.801  1.00  0.00    -0.272 OA
HETATM    3  N   UNL     1     -43.541 -52.863  12.074  1.00  0.00    -0.357 N 
HETATM    4  H   UNL     1     -43.569 -52.278  11.243  1.00  0.00     0.162 HD
ENDROOT
BRANCH   1   5
HETATM    5  C   UNL     1     -41.095 -52.672  11.879  1.00  0.00     0.235 C 
BRANCH   5   6
HETATM    6  N   UNL     1     -40.536 -51.405  12.335  1.00  0.00    -0.301 N 
HETATM    7  C   UNL     1     -41.163 -50.230  11.993  1.00  0.00     0.102 A 
HETATM    8  C   UNL     1     -40.724 -49.048  12.426  1.00  0.00     0.092 A 
HETATM    9  C   UNL     1     -39.513 -48.988  13.260  1.00  0.00     0.252 A 
HETATM   10  N   UNL     1     -38.879 -50.194  13.496  1.00  0.00    -0.271 N 
HETATM   11  O   UNL     1     -39.144 -47.897  13.689  1.00  0.00    -0.268 OA
HETATM   12  C   UNL     1     -37.632 -50.182  14.235  1.00  0.00     0.164 C 
HETATM   13  C   UNL     1     -39.377 -51.433  13.103  1.00  0.00     0.331 A 
HETATM   14  O   UNL     1     -38.833 -52.497  13.409  1.00  0.00    -0.246 OA
ENDBRANCH   5   6
ENDBRANCH   1   5
BRANCH   3  15
HETATM   15  C   UNL     1     -44.762 -53.406  12.653  1.00  0.00     0.152 C 
BRANCH  15  16
HETATM   16  C   UNL     1     -45.835 -52.381  13.191  1.00  0.00     0.036 C 
HETATM   17  C   UNL     1     -45.056 -51.141  13.699  1.00  0.00     0.039 C 
HETATM   18  C   UNL     1     -46.735 -51.916  12.030  1.00  0.00     0.039 C 
BRANCH  16  19
HETATM   19  N   UNL     1     -46.583 -53.029  14.312  1.00  0.00    -0.399 N 
HETATM   20  C   UNL     1     -47.152 -52.151  15.359  1.00  0.00     0.144 C 
HETATM   21  C   UNL     1     -46.230 -51.891  16.564  1.00  0.00     0.187 C 
HETATM   22  O   UNL     1     -45.778 -53.113  17.154  1.00  0.00    -0.388 OA
HETATM   23  C   UNL     1     -45.112 -53.928  16.184  1.00  0.00     0.187 C 
HETATM   24  C   UNL     1     -46.018 -54.221  14.976  1.00  0.00     0.144 C 
ENDBRANCH  16  19
ENDBRANCH  15  16
ENDBRANCH   3  15
TORSDOF 5
ENDMDL
MODEL 7
REMARK VINA RESULT:      -5.7      2.595      4.150
REMARK  5 active torsions:
REMARK  status: ('A' for Active; 'I' for Inactive)
REMARK    1  A    between atoms: N_7  and  C_8 
REMARK    2  A    between atoms: C_8  and  C_9 
REMARK       I    between atoms: C_9  and  N_11 
REMARK    3  A    between atoms: N_11  and  C_12 
REMARK    4  A    between atoms: C_12  and  C_13 
REMARK    5  A    between atoms: C_13  and  N_16 
ROOT
HETATM    1  C   UNL     1     -41.524 -50.904  12.538  1.00  0.00     0.236 C 
HETATM    2  O   UNL     1     -40.801 -50.363  13.373  1.00  0.00    -0.272 OA
HETATM    3  N   UNL     1     -42.552 -50.245  11.890  1.00  0.00    -0.357 N 
HETATM    4  H   UNL     1     -42.988 -50.687  11.086  1.00  0.00     0.162 HD
ENDROOT
BRANCH   1   5
HETATM    5  C   UNL     1     -41.334 -52.369  12.142  1.00  0.00     0.235 C 
BRANCH   5   6
HETATM    6  N   UNL     1     -41.892 -53.292  13.123  1.00  0.00    -0.301 N 
HETATM    7  C   UNL     1     -41.076 -53.811  14.100  1.00  0.00     0.102 A 
HETATM    8  C   UNL     1     -41.546 -54.617  15.051  1.00  0.00     0.092 A 
HETATM    9  C   UNL     1     -42.967 -55.000  15.039  1.00  0.00     0.252 A 
HETATM   10  N   UNL     1     -43.715 -54.515  13.981  1.00  0.00    -0.271 N 
HETATM   11  O   UNL     1     -43.397 -55.708  15.947  1.00  0.00    -0.268 OA
HETATM   12  C   UNL     1     -45.098 -54.935  13.870  1.00  0.00     0.164 C 
HETATM   13  C   UNL     1     -43.240 -53.618  13.029  1.00  0.00     0.331 A 
HETATM   14  O   UNL     1     -43.962 -53.136  12.152  1.00  0.00    -0.246 OA
ENDBRANCH   5   6
ENDBRANCH   1   5
BRANCH   3  15
HETATM   15  C   UNL     1     -42.955 -48.916  12.330  1.00  0.00     0.152 C 
BRANCH  15  16
HETATM   16  C   UNL     1     -42.789 -47.726  11.307  1.00  0.00     0.036 C 
HETATM   17  C   UNL     1     -41.683 -48.146  10.305  1.00  0.00     0.039 C 
HETATM   18  C   UNL     1     -44.092 -47.545  10.506  1.00  0.00     0.039 C 
BRANCH  16  19
HETATM   19  N   UNL     1     -42.373 -46.507  12.068  1.00  0.00    -0.399 N 
HETATM   20  C   UNL     1     -42.186 -45.251  11.308  1.00  0.00     0.144 C 
HETATM   21  C   UNL     1     -40.757 -45.009  10.790  1.00  0.00     0.187 C 
HETATM   22  O   UNL     1     -39.796 -45.081  11.845  1.00  0.00    -0.388 OA
HETATM   23  C   UNL     1     -39.875 -46.342  12.518  1.00  0.00     0.187 C 
HETATM   24  C   UNL     1     -41.289 -46.601  13.065  1.00  0.00     0.144 C 
ENDBRANCH  16  19
ENDBRANCH  15  16
ENDBRANCH   3  15
TORSDOF 5
ENDMDL
MODEL 8
REMARK VINA RESULT:      -5.7      1.954      6.680
REMARK  5 active torsions:
REMARK  status: ('A' for Active; 'I' for Inactive)
REMARK    1  A    between atoms: N_7  and  C_8 
REMARK    2  A    between atoms: C_8  and  C_9 
REMARK       I    between atoms: C_9  and  N_11 
REMARK    3  A    between atoms: N_11  and  C_12 
REMARK    4  A    between atoms: C_12  and  C_13 
REMARK    5  A    between atoms: C_13  and  N_16 
ROOT
HETATM    1  C   UNL     1     -42.503 -54.183  13.440  1.00  0.00     0.236 C 
HETATM    2  O   UNL     1     -42.762 -54.693  14.529  1.00  0.00    -0.272 OA
HETATM    3  N   UNL     1     -43.463 -53.608  12.630  1.00  0.00    -0.357 N 
HETATM    4  H   UNL     1     -43.165 -53.044  11.839  1.00  0.00     0.162 HD
ENDROOT
BRANCH   1   5
HETATM    5  C   UNL     1     -41.075 -54.140  12.893  1.00  0.00     0.235 C 
BRANCH   5   6
HETATM    6  N   UNL     1     -40.325 -52.988  13.377  1.00  0.00    -0.301 N 
HETATM    7  C   UNL     1     -39.545 -53.115  14.502  1.00  0.00     0.102 A 
HETATM    8  C   UNL     1     -38.800 -52.108  14.957  1.00  0.00     0.092 A 
HETATM    9  C   UNL     1     -38.837 -50.810  14.265  1.00  0.00     0.252 A 
HETATM   10  N   UNL     1     -39.706 -50.720  13.192  1.00  0.00    -0.271 N 
HETATM   11  O   UNL     1     -38.112 -49.903  14.668  1.00  0.00    -0.268 OA
HETATM   12  C   UNL     1     -39.851 -49.438  12.531  1.00  0.00     0.164 C 
HETATM   13  C   UNL     1     -40.431 -51.791  12.677  1.00  0.00     0.331 A 
HETATM   14  O   UNL     1     -41.127 -51.697  11.663  1.00  0.00    -0.246 OA
ENDBRANCH   5   6
ENDBRANCH   1   5
BRANCH   3  15
HETATM   15  C   UNL     1     -44.876 -53.768  12.948  1.00  0.00     0.152 C 
BRANCH  15  16
HETATM   16  C   UNL     1     -45.705 -52.464  13.271  1.00  0.00     0.036 C 
HETATM   17  C   UNL     1     -44.680 -51.325  13.499  1.00  0.00     0.039 C 
HETATM   18  C   UNL     1     -46.559 -52.078  12.049  1.00  0.00     0.039 C 
BRANCH  16  19
HETATM   19  N   UNL     1     -46.503 -52.710  14.512  1.00  0.00    -0.399 N 
HETATM   20  C   UNL     1     -47.014 -51.532  15.247  1.00  0.00     0.144 C 
HETATM   21  C   UNL     1     -46.083 -50.997  16.350  1.00  0.00     0.187 C 
HETATM   22  O   UNL     1     -45.723 -52.023  17.277  1.00  0.00    -0.388 OA
HETATM   23  C   UNL     1     -45.110 -53.126  16.600  1.00  0.00     0.187 C 
HETATM   24  C   UNL     1     -46.028 -53.694  15.505  1.00  0.00     0.144 C 
ENDBRANCH  16  19
ENDBRANCH  15  16
ENDBRANCH   3  15
TORSDOF 5
ENDMDL
MODEL 9
REMARK VINA RESULT:      -5.7      2.476      7.513
REMARK  5 active torsions:
REMARK  status: ('A' for Active; 'I' for Inactive)
REMARK    1  A    between atoms: N_7  and  C_8 
REMARK    2  A    between atoms: C_8  and  C_9 
REMARK       I    between atoms: C_9  and  N_11 
REMARK    3  A    between atoms: N_11  and  C_12 
REMARK    4  A    between atoms: C_12  and  C_13 
REMARK    5  A    between atoms: C_13  and  N_16 
ROOT
HETATM    1  C   UNL     1     -41.972 -49.807  12.146  1.00  0.00     0.236 C 
HETATM    2  O   UNL     1     -42.546 -49.290  13.103  1.00  0.00    -0.272 OA
HETATM    3  N   UNL     1     -42.126 -51.136  11.803  1.00  0.00    -0.357 N 
HETATM    4  H   UNL     1     -41.776 -51.454  10.903  1.00  0.00     0.162 HD
ENDROOT
BRANCH   1   5
HETATM    5  C   UNL     1     -41.035 -49.002  11.244  1.00  0.00     0.235 C 
BRANCH   5   6
HETATM    6  N   UNL     1     -41.646 -47.772  10.756  1.00  0.00    -0.301 N 
HETATM    7  C   UNL     1     -42.717 -47.847   9.896  1.00  0.00     0.102 A 
HETATM    8  C   UNL     1     -43.345 -46.755   9.461  1.00  0.00     0.092 A 
HETATM    9  C   UNL     1     -42.861 -45.428   9.875  1.00  0.00     0.252 A 
HETATM   10  N   UNL     1     -41.729 -45.418  10.670  1.00  0.00    -0.271 N 
HETATM   11  O   UNL     1     -43.476 -44.431   9.503  1.00  0.00    -0.268 OA
HETATM   12  C   UNL     1     -41.156 -44.136  11.032  1.00  0.00     0.164 C 
HETATM   13  C   UNL     1     -41.116 -46.559  11.180  1.00  0.00     0.331 A 
HETATM   14  O   UNL     1     -40.162 -46.509  11.960  1.00  0.00    -0.246 OA
ENDBRANCH   5   6
ENDBRANCH   1   5
BRANCH   3  15
HETATM   15  C   UNL     1     -42.828 -52.044  12.700  1.00  0.00     0.152 C 
BRANCH  15  16
HETATM   16  C   UNL     1     -41.956 -53.019  13.583  1.00  0.00     0.036 C 
HETATM   17  C   UNL     1     -40.695 -53.369  12.753  1.00  0.00     0.039 C 
HETATM   18  C   UNL     1     -41.484 -52.287  14.853  1.00  0.00     0.039 C 
BRANCH  16  19
HETATM   19  N   UNL     1     -42.762 -54.249  13.860  1.00  0.00    -0.399 N 
HETATM   20  C   UNL     1     -44.212 -54.202  13.565  1.00  0.00     0.144 C 
HETATM   21  C   UNL     1     -45.102 -53.757  14.740  1.00  0.00     0.187 C 
HETATM   22  O   UNL     1     -44.872 -54.553  15.905  1.00  0.00    -0.388 OA
HETATM   23  C   UNL     1     -43.492 -54.512  16.283  1.00  0.00     0.187 C 
HETATM   24  C   UNL     1     -42.579 -54.973  15.133  1.00  0.00     0.144 C 
ENDBRANCH  16  19
ENDBRANCH  15  16
ENDBRANCH   3  15
TORSDOF 5
ENDMDL
