MODEL 1
REMARK VINA RESULT:      -6.3      0.000      0.000
REMARK  5 active torsions:
REMARK  status: ('A' for Active; 'I' for Inactive)
REMARK    1  A    between atoms: C_2  and  N_3 
REMARK    2  A    between atoms: N_6  and  C_9 
REMARK    3  A    between atoms: C_9  and  C_11 
REMARK    4  A    between atoms: C_11  and  N_12 
REMARK       I    between atoms: N_12  and  C_13 
REMARK       I    between atoms: C_13  and  N_15 
REMARK    5  A    between atoms: N_15  and  C_16 
ROOT
HETATM    1  N   UNL     1     -40.776 -50.968  11.577  1.00  0.00    -0.341 N 
HETATM    2  C   UNL     1     -41.243 -49.675  11.613  1.00  0.00     0.321 C 
HETATM    3  O   UNL     1     -41.520 -49.100  12.658  1.00  0.00    -0.247 OA
HETATM    4  N   UNL     1     -41.383 -49.156  10.351  1.00  0.00    -0.293 N 
HETATM    5  H   UNL     1     -40.300 -51.255  10.738  1.00  0.00     0.164 HD
HETATM    6  H   UNL     1     -41.563 -49.797   9.595  1.00  0.00     0.172 HD
ENDROOT
BRANCH   1   7
HETATM    7  C   UNL     1     -40.487 -51.655  12.826  1.00  0.00     0.159 C 
BRANCH   7   8
HETATM    8  C   UNL     1     -41.526 -52.733  13.268  1.00  0.00     0.236 C 
HETATM    9  C   UNL     1     -40.946 -54.087  12.809  1.00  0.00     0.044 C 
BRANCH   8  10
HETATM   10  N   UNL     1     -42.896 -52.527  12.703  1.00  0.00     0.097 N 
HETATM   11  C   UNL     1     -43.696 -51.501  13.406  1.00  0.00     0.303 C 
HETATM   12  C   UNL     1     -44.121 -51.920  14.839  1.00  0.00     0.302 C 
HETATM   13  N   UNL     1     -44.913 -53.171  14.882  1.00  0.00     0.091 N 
HETATM   14  C   UNL     1     -44.205 -54.210  14.104  1.00  0.00     0.302 C 
HETATM   15  C   UNL     1     -43.733 -53.754  12.697  1.00  0.00     0.303 C 
BRANCH  13  16
HETATM   16  C   UNL     1     -46.283 -52.901  14.414  1.00  0.00     0.268 C 
HETATM   17  C   UNL     1     -46.934 -51.666  15.022  1.00  0.00     0.037 C 
ENDBRANCH  13  16
ENDBRANCH   8  10
ENDBRANCH   7   8
ENDBRANCH   1   7
BRANCH   4  18
HETATM   18  C   UNL     1     -41.878 -47.890  10.131  1.00  0.00     0.132 A 
HETATM   19  C   UNL     1     -43.186 -47.503   9.773  1.00  0.00     0.084 A 
HETATM   20  C   UNL     1     -43.097 -46.151   9.569  1.00  0.00     0.076 A 
HETATM   21  C   UNL     1     -44.037 -45.118   9.105  1.00  0.00     0.079 C 
HETATM   22  O   UNL     1     -41.833 -45.740   9.852  1.00  0.00    -0.241 OA
HETATM   23  N   UNL     1     -41.077 -46.825  10.259  1.00  0.00    -0.245 N 
ATOM     24  HN  UNL     1     -40.111 -46.816  10.587  1.00  0.00     0.196 HD
ENDBRANCH   4  18
TORSDOF 5
ENDMDL
MODEL 2
REMARK VINA RESULT:      -6.1      3.191      6.978
REMARK  5 active torsions:
REMARK  status: ('A' for Active; 'I' for Inactive)
REMARK    1  A    between atoms: C_2  and  N_3 
REMARK    2  A    between atoms: N_6  and  C_9 
REMARK    3  A    between atoms: C_9  and  C_11 
REMARK    4  A    between atoms: C_11  and  N_12 
REMARK       I    between atoms: N_12  and  C_13 
REMARK       I    between atoms: C_13  and  N_15 
REMARK    5  A    between atoms: N_15  and  C_16 
ROOT
HETATM    1  N   UNL     1     -39.761 -48.181  11.282  1.00  0.00    -0.341 N 
HETATM    2  C   UNL     1     -40.266 -49.214  12.035  1.00  0.00     0.321 C 
HETATM    3  O   UNL     1     -40.922 -49.031  13.054  1.00  0.00    -0.247 OA
HETATM    4  N   UNL     1     -39.910 -50.435  11.520  1.00  0.00    -0.293 N 
HETATM    5  H   UNL     1     -39.505 -48.396  10.332  1.00  0.00     0.164 HD
HETATM    6  H   UNL     1     -39.053 -50.491  10.992  1.00  0.00     0.172 HD
ENDROOT
BRANCH   1   7
HETATM    7  C   UNL     1     -40.105 -46.812  11.630  1.00  0.00     0.159 C 
BRANCH   7   8
HETATM    8  C   UNL     1     -40.867 -46.001  10.536  1.00  0.00     0.236 C 
HETATM    9  C   UNL     1     -40.064 -44.698  10.343  1.00  0.00     0.044 C 
BRANCH   8  10
HETATM   10  N   UNL     1     -42.290 -45.697  10.884  1.00  0.00     0.097 N 
HETATM   11  C   UNL     1     -43.048 -46.853  11.411  1.00  0.00     0.303 C 
HETATM   12  C   UNL     1     -43.321 -47.952  10.349  1.00  0.00     0.302 C 
HETATM   13  N   UNL     1     -44.070 -47.463   9.168  1.00  0.00     0.091 N 
HETATM   14  C   UNL     1     -43.411 -46.243   8.658  1.00  0.00     0.302 C 
HETATM   15  C   UNL     1     -43.090 -45.180   9.743  1.00  0.00     0.303 C 
BRANCH  13  16
HETATM   16  C   UNL     1     -45.486 -47.275   9.527  1.00  0.00     0.268 C 
HETATM   17  C   UNL     1     -46.453 -48.220   8.827  1.00  0.00     0.037 C 
ENDBRANCH  13  16
ENDBRANCH   8  10
ENDBRANCH   7   8
ENDBRANCH   1   7
BRANCH   4  18
HETATM   18  C   UNL     1     -40.262 -51.618  12.130  1.00  0.00     0.132 A 
HETATM   19  C   UNL     1     -39.851 -52.123  13.381  1.00  0.00     0.084 A 
HETATM   20  C   UNL     1     -40.402 -53.377  13.439  1.00  0.00     0.076 A 
HETATM   21  C   UNL     1     -40.325 -54.489  14.399  1.00  0.00     0.079 C 
HETATM   22  O   UNL     1     -41.151 -53.586  12.325  1.00  0.00    -0.241 OA
HETATM   23  N   UNL     1     -41.109 -52.458  11.524  1.00  0.00    -0.245 N 
ATOM     24  HN  UNL     1     -41.616 -52.301  10.653  1.00  0.00     0.196 HD
ENDBRANCH   4  18
TORSDOF 5
ENDMDL
MODEL 3
REMARK VINA RESULT:      -6.1      2.238      7.045
REMARK  5 active torsions:
REMARK  status: ('A' for Active; 'I' for Inactive)
REMARK    1  A    between atoms: C_2  and  N_3 
REMARK    2  A    between atoms: N_6  and  C_9 
REMARK    3  A    between atoms: C_9  and  C_11 
REMARK    4  A    between atoms: C_11  and  N_12 
REMARK       I    between atoms: N_12  and  C_13 
REMARK       I    between atoms: C_13  and  N_15 
REMARK    5  A    between atoms: N_15  and  C_16 
ROOT
HETATM    1  N   UNL     1     -41.287 -49.867  11.502  1.00  0.00    -0.341 N 
HETATM    2  C   UNL     1     -41.961 -50.685  12.376  1.00  0.00     0.321 C 
HETATM    3  O   UNL     1     -42.215 -50.356  13.529  1.00  0.00    -0.247 OA
HETATM    4  N   UNL     1     -42.264 -51.894  11.803  1.00  0.00    -0.293 N 
HETATM    5  H   UNL     1     -41.382 -50.075  10.522  1.00  0.00     0.164 HD
HETATM    6  H   UNL     1     -41.662 -52.232  11.069  1.00  0.00     0.172 HD
ENDROOT
BRANCH   1   7
HETATM    7  C   UNL     1     -40.955 -48.511  11.908  1.00  0.00     0.159 C 
BRANCH   7   8
HETATM    8  C   UNL     1     -41.269 -47.390  10.868  1.00  0.00     0.236 C 
HETATM    9  C   UNL     1     -40.044 -46.451  10.879  1.00  0.00     0.044 C 
BRANCH   8  10
HETATM   10  N   UNL     1     -42.523 -46.626  11.156  1.00  0.00     0.097 N 
HETATM   11  C   UNL     1     -43.755 -47.442  11.115  1.00  0.00     0.303 C 
HETATM   12  C   UNL     1     -44.129 -47.929   9.689  1.00  0.00     0.302 C 
HETATM   13  N   UNL     1     -44.323 -46.829   8.716  1.00  0.00     0.091 N 
HETATM   14  C   UNL     1     -43.158 -45.921   8.788  1.00  0.00     0.302 C 
HETATM   15  C   UNL     1     -42.761 -45.492  10.226  1.00  0.00     0.303 C 
BRANCH  13  16
HETATM   16  C   UNL     1     -45.614 -46.170   8.971  1.00  0.00     0.268 C 
HETATM   17  C   UNL     1     -46.808 -47.112   9.046  1.00  0.00     0.037 C 
ENDBRANCH  13  16
ENDBRANCH   8  10
ENDBRANCH   7   8
ENDBRANCH   1   7
BRANCH   4  18
HETATM   18  C   UNL     1     -42.900 -52.897  12.501  1.00  0.00     0.132 A 
HETATM   19  C   UNL     1     -44.221 -53.370  12.361  1.00  0.00     0.084 A 
HETATM   20  C   UNL     1     -44.364 -54.281  13.375  1.00  0.00     0.076 A 
HETATM   21  C   UNL     1     -45.486 -55.092  13.877  1.00  0.00     0.079 C 
HETATM   22  O   UNL     1     -43.185 -54.399  14.039  1.00  0.00    -0.241 OA
HETATM   23  N   UNL     1     -42.244 -53.567  13.456  1.00  0.00    -0.245 N 
ATOM     24  HN  UNL     1     -41.258 -53.483  13.704  1.00  0.00     0.196 HD
ENDBRANCH   4  18
TORSDOF 5
ENDMDL
MODEL 4
REMARK VINA RESULT:      -6.0      3.598      7.075
REMARK  5 active torsions:
REMARK  status: ('A' for Active; 'I' for Inactive)
REMARK    1  A    between atoms: C_2  and  N_3 
REMARK    2  A    between atoms: N_6  and  C_9 
REMARK    3  A    between atoms: C_9  and  C_11 
REMARK    4  A    between atoms: C_11  and  N_12 
REMARK       I    between atoms: N_12  and  C_13 
REMARK       I    between atoms: C_13  and  N_15 
REMARK    5  A    between atoms: N_15  and  C_16 
ROOT
HETATM    1  N   UNL     1     -40.489 -50.988  11.427  1.00  0.00    -0.341 N 
HETATM    2  C   UNL     1     -41.726 -51.266  11.960  1.00  0.00     0.321 C 
HETATM    3  O   UNL     1     -42.432 -50.408  12.475  1.00  0.00    -0.247 OA
HETATM    4  N   UNL     1     -42.025 -52.601  11.866  1.00  0.00    -0.293 N 
HETATM    5  H   UNL     1     -40.116 -51.657  10.774  1.00  0.00     0.164 HD
HETATM    6  H   UNL     1     -41.260 -53.256  11.853  1.00  0.00     0.172 HD
ENDROOT
BRANCH   1   7
HETATM    7  C   UNL     1     -40.036 -49.607  11.363  1.00  0.00     0.159 C 
BRANCH   7   8
HETATM    8  C   UNL     1     -38.747 -49.274  12.178  1.00  0.00     0.236 C 
HETATM    9  C   UNL     1     -37.615 -50.100  11.531  1.00  0.00     0.044 C 
BRANCH   8  10
HETATM   10  N   UNL     1     -38.854 -49.579  13.639  1.00  0.00     0.097 N 
HETATM   11  C   UNL     1     -39.889 -48.797  14.350  1.00  0.00     0.303 C 
HETATM   12  C   UNL     1     -39.548 -47.287  14.475  1.00  0.00     0.302 C 
HETATM   13  N   UNL     1     -38.268 -47.023  15.174  1.00  0.00     0.091 N 
HETATM   14  C   UNL     1     -37.213 -47.861  14.566  1.00  0.00     0.302 C 
HETATM   15  C   UNL     1     -37.593 -49.355  14.393  1.00  0.00     0.303 C 
BRANCH  13  16
HETATM   16  C   UNL     1     -38.446 -47.237  16.620  1.00  0.00     0.268 C 
HETATM   17  C   UNL     1     -37.162 -47.180  17.437  1.00  0.00     0.037 C 
ENDBRANCH  13  16
ENDBRANCH   8  10
ENDBRANCH   7   8
ENDBRANCH   1   7
BRANCH   4  18
HETATM   18  C   UNL     1     -43.193 -53.126  12.374  1.00  0.00     0.132 A 
HETATM   19  C   UNL     1     -43.364 -54.234  13.229  1.00  0.00     0.084 A 
HETATM   20  C   UNL     1     -44.723 -54.386  13.320  1.00  0.00     0.076 A 
HETATM   21  C   UNL     1     -45.606 -55.372  13.965  1.00  0.00     0.079 C 
HETATM   22  O   UNL     1     -45.330 -53.393  12.619  1.00  0.00    -0.241 OA
HETATM   23  N   UNL     1     -44.369 -52.566  12.067  1.00  0.00    -0.245 N 
ATOM     24  HN  UNL     1     -44.524 -51.708  11.536  1.00  0.00     0.196 HD
ENDBRANCH   4  18
TORSDOF 5
ENDMDL
MODEL 5
REMARK VINA RESULT:      -5.9      3.122      4.320
REMARK  5 active torsions:
REMARK  status: ('A' for Active; 'I' for Inactive)
REMARK    1  A    between atoms: C_2  and  N_3 
REMARK    2  A    between atoms: N_6  and  C_9 
REMARK    3  A    between atoms: C_9  and  C_11 
REMARK    4  A    between atoms: C_11  and  N_12 
REMARK       I    between atoms: N_12  and  C_13 
REMARK       I    between atoms: C_13  and  N_15 
REMARK    5  A    between atoms: N_15  and  C_16 
ROOT
HETATM    1  N   UNL     1     -43.569 -53.329  12.128  1.00  0.00    -0.341 N 
HETATM    2  C   UNL     1     -42.751 -52.251  12.373  1.00  0.00     0.321 C 
HETATM    3  O   UNL     1     -43.079 -51.326  13.106  1.00  0.00    -0.247 OA
HETATM    4  N   UNL     1     -41.575 -52.342  11.673  1.00  0.00    -0.293 N 
HETATM    5  H   UNL     1     -43.127 -54.161  11.774  1.00  0.00     0.164 HD
HETATM    6  H   UNL     1     -41.580 -52.856  10.807  1.00  0.00     0.172 HD
ENDROOT
BRANCH   1   7
HETATM    7  C   UNL     1     -44.827 -53.446  12.848  1.00  0.00     0.159 C 
BRANCH   7   8
HETATM    8  C   UNL     1     -44.713 -53.740  14.376  1.00  0.00     0.236 C 
HETATM    9  C   UNL     1     -43.924 -55.061  14.492  1.00  0.00     0.044 C 
BRANCH   8  10
HETATM   10  N   UNL     1     -46.032 -53.850  15.075  1.00  0.00     0.097 N 
HETATM   11  C   UNL     1     -47.061 -52.909  14.583  1.00  0.00     0.303 C 
HETATM   12  C   UNL     1     -46.762 -51.425  14.930  1.00  0.00     0.302 C 
HETATM   13  N   UNL     1     -46.623 -51.172  16.383  1.00  0.00     0.091 N 
HETATM   14  C   UNL     1     -45.676 -52.156  16.949  1.00  0.00     0.302 C 
HETATM   15  C   UNL     1     -45.954 -53.628  16.542  1.00  0.00     0.303 C 
BRANCH  13  16
HETATM   16  C   UNL     1     -47.953 -51.187  17.014  1.00  0.00     0.268 C 
HETATM   17  C   UNL     1     -48.149 -50.157  18.118  1.00  0.00     0.037 C 
ENDBRANCH  13  16
ENDBRANCH   8  10
ENDBRANCH   7   8
ENDBRANCH   1   7
BRANCH   4  18
HETATM   18  C   UNL     1     -40.615 -51.355  11.723  1.00  0.00     0.132 A 
HETATM   19  C   UNL     1     -39.501 -51.250  12.580  1.00  0.00     0.084 A 
HETATM   20  C   UNL     1     -38.957 -50.028  12.283  1.00  0.00     0.076 A 
HETATM   21  C   UNL     1     -37.845 -49.236  12.833  1.00  0.00     0.079 C 
HETATM   22  O   UNL     1     -39.660 -49.464  11.266  1.00  0.00    -0.241 OA
HETATM   23  N   UNL     1     -40.672 -50.322  10.874  1.00  0.00    -0.245 N 
ATOM     24  HN  UNL     1     -41.325 -50.193  10.101  1.00  0.00     0.196 HD
ENDBRANCH   4  18
TORSDOF 5
ENDMDL
MODEL 6
REMARK VINA RESULT:      -5.9      1.739      2.174
REMARK  5 active torsions:
REMARK  status: ('A' for Active; 'I' for Inactive)
REMARK    1  A    between atoms: C_2  and  N_3 
REMARK    2  A    between atoms: N_6  and  C_9 
REMARK    3  A    between atoms: C_9  and  C_11 
REMARK    4  A    between atoms: C_11  and  N_12 
REMARK       I    between atoms: N_12  and  C_13 
REMARK       I    between atoms: C_13  and  N_15 
REMARK    5  A    between atoms: N_15  and  C_16 
ROOT
HETATM    1  N   UNL     1     -41.024 -52.818  11.717  1.00  0.00    -0.341 N 
HETATM    2  C   UNL     1     -40.744 -51.515  12.054  1.00  0.00     0.321 C 
HETATM    3  O   UNL     1     -40.484 -51.170  13.201  1.00  0.00    -0.247 OA
HETATM    4  N   UNL     1     -40.830 -50.684  10.967  1.00  0.00    -0.293 N 
HETATM    5  H   UNL     1     -40.928 -53.065  10.746  1.00  0.00     0.164 HD
HETATM    6  H   UNL     1     -41.451 -50.949  10.219  1.00  0.00     0.172 HD
ENDROOT
BRANCH   1   7
HETATM    7  C   UNL     1     -40.901 -53.857  12.727  1.00  0.00     0.159 C 
BRANCH   7   8
HETATM    8  C   UNL     1     -41.771 -53.668  14.009  1.00  0.00     0.236 C 
HETATM    9  C   UNL     1     -41.082 -54.501  15.111  1.00  0.00     0.044 C 
BRANCH   8  10
HETATM   10  N   UNL     1     -43.197 -54.089  13.845  1.00  0.00     0.097 N 
HETATM   11  C   UNL     1     -43.963 -53.275  12.876  1.00  0.00     0.303 C 
HETATM   12  C   UNL     1     -44.227 -51.823  13.357  1.00  0.00     0.302 C 
HETATM   13  N   UNL     1     -44.960 -51.746  14.642  1.00  0.00     0.091 N 
HETATM   14  C   UNL     1     -44.292 -52.626  15.624  1.00  0.00     0.302 C 
HETATM   15  C   UNL     1     -43.982 -54.056  15.106  1.00  0.00     0.303 C 
BRANCH  13  16
HETATM   16  C   UNL     1     -46.380 -52.067  14.417  1.00  0.00     0.268 C 
HETATM   17  C   UNL     1     -47.283 -51.850  15.622  1.00  0.00     0.037 C 
ENDBRANCH  13  16
ENDBRANCH   8  10
ENDBRANCH   7   8
ENDBRANCH   1   7
BRANCH   4  18
HETATM   18  C   UNL     1     -40.636 -49.324  11.068  1.00  0.00     0.132 A 
HETATM   19  C   UNL     1     -41.529 -48.279  10.755  1.00  0.00     0.084 A 
HETATM   20  C   UNL     1     -40.790 -47.137  10.926  1.00  0.00     0.076 A 
HETATM   21  C   UNL     1     -41.045 -45.705  10.705  1.00  0.00     0.079 C 
HETATM   22  O   UNL     1     -39.553 -47.472  11.378  1.00  0.00    -0.241 OA
HETATM   23  N   UNL     1     -39.470 -48.846  11.520  1.00  0.00    -0.245 N 
ATOM     24  HN  UNL     1     -38.685 -49.382  11.891  1.00  0.00     0.196 HD
ENDBRANCH   4  18
TORSDOF 5
ENDMDL
MODEL 7
REMARK VINA RESULT:      -5.7      3.056      7.210
REMARK  5 active torsions:
REMARK  status: ('A' for Active; 'I' for Inactive)
REMARK    1  A    between atoms: C_2  and  N_3 
REMARK    2  A    between atoms: N_6  and  C_9 
REMARK    3  A    between atoms: C_9  and  C_11 
REMARK    4  A    between atoms: C_11  and  N_12 
REMARK       I    between atoms: N_12  and  C_13 
REMARK       I    between atoms: C_13  and  N_15 
REMARK    5  A    between atoms: N_15  and  C_16 
ROOT
HETATM    1  N   UNL     1     -39.969 -51.297  11.996  1.00  0.00    -0.341 N 
HETATM    2  C   UNL     1     -41.311 -51.528  12.192  1.00  0.00     0.321 C 
HETATM    3  O   UNL     1     -42.138 -50.625  12.235  1.00  0.00    -0.247 OA
HETATM    4  N   UNL     1     -41.572 -52.864  12.363  1.00  0.00    -0.293 N 
HETATM    5  H   UNL     1     -39.417 -52.077  11.679  1.00  0.00     0.164 HD
HETATM    6  H   UNL     1     -40.841 -53.441  12.746  1.00  0.00     0.172 HD
ENDROOT
BRANCH   1   7
HETATM    7  C   UNL     1     -39.513 -49.945  11.715  1.00  0.00     0.159 C 
BRANCH   7   8
HETATM    8  C   UNL     1     -39.029 -49.118  12.947  1.00  0.00     0.236 C 
HETATM    9  C   UNL     1     -38.531 -50.152  13.978  1.00  0.00     0.044 C 
BRANCH   8  10
HETATM   10  N   UNL     1     -40.085 -48.242  13.545  1.00  0.00     0.097 N 
HETATM   11  C   UNL     1     -40.756 -47.348  12.576  1.00  0.00     0.303 C 
HETATM   12  C   UNL     1     -39.835 -46.224  12.030  1.00  0.00     0.302 C 
HETATM   13  N   UNL     1     -39.273 -45.350  13.086  1.00  0.00     0.091 N 
HETATM   14  C   UNL     1     -38.675 -46.200  14.138  1.00  0.00     0.302 C 
HETATM   15  C   UNL     1     -39.586 -47.357  14.629  1.00  0.00     0.303 C 
BRANCH  13  16
HETATM   16  C   UNL     1     -40.318 -44.436  13.575  1.00  0.00     0.268 C 
HETATM   17  C   UNL     1     -40.947 -43.554  12.505  1.00  0.00     0.037 C 
ENDBRANCH  13  16
ENDBRANCH   8  10
ENDBRANCH   7   8
ENDBRANCH   1   7
BRANCH   4  18
HETATM   18  C   UNL     1     -42.841 -53.334  12.619  1.00  0.00     0.132 A 
HETATM   19  C   UNL     1     -43.267 -54.216  13.634  1.00  0.00     0.084 A 
HETATM   20  C   UNL     1     -44.591 -54.437  13.357  1.00  0.00     0.076 A 
HETATM   21  C   UNL     1     -45.632 -55.300  13.939  1.00  0.00     0.079 C 
HETATM   22  O   UNL     1     -44.954 -53.684  12.286  1.00  0.00    -0.241 OA
HETATM   23  N   UNL     1     -43.867 -52.947  11.852  1.00  0.00    -0.245 N 
ATOM     24  HN  UNL     1     -43.851 -52.253  11.104  1.00  0.00     0.196 HD
ENDBRANCH   4  18
TORSDOF 5
ENDMDL
MODEL 8
REMARK VINA RESULT:      -5.6      4.157      6.015
REMARK  5 active torsions:
REMARK  status: ('A' for Active; 'I' for Inactive)
REMARK    1  A    between atoms: C_2  and  N_3 
REMARK    2  A    between atoms: N_6  and  C_9 
REMARK    3  A    between atoms: C_9  and  C_11 
REMARK    4  A    between atoms: C_11  and  N_12 
REMARK       I    between atoms: N_12  and  C_13 
REMARK       I    between atoms: C_13  and  N_15 
REMARK    5  A    between atoms: N_15  and  C_16 
ROOT
HETATM    1  N   UNL     1     -39.921 -48.604  11.188  1.00  0.00    -0.341 N 
HETATM    2  C   UNL     1     -40.974 -47.749  10.963  1.00  0.00     0.321 C 
HETATM    3  O   UNL     1     -41.153 -46.732  11.622  1.00  0.00    -0.247 OA
HETATM    4  N   UNL     1     -41.785 -48.204   9.955  1.00  0.00    -0.293 N 
HETATM    5  H   UNL     1     -39.677 -49.229  10.438  1.00  0.00     0.164 HD
HETATM    6  H   UNL     1     -41.825 -49.198   9.794  1.00  0.00     0.172 HD
ENDROOT
BRANCH   1   7
HETATM    7  C   UNL     1     -38.908 -48.243  12.167  1.00  0.00     0.159 C 
BRANCH   7   8
HETATM    8  C   UNL     1     -38.458 -49.383  13.135  1.00  0.00     0.236 C 
HETATM    9  C   UNL     1     -39.185 -50.655  12.652  1.00  0.00     0.044 C 
BRANCH   8  10
HETATM   10  N   UNL     1     -38.762 -49.115  14.575  1.00  0.00     0.097 N 
HETATM   11  C   UNL     1     -38.276 -47.807  15.066  1.00  0.00     0.303 C 
HETATM   12  C   UNL     1     -36.729 -47.714  15.157  1.00  0.00     0.302 C 
HETATM   13  N   UNL     1     -36.123 -48.742  16.034  1.00  0.00     0.091 N 
HETATM   14  C   UNL     1     -36.655 -50.067  15.651  1.00  0.00     0.302 C 
HETATM   15  C   UNL     1     -38.199 -50.127  15.505  1.00  0.00     0.303 C 
BRANCH  13  16
HETATM   16  C   UNL     1     -36.358 -48.386  17.444  1.00  0.00     0.268 C 
HETATM   17  C   UNL     1     -35.584 -47.169  17.933  1.00  0.00     0.037 C 
ENDBRANCH  13  16
ENDBRANCH   8  10
ENDBRANCH   7   8
ENDBRANCH   1   7
BRANCH   4  18
HETATM   18  C   UNL     1     -42.931 -47.538   9.580  1.00  0.00     0.132 A 
HETATM   19  C   UNL     1     -44.269 -47.820   9.924  1.00  0.00     0.084 A 
HETATM   20  C   UNL     1     -45.004 -46.926   9.189  1.00  0.00     0.076 A 
HETATM   21  C   UNL     1     -46.444 -46.701   8.988  1.00  0.00     0.079 C 
HETATM   22  O   UNL     1     -44.159 -46.114   8.501  1.00  0.00    -0.241 OA
HETATM   23  N   UNL     1     -42.851 -46.462   8.787  1.00  0.00    -0.245 N 
ATOM     24  HN  UNL     1     -42.004 -45.997   8.462  1.00  0.00     0.196 HD
ENDBRANCH   4  18
TORSDOF 5
ENDMDL
MODEL 9
REMARK VINA RESULT:      -5.6      2.317      3.129
REMARK  5 active torsions:
REMARK  status: ('A' for Active; 'I' for Inactive)
REMARK    1  A    between atoms: C_2  and  N_3 
REMARK    2  A    between atoms: N_6  and  C_9 
REMARK    3  A    between atoms: C_9  and  C_11 
REMARK    4  A    between atoms: C_11  and  N_12 
REMARK       I    between atoms: N_12  and  C_13 
REMARK       I    between atoms: C_13  and  N_15 
REMARK    5  A    between atoms: N_15  and  C_16 
ROOT
HETATM    1  N   UNL     1     -40.117 -50.081  11.413  1.00  0.00    -0.341 N 
HETATM    2  C   UNL     1     -40.768 -48.870  11.358  1.00  0.00     0.321 C 
HETATM    3  O   UNL     1     -41.970 -48.756  11.561  1.00  0.00    -0.247 OA
HETATM    4  N   UNL     1     -39.911 -47.854  11.018  1.00  0.00    -0.293 N 
HETATM    5  H   UNL     1     -39.119 -50.053  11.533  1.00  0.00     0.164 HD
HETATM    6  H   UNL     1     -39.105 -48.084  10.460  1.00  0.00     0.172 HD
ENDROOT
BRANCH   1   7
HETATM    7  C   UNL     1     -40.850 -51.263  11.839  1.00  0.00     0.159 C 
BRANCH   7   8
HETATM    8  C   UNL     1     -40.395 -51.896  13.191  1.00  0.00     0.236 C 
HETATM    9  C   UNL     1     -38.918 -51.487  13.371  1.00  0.00     0.044 C 
BRANCH   8  10
HETATM   10  N   UNL     1     -40.541 -53.385  13.246  1.00  0.00     0.097 N 
HETATM   11  C   UNL     1     -41.930 -53.866  13.084  1.00  0.00     0.303 C 
HETATM   12  C   UNL     1     -42.850 -53.520  14.286  1.00  0.00     0.302 C 
HETATM   13  N   UNL     1     -42.368 -54.059  15.579  1.00  0.00     0.091 N 
HETATM   14  C   UNL     1     -40.946 -53.692  15.746  1.00  0.00     0.302 C 
HETATM   15  C   UNL     1     -40.052 -53.989  14.512  1.00  0.00     0.303 C 
BRANCH  13  16
HETATM   16  C   UNL     1     -42.624 -55.508  15.632  1.00  0.00     0.268 C 
HETATM   17  C   UNL     1     -41.970 -56.230  16.803  1.00  0.00     0.037 C 
ENDBRANCH  13  16
ENDBRANCH   8  10
ENDBRANCH   7   8
ENDBRANCH   1   7
BRANCH   4  18
HETATM   18  C   UNL     1     -40.343 -46.556  10.857  1.00  0.00     0.132 A 
HETATM   19  C   UNL     1     -39.877 -45.385  11.489  1.00  0.00     0.084 A 
HETATM   20  C   UNL     1     -40.728 -44.403  11.055  1.00  0.00     0.076 A 
HETATM   21  C   UNL     1     -40.889 -42.973  11.362  1.00  0.00     0.079 C 
HETATM   22  O   UNL     1     -41.608 -44.936  10.167  1.00  0.00    -0.241 OA
HETATM   23  N   UNL     1     -41.333 -46.282   9.999  1.00  0.00    -0.245 N 
ATOM     24  HN  UNL     1     -41.790 -46.929   9.356  1.00  0.00     0.196 HD
ENDBRANCH   4  18
TORSDOF 5
ENDMDL
