MODEL 1
REMARK VINA RESULT:      -6.3      0.000      0.000
REMARK  4 active torsions:
REMARK  status: ('A' for Active; 'I' for Inactive)
REMARK    1  A    between atoms: O_2  and  C_3 
REMARK    2  A    between atoms: C_9  and  N_10 
REMARK       I    between atoms: N_10  and  C_11 
REMARK       I    between atoms: C_11  and  N_13 
REMARK    3  A    between atoms: N_13  and  C_14 
REMARK    4  A    between atoms: C_14  and  C_16 
ROOT
HETATM    1  N   UNL     1     -40.650 -49.402  10.423  1.00  0.00    -0.305 N 
HETATM    2  C   UNL     1     -41.606 -48.455  10.686  1.00  0.00     0.321 C 
HETATM    3  O   UNL     1     -41.779 -47.906  11.769  1.00  0.00    -0.247 OA
HETATM    4  N   UNL     1     -42.390 -48.136   9.601  1.00  0.00    -0.336 N 
HETATM    5  H   UNL     1     -40.324 -49.492   9.467  1.00  0.00     0.171 HD
HETATM    6  H   UNL     1     -42.446 -48.772   8.820  1.00  0.00     0.164 HD
ENDROOT
BRANCH   1   7
HETATM    7  C   UNL     1     -39.835 -50.015  11.416  1.00  0.00     0.087 A 
HETATM    8  C   UNL     1     -40.300 -51.094  12.181  1.00  0.00     0.169 A 
HETATM    9  N   UNL     1     -39.577 -51.700  13.158  1.00  0.00    -0.345 N 
HETATM   10  C   UNL     1     -38.336 -51.228  13.388  1.00  0.00     0.090 A 
ATOM     11  HN  UNL     1     -39.957 -52.480  13.694  1.00  0.00     0.167 HD
HETATM   12  C   UNL     1     -37.780 -50.175  12.692  1.00  0.00     0.019 A 
HETATM   13  C   UNL     1     -38.544 -49.562  11.702  1.00  0.00     0.035 A 
BRANCH   8  14
HETATM   14  O   UNL     1     -41.569 -51.583  11.904  1.00  0.00    -0.339 OA
HETATM   15  C   UNL     1     -42.483 -51.351  12.979  1.00  0.00     0.211 C 
ENDBRANCH   8  14
ENDBRANCH   1   7
BRANCH   4  16
HETATM   16  C   UNL     1     -43.470 -47.146   9.738  1.00  0.00     0.111 C 
HETATM   17  C   UNL     1     -42.894 -45.738   9.611  1.00  0.00     0.035 C 
BRANCH  16  18
HETATM   18  C   UNL     1     -44.626 -47.374   8.748  1.00  0.00     0.143 C 
HETATM   19  C   UNL     1     -45.912 -47.914   9.358  1.00  0.00     0.036 C 
HETATM   20  C   UNL     1     -46.530 -48.745   8.249  1.00  0.00     0.029 C 
HETATM   21  C   UNL     1     -45.520 -48.703   7.121  1.00  0.00     0.168 C 
HETATM   22  O   UNL     1     -44.278 -48.320   7.723  1.00  0.00    -0.384 OA
ENDBRANCH  16  18
ENDBRANCH   4  16
TORSDOF 4
ENDMDL
MODEL 2
REMARK VINA RESULT:      -6.1      3.153      5.040
REMARK  4 active torsions:
REMARK  status: ('A' for Active; 'I' for Inactive)
REMARK    1  A    between atoms: O_2  and  C_3 
REMARK    2  A    between atoms: C_9  and  N_10 
REMARK       I    between atoms: N_10  and  C_11 
REMARK       I    between atoms: C_11  and  N_13 
REMARK    3  A    between atoms: N_13  and  C_14 
REMARK    4  A    between atoms: C_14  and  C_16 
ROOT
HETATM    1  N   UNL     1     -42.929 -52.608  12.120  1.00  0.00    -0.305 N 
HETATM    2  C   UNL     1     -42.393 -51.428  12.566  1.00  0.00     0.321 C 
HETATM    3  O   UNL     1     -42.406 -51.040  13.730  1.00  0.00    -0.247 OA
HETATM    4  N   UNL     1     -41.803 -50.673  11.578  1.00  0.00    -0.336 N 
HETATM    5  H   UNL     1     -42.536 -53.018  11.281  1.00  0.00     0.171 HD
HETATM    6  H   UNL     1     -42.043 -50.839  10.613  1.00  0.00     0.164 HD
ENDROOT
BRANCH   1   7
HETATM    7  C   UNL     1     -43.733 -53.474  12.914  1.00  0.00     0.087 A 
HETATM    8  C   UNL     1     -45.131 -53.468  12.817  1.00  0.00     0.169 A 
HETATM    9  N   UNL     1     -45.949 -54.252  13.567  1.00  0.00    -0.345 N 
HETATM   10  C   UNL     1     -45.363 -55.086  14.448  1.00  0.00     0.090 A 
ATOM     11  HN  UNL     1     -46.963 -54.211  13.467  1.00  0.00     0.167 HD
HETATM   12  C   UNL     1     -43.997 -55.175  14.621  1.00  0.00     0.019 A 
HETATM   13  C   UNL     1     -43.180 -54.353  13.850  1.00  0.00     0.035 A 
BRANCH   8  14
HETATM   14  O   UNL     1     -45.710 -52.623  11.880  1.00  0.00    -0.339 OA
HETATM   15  C   UNL     1     -46.525 -51.618  12.490  1.00  0.00     0.211 C 
ENDBRANCH   8  14
ENDBRANCH   1   7
BRANCH   4  16
HETATM   16  C   UNL     1     -41.201 -49.371  11.906  1.00  0.00     0.111 C 
HETATM   17  C   UNL     1     -39.710 -49.399  11.577  1.00  0.00     0.035 C 
BRANCH  16  18
HETATM   18  C   UNL     1     -41.908 -48.189  11.219  1.00  0.00     0.143 C 
HETATM   19  C   UNL     1     -43.360 -47.972  11.625  1.00  0.00     0.036 C 
HETATM   20  C   UNL     1     -44.010 -47.388  10.384  1.00  0.00     0.029 C 
HETATM   21  C   UNL     1     -42.919 -47.398   9.332  1.00  0.00     0.168 C 
HETATM   22  O   UNL     1     -41.943 -48.341   9.790  1.00  0.00    -0.384 OA
ENDBRANCH  16  18
ENDBRANCH   4  16
TORSDOF 4
ENDMDL
MODEL 3
REMARK VINA RESULT:      -6.0      1.920      3.134
REMARK  4 active torsions:
REMARK  status: ('A' for Active; 'I' for Inactive)
REMARK    1  A    between atoms: O_2  and  C_3 
REMARK    2  A    between atoms: C_9  and  N_10 
REMARK       I    between atoms: N_10  and  C_11 
REMARK       I    between atoms: C_11  and  N_13 
REMARK    3  A    between atoms: N_13  and  C_14 
REMARK    4  A    between atoms: C_14  and  C_16 
ROOT
HETATM    1  N   UNL     1     -40.952 -50.671  11.347  1.00  0.00    -0.305 N 
HETATM    2  C   UNL     1     -41.178 -49.396  11.798  1.00  0.00     0.321 C 
HETATM    3  O   UNL     1     -41.420 -49.089  12.961  1.00  0.00    -0.247 OA
HETATM    4  N   UNL     1     -41.103 -48.434  10.816  1.00  0.00    -0.336 N 
HETATM    5  H   UNL     1     -40.387 -50.784  10.513  1.00  0.00     0.171 HD
HETATM    6  H   UNL     1     -41.196 -48.700   9.848  1.00  0.00     0.164 HD
ENDROOT
BRANCH   1   7
HETATM    7  C   UNL     1     -41.140 -51.843  12.132  1.00  0.00     0.087 A 
HETATM    8  C   UNL     1     -40.075 -52.440  12.821  1.00  0.00     0.169 A 
HETATM    9  N   UNL     1     -40.189 -53.572  13.564  1.00  0.00    -0.345 N 
HETATM   10  C   UNL     1     -41.409 -54.139  13.636  1.00  0.00     0.090 A 
ATOM     11  HN  UNL     1     -39.386 -53.975  14.046  1.00  0.00     0.167 HD
HETATM   12  C   UNL     1     -42.524 -53.634  13.000  1.00  0.00     0.019 A 
HETATM   13  C   UNL     1     -42.380 -52.479  12.236  1.00  0.00     0.035 A 
BRANCH   8  14
HETATM   14  O   UNL     1     -38.835 -51.819  12.757  1.00  0.00    -0.339 OA
HETATM   15  C   UNL     1     -38.487 -51.180  13.988  1.00  0.00     0.211 C 
ENDBRANCH   8  14
ENDBRANCH   1   7
BRANCH   4  16
HETATM   16  C   UNL     1     -41.341 -47.021  11.150  1.00  0.00     0.111 C 
HETATM   17  C   UNL     1     -40.179 -46.171  10.641  1.00  0.00     0.035 C 
BRANCH  16  18
HETATM   18  C   UNL     1     -42.692 -46.497  10.632  1.00  0.00     0.143 C 
HETATM   19  C   UNL     1     -43.776 -47.552  10.455  1.00  0.00     0.036 C 
HETATM   20  C   UNL     1     -44.614 -47.034   9.300  1.00  0.00     0.029 C 
HETATM   21  C   UNL     1     -43.905 -45.778   8.836  1.00  0.00     0.168 C 
HETATM   22  O   UNL     1     -42.568 -45.876   9.341  1.00  0.00    -0.384 OA
ENDBRANCH  16  18
ENDBRANCH   4  16
TORSDOF 4
ENDMDL
MODEL 4
REMARK VINA RESULT:      -5.8      2.408      6.521
REMARK  4 active torsions:
REMARK  status: ('A' for Active; 'I' for Inactive)
REMARK    1  A    between atoms: O_2  and  C_3 
REMARK    2  A    between atoms: C_9  and  N_10 
REMARK       I    between atoms: N_10  and  C_11 
REMARK       I    between atoms: C_11  and  N_13 
REMARK    3  A    between atoms: N_13  and  C_14 
REMARK    4  A    between atoms: C_14  and  C_16 
ROOT
HETATM    1  N   UNL     1     -41.449 -49.779  10.974  1.00  0.00    -0.305 N 
HETATM    2  C   UNL     1     -41.934 -50.479  12.049  1.00  0.00     0.321 C 
HETATM    3  O   UNL     1     -42.305 -49.982  13.107  1.00  0.00    -0.247 OA
HETATM    4  N   UNL     1     -41.989 -51.839  11.850  1.00  0.00    -0.336 N 
HETATM    5  H   UNL     1     -41.551 -50.193  10.055  1.00  0.00     0.171 HD
HETATM    6  H   UNL     1     -41.429 -52.262  11.125  1.00  0.00     0.164 HD
ENDROOT
BRANCH   1   7
HETATM    7  C   UNL     1     -41.141 -48.389  10.996  1.00  0.00     0.087 A 
HETATM    8  C   UNL     1     -41.846 -47.471  10.204  1.00  0.00     0.169 A 
HETATM    9  N   UNL     1     -41.580 -46.140  10.164  1.00  0.00    -0.345 N 
HETATM   10  C   UNL     1     -40.579 -45.689  10.946  1.00  0.00     0.090 A 
ATOM     11  HN  UNL     1     -42.115 -45.508   9.568  1.00  0.00     0.167 HD
HETATM   12  C   UNL     1     -39.826 -46.504  11.765  1.00  0.00     0.019 A 
HETATM   13  C   UNL     1     -40.109 -47.867  11.780  1.00  0.00     0.035 A 
BRANCH   8  14
HETATM   14  O   UNL     1     -42.893 -47.955   9.431  1.00  0.00    -0.339 OA
HETATM   15  C   UNL     1     -43.570 -46.911   8.726  1.00  0.00     0.211 C 
ENDBRANCH   8  14
ENDBRANCH   1   7
BRANCH   4  16
HETATM   16  C   UNL     1     -42.472 -52.721  12.925  1.00  0.00     0.111 C 
HETATM   17  C   UNL     1     -43.816 -53.326  12.526  1.00  0.00     0.035 C 
BRANCH  16  18
HETATM   18  C   UNL     1     -41.456 -53.811  13.313  1.00  0.00     0.143 C 
HETATM   19  C   UNL     1     -41.551 -54.310  14.749  1.00  0.00     0.036 C 
HETATM   20  C   UNL     1     -40.126 -54.692  15.105  1.00  0.00     0.029 C 
HETATM   21  C   UNL     1     -39.303 -54.301  13.894  1.00  0.00     0.168 C 
HETATM   22  O   UNL     1     -40.099 -53.356  13.170  1.00  0.00    -0.384 OA
ENDBRANCH  16  18
ENDBRANCH   4  16
TORSDOF 4
ENDMDL
MODEL 5
REMARK VINA RESULT:      -5.8      3.231      5.716
REMARK  4 active torsions:
REMARK  status: ('A' for Active; 'I' for Inactive)
REMARK    1  A    between atoms: O_2  and  C_3 
REMARK    2  A    between atoms: C_9  and  N_10 
REMARK       I    between atoms: N_10  and  C_11 
REMARK       I    between atoms: C_11  and  N_13 
REMARK    3  A    between atoms: N_13  and  C_14 
REMARK    4  A    between atoms: C_14  and  C_16 
ROOT
HETATM    1  N   UNL     1     -40.807 -51.441  13.669  1.00  0.00    -0.305 N 
HETATM    2  C   UNL     1     -41.585 -52.514  13.317  1.00  0.00     0.321 C 
HETATM    3  O   UNL     1     -41.327 -53.313  12.423  1.00  0.00    -0.247 OA
HETATM    4  N   UNL     1     -42.726 -52.649  14.075  1.00  0.00    -0.336 N 
HETATM    5  H   UNL     1     -40.874 -51.101  14.621  1.00  0.00     0.171 HD
HETATM    6  H   UNL     1     -43.079 -51.857  14.591  1.00  0.00     0.164 HD
ENDROOT
BRANCH   1   7
HETATM    7  C   UNL     1     -39.673 -50.998  12.931  1.00  0.00     0.087 A 
HETATM    8  C   UNL     1     -39.812 -50.217  11.775  1.00  0.00     0.169 A 
HETATM    9  N   UNL     1     -38.770 -49.788  11.017  1.00  0.00    -0.345 N 
HETATM   10  C   UNL     1     -37.532 -50.136  11.420  1.00  0.00     0.090 A 
ATOM     11  HN  UNL     1     -38.918 -49.225  10.179  1.00  0.00     0.167 HD
HETATM   12  C   UNL     1     -37.282 -50.897  12.543  1.00  0.00     0.019 A 
HETATM   13  C   UNL     1     -38.368 -51.336  13.297  1.00  0.00     0.035 A 
BRANCH   8  14
HETATM   14  O   UNL     1     -41.095 -49.845  11.397  1.00  0.00    -0.339 OA
HETATM   15  C   UNL     1     -41.159 -48.479  10.976  1.00  0.00     0.211 C 
ENDBRANCH   8  14
ENDBRANCH   1   7
BRANCH   4  16
HETATM   16  C   UNL     1     -43.667 -53.746  13.800  1.00  0.00     0.111 C 
HETATM   17  C   UNL     1     -43.462 -54.865  14.818  1.00  0.00     0.035 C 
BRANCH  16  18
HETATM   18  C   UNL     1     -45.135 -53.284  13.757  1.00  0.00     0.143 C 
HETATM   19  C   UNL     1     -45.345 -51.799  13.494  1.00  0.00     0.036 C 
HETATM   20  C   UNL     1     -46.627 -51.467  14.236  1.00  0.00     0.029 C 
HETATM   21  C   UNL     1     -47.010 -52.749  14.946  1.00  0.00     0.168 C 
HETATM   22  O   UNL     1     -45.815 -53.539  14.998  1.00  0.00    -0.384 OA
ENDBRANCH  16  18
ENDBRANCH   4  16
TORSDOF 4
ENDMDL
MODEL 6
REMARK VINA RESULT:      -5.6      2.694      6.154
REMARK  4 active torsions:
REMARK  status: ('A' for Active; 'I' for Inactive)
REMARK    1  A    between atoms: O_2  and  C_3 
REMARK    2  A    between atoms: C_9  and  N_10 
REMARK       I    between atoms: N_10  and  C_11 
REMARK       I    between atoms: C_11  and  N_13 
REMARK    3  A    between atoms: N_13  and  C_14 
REMARK    4  A    between atoms: C_14  and  C_16 
ROOT
HETATM    1  N   UNL     1     -42.381 -49.339  11.422  1.00  0.00    -0.305 N 
HETATM    2  C   UNL     1     -43.045 -49.573  12.599  1.00  0.00     0.321 C 
HETATM    3  O   UNL     1     -43.273 -48.732  13.462  1.00  0.00    -0.247 OA
HETATM    4  N   UNL     1     -43.467 -50.874  12.753  1.00  0.00    -0.336 N 
HETATM    5  H   UNL     1     -42.587 -49.944  10.635  1.00  0.00     0.171 HD
HETATM    6  H   UNL     1     -43.039 -51.606  12.207  1.00  0.00     0.164 HD
ENDROOT
BRANCH   1   7
HETATM    7  C   UNL     1     -41.707 -48.125  11.110  1.00  0.00     0.087 A 
HETATM    8  C   UNL     1     -42.264 -47.183  10.233  1.00  0.00     0.169 A 
HETATM    9  N   UNL     1     -41.657 -46.021   9.879  1.00  0.00    -0.345 N 
HETATM   10  C   UNL     1     -40.447 -45.771  10.419  1.00  0.00     0.090 A 
ATOM     11  HN  UNL     1     -42.096 -45.366   9.233  1.00  0.00     0.167 HD
HETATM   12  C   UNL     1     -39.811 -46.626  11.294  1.00  0.00     0.019 A 
HETATM   13  C   UNL     1     -40.449 -47.817  11.633  1.00  0.00     0.035 A 
BRANCH   8  14
HETATM   14  O   UNL     1     -43.524 -47.449   9.715  1.00  0.00    -0.339 OA
HETATM   15  C   UNL     1     -43.504 -47.590   8.292  1.00  0.00     0.211 C 
ENDBRANCH   8  14
ENDBRANCH   1   7
BRANCH   4  16
HETATM   16  C   UNL     1     -44.178 -51.277  13.977  1.00  0.00     0.111 C 
HETATM   17  C   UNL     1     -45.668 -51.428  13.677  1.00  0.00     0.035 C 
BRANCH  16  18
HETATM   18  C   UNL     1     -43.600 -52.552  14.618  1.00  0.00     0.143 C 
HETATM   19  C   UNL     1     -42.225 -52.970  14.115  1.00  0.00     0.036 C 
HETATM   20  C   UNL     1     -42.229 -54.483  14.235  1.00  0.00     0.029 C 
HETATM   21  C   UNL     1     -43.627 -54.833  14.704  1.00  0.00     0.168 C 
HETATM   22  O   UNL     1     -44.441 -53.696  14.390  1.00  0.00    -0.384 OA
ENDBRANCH  16  18
ENDBRANCH   4  16
TORSDOF 4
ENDMDL
MODEL 7
REMARK VINA RESULT:      -5.5      3.042      6.034
REMARK  4 active torsions:
REMARK  status: ('A' for Active; 'I' for Inactive)
REMARK    1  A    between atoms: O_2  and  C_3 
REMARK    2  A    between atoms: C_9  and  N_10 
REMARK       I    between atoms: N_10  and  C_11 
REMARK       I    between atoms: C_11  and  N_13 
REMARK    3  A    between atoms: N_13  and  C_14 
REMARK    4  A    between atoms: C_14  and  C_16 
ROOT
HETATM    1  N   UNL     1     -43.375 -48.893  11.513  1.00  0.00    -0.305 N 
HETATM    2  C   UNL     1     -43.507 -49.526  12.722  1.00  0.00     0.321 C 
HETATM    3  O   UNL     1     -42.986 -49.164  13.771  1.00  0.00    -0.247 OA
HETATM    4  N   UNL     1     -44.309 -50.644  12.682  1.00  0.00    -0.336 N 
HETATM    5  H   UNL     1     -44.120 -49.008  10.835  1.00  0.00     0.171 HD
HETATM    6  H   UNL     1     -44.489 -51.099  11.800  1.00  0.00     0.164 HD
ENDROOT
BRANCH   1   7
HETATM    7  C   UNL     1     -42.472 -47.821  11.264  1.00  0.00     0.087 A 
HETATM    8  C   UNL     1     -41.129 -48.057  10.939  1.00  0.00     0.169 A 
HETATM    9  N   UNL     1     -40.216 -47.076  10.717  1.00  0.00    -0.345 N 
HETATM   10  C   UNL     1     -40.647 -45.803  10.813  1.00  0.00     0.090 A 
ATOM     11  HN  UNL     1     -39.246 -47.293  10.488  1.00  0.00     0.167 HD
HETATM   12  C   UNL     1     -41.947 -45.459  11.122  1.00  0.00     0.019 A 
HETATM   13  C   UNL     1     -42.862 -46.482  11.357  1.00  0.00     0.035 A 
BRANCH   8  14
HETATM   14  O   UNL     1     -40.716 -49.377  10.816  1.00  0.00    -0.339 OA
HETATM   15  C   UNL     1     -39.755 -49.738  11.812  1.00  0.00     0.211 C 
ENDBRANCH   8  14
ENDBRANCH   1   7
BRANCH   4  16
HETATM   16  C   UNL     1     -44.528 -51.437  13.902  1.00  0.00     0.111 C 
HETATM   17  C   UNL     1     -45.986 -51.313  14.339  1.00  0.00     0.035 C 
BRANCH  16  18
HETATM   18  C   UNL     1     -44.109 -52.910  13.748  1.00  0.00     0.143 C 
HETATM   19  C   UNL     1     -45.242 -53.884  13.450  1.00  0.00     0.036 C 
HETATM   20  C   UNL     1     -44.795 -55.183  14.093  1.00  0.00     0.029 C 
HETATM   21  C   UNL     1     -43.493 -54.845  14.791  1.00  0.00     0.168 C 
HETATM   22  O   UNL     1     -43.488 -53.420  14.940  1.00  0.00    -0.384 OA
ENDBRANCH  16  18
ENDBRANCH   4  16
TORSDOF 4
ENDMDL
MODEL 8
REMARK VINA RESULT:      -5.5      3.210      5.632
REMARK  4 active torsions:
REMARK  status: ('A' for Active; 'I' for Inactive)
REMARK    1  A    between atoms: O_2  and  C_3 
REMARK    2  A    between atoms: C_9  and  N_10 
REMARK       I    between atoms: N_10  and  C_11 
REMARK       I    between atoms: C_11  and  N_13 
REMARK    3  A    between atoms: N_13  and  C_14 
REMARK    4  A    between atoms: C_14  and  C_16 
ROOT
HETATM    1  N   UNL     1     -43.681 -51.779  12.512  1.00  0.00    -0.305 N 
HETATM    2  C   UNL     1     -42.760 -50.808  12.808  1.00  0.00     0.321 C 
HETATM    3  O   UNL     1     -42.636 -50.258  13.898  1.00  0.00    -0.247 OA
HETATM    4  N   UNL     1     -41.937 -50.479  11.755  1.00  0.00    -0.336 N 
HETATM    5  H   UNL     1     -43.458 -52.431  11.769  1.00  0.00     0.171 HD
HETATM    6  H   UNL     1     -42.217 -50.703  10.813  1.00  0.00     0.164 HD
ENDROOT
BRANCH   1   7
HETATM    7  C   UNL     1     -44.743 -52.166  13.378  1.00  0.00     0.087 A 
HETATM    8  C   UNL     1     -44.788 -53.444  13.954  1.00  0.00     0.169 A 
HETATM    9  N   UNL     1     -45.788 -53.877  14.765  1.00  0.00    -0.345 N 
HETATM   10  C   UNL     1     -46.786 -53.010  15.027  1.00  0.00     0.090 A 
ATOM     11  HN  UNL     1     -45.784 -54.817  15.159  1.00  0.00     0.167 HD
HETATM   12  C   UNL     1     -46.838 -51.730  14.516  1.00  0.00     0.019 A 
HETATM   13  C   UNL     1     -45.807 -51.312  13.677  1.00  0.00     0.035 A 
BRANCH   8  14
HETATM   14  O   UNL     1     -43.733 -54.308  13.694  1.00  0.00    -0.339 OA
HETATM   15  C   UNL     1     -43.223 -54.910  14.887  1.00  0.00     0.211 C 
ENDBRANCH   8  14
ENDBRANCH   1   7
BRANCH   4  16
HETATM   16  C   UNL     1     -40.910 -49.438  11.920  1.00  0.00     0.111 C 
HETATM   17  C   UNL     1     -39.522 -50.067  11.826  1.00  0.00     0.035 C 
BRANCH  16  18
HETATM   18  C   UNL     1     -41.069 -48.271  10.928  1.00  0.00     0.143 C 
HETATM   19  C   UNL     1     -40.275 -47.016  11.264  1.00  0.00     0.036 C 
HETATM   20  C   UNL     1     -41.121 -45.883  10.713  1.00  0.00     0.029 C 
HETATM   21  C   UNL     1     -42.376 -46.551  10.189  1.00  0.00     0.168 C 
HETATM   22  O   UNL     1     -42.434 -47.831  10.832  1.00  0.00    -0.384 OA
ENDBRANCH  16  18
ENDBRANCH   4  16
TORSDOF 4
ENDMDL
MODEL 9
REMARK VINA RESULT:      -5.4      3.150      6.057
REMARK  4 active torsions:
REMARK  status: ('A' for Active; 'I' for Inactive)
REMARK    1  A    between atoms: O_2  and  C_3 
REMARK    2  A    between atoms: C_9  and  N_10 
REMARK       I    between atoms: N_10  and  C_11 
REMARK       I    between atoms: C_11  and  N_13 
REMARK    3  A    between atoms: N_13  and  C_14 
REMARK    4  A    between atoms: C_14  and  C_16 
ROOT
HETATM    1  N   UNL     1     -40.785 -50.694  11.009  1.00  0.00    -0.305 N 
HETATM    2  C   UNL     1     -41.107 -51.556  12.026  1.00  0.00     0.321 C 
HETATM    3  O   UNL     1     -41.530 -51.224  13.128  1.00  0.00    -0.247 OA
HETATM    4  N   UNL     1     -40.926 -52.884  11.711  1.00  0.00    -0.336 N 
HETATM    5  H   UNL     1     -40.838 -51.043  10.059  1.00  0.00     0.171 HD
HETATM    6  H   UNL     1     -40.321 -53.138  10.945  1.00  0.00     0.164 HD
ENDROOT
BRANCH   1   7
HETATM    7  C   UNL     1     -40.728 -49.279  11.147  1.00  0.00     0.087 A 
HETATM    8  C   UNL     1     -39.598 -48.640  11.676  1.00  0.00     0.169 A 
HETATM    9  N   UNL     1     -39.497 -47.297  11.854  1.00  0.00    -0.345 N 
HETATM   10  C   UNL     1     -40.555 -46.547  11.489  1.00  0.00     0.090 A 
ATOM     11  HN  UNL     1     -38.657 -46.874  12.248  1.00  0.00     0.167 HD
HETATM   12  C   UNL     1     -41.714 -47.072  10.955  1.00  0.00     0.019 A 
HETATM   13  C   UNL     1     -41.799 -48.453  10.792  1.00  0.00     0.035 A 
BRANCH   8  14
HETATM   14  O   UNL     1     -38.509 -49.431  12.016  1.00  0.00    -0.339 OA
HETATM   15  C   UNL     1     -38.235 -49.398  13.419  1.00  0.00     0.211 C 
ENDBRANCH   8  14
ENDBRANCH   1   7
BRANCH   4  16
HETATM   16  C   UNL     1     -41.215 -53.924  12.712  1.00  0.00     0.111 C 
HETATM   17  C   UNL     1     -40.092 -53.966  13.746  1.00  0.00     0.035 C 
BRANCH  16  18
HETATM   18  C   UNL     1     -42.591 -53.753  13.380  1.00  0.00     0.143 C 
HETATM   19  C   UNL     1     -42.876 -54.697  14.540  1.00  0.00     0.036 C 
HETATM   20  C   UNL     1     -44.378 -54.901  14.493  1.00  0.00     0.029 C 
HETATM   21  C   UNL     1     -44.837 -54.142  13.265  1.00  0.00     0.168 C 
HETATM   22  O   UNL     1     -43.668 -53.970  12.454  1.00  0.00    -0.384 OA
ENDBRANCH  16  18
ENDBRANCH   4  16
TORSDOF 4
ENDMDL
