MODEL 1
REMARK VINA RESULT:      -6.7      0.000      0.000
REMARK  5 active torsions:
REMARK  status: ('A' for Active; 'I' for Inactive)
REMARK    1  A    between atoms: N_7  and  C_8 
REMARK    2  A    between atoms: C_8  and  C_9 
REMARK    3  A    between atoms: C_9  and  O_10 
REMARK    4  A    between atoms: C_9  and  C_11 
REMARK    5  A    between atoms: C_11  and  N_12 
ROOT
HETATM    1  N   UNL     1     -41.735 -50.771  12.282  1.00  0.00    -0.339 N 
HETATM    2  C   UNL     1     -40.863 -51.732  11.852  1.00  0.00     0.184 A 
HETATM    3  N   UNL     1     -41.387 -52.932  11.937  1.00  0.00    -0.350 N 
ATOM      4  HN  UNL     1     -40.970 -53.812  11.632  1.00  0.00     0.166 HD
HETATM    5  C   UNL     1     -42.615 -52.750  12.522  1.00  0.00     0.060 A 
HETATM    6  C   UNL     1     -43.580 -53.696  12.895  1.00  0.00     0.039 A 
HETATM    7  C   UNL     1     -44.782 -53.273  13.501  1.00  0.00    -0.054 A 
HETATM    8  C   UNL     1     -45.781 -54.322  13.908  1.00  0.00     0.049 C 
HETATM    9  C   UNL     1     -45.015 -51.898  13.716  1.00  0.00    -0.054 A 
HETATM   10  C   UNL     1     -46.279 -51.374  14.352  1.00  0.00     0.049 C 
HETATM   11  C   UNL     1     -44.047 -50.943  13.339  1.00  0.00     0.039 A 
HETATM   12  C   UNL     1     -42.863 -51.401  12.752  1.00  0.00     0.062 A 
ENDROOT
BRANCH   1  13
HETATM   13  C   UNL     1     -41.487 -49.343  12.269  1.00  0.00     0.163 C 
BRANCH  13  14
HETATM   14  C   UNL     1     -42.082 -48.614  11.049  1.00  0.00     0.156 C 
BRANCH  14  15
HETATM   15  C   UNL     1     -43.268 -47.680  11.348  1.00  0.00     0.181 C 
BRANCH  15  16
HETATM   16  N   UNL     1     -43.648 -46.820  10.255  1.00  0.00    -0.263 N 
HETATM   17  C   UNL     1     -44.700 -46.920   9.380  1.00  0.00     0.105 A 
HETATM   18  C   UNL     1     -45.760 -47.946   9.418  1.00  0.00     0.091 C 
HETATM   19  N   UNL     1     -44.592 -45.932   8.515  1.00  0.00    -0.274 N 
HETATM   20  N   UNL     1     -43.486 -45.210   8.881  1.00  0.00    -0.007 NA
ATOM     21  HN  UNL     1     -45.211 -45.742   7.727  1.00  0.00     0.185 HD
HETATM   22  N   UNL     1     -42.913 -45.738   9.951  1.00  0.00    -0.005 NA
ENDBRANCH  15  16
ENDBRANCH  14  15
BRANCH  14  23
HETATM   23  O   UNL     1     -41.071 -47.892  10.330  1.00  0.00    -0.392 OA
HETATM   24  H   UNL     1     -41.352 -46.965  10.212  1.00  0.00     0.210 HD
ENDBRANCH  14  23
ENDBRANCH  13  14
ENDBRANCH   1  13
TORSDOF 5
ENDMDL
MODEL 2
REMARK VINA RESULT:      -6.6      3.990      5.165
REMARK  5 active torsions:
REMARK  status: ('A' for Active; 'I' for Inactive)
REMARK    1  A    between atoms: N_7  and  C_8 
REMARK    2  A    between atoms: C_8  and  C_9 
REMARK    3  A    between atoms: C_9  and  O_10 
REMARK    4  A    between atoms: C_9  and  C_11 
REMARK    5  A    between atoms: C_11  and  N_12 
ROOT
HETATM    1  N   UNL     1     -43.629 -53.076  13.305  1.00  0.00    -0.339 N 
HETATM    2  C   UNL     1     -44.362 -53.077  12.152  1.00  0.00     0.184 A 
HETATM    3  N   UNL     1     -45.558 -52.571  12.341  1.00  0.00    -0.350 N 
ATOM      4  HN  UNL     1     -46.279 -52.407  11.637  1.00  0.00     0.166 HD
HETATM    5  C   UNL     1     -45.632 -52.309  13.686  1.00  0.00     0.060 A 
HETATM    6  C   UNL     1     -46.699 -51.809  14.446  1.00  0.00     0.039 A 
HETATM    7  C   UNL     1     -46.548 -51.629  15.836  1.00  0.00    -0.054 A 
HETATM    8  C   UNL     1     -47.725 -51.112  16.619  1.00  0.00     0.049 C 
HETATM    9  C   UNL     1     -45.318 -51.940  16.457  1.00  0.00    -0.054 A 
HETATM   10  C   UNL     1     -45.085 -51.766  17.936  1.00  0.00     0.049 C 
HETATM   11  C   UNL     1     -44.242 -52.441  15.695  1.00  0.00     0.039 A 
HETATM   12  C   UNL     1     -44.433 -52.617  14.320  1.00  0.00     0.062 A 
ENDROOT
BRANCH   1  13
HETATM   13  C   UNL     1     -42.252 -53.516  13.426  1.00  0.00     0.163 C 
BRANCH  13  14
HETATM   14  C   UNL     1     -41.262 -52.727  12.550  1.00  0.00     0.156 C 
BRANCH  14  15
HETATM   15  C   UNL     1     -40.380 -51.710  13.298  1.00  0.00     0.181 C 
BRANCH  15  16
HETATM   16  N   UNL     1     -39.342 -51.109  12.499  1.00  0.00    -0.263 N 
HETATM   17  C   UNL     1     -39.418 -50.108  11.565  1.00  0.00     0.105 A 
HETATM   18  C   UNL     1     -40.632 -49.346  11.213  1.00  0.00     0.091 C 
HETATM   19  N   UNL     1     -38.214 -49.948  11.055  1.00  0.00    -0.274 N 
HETATM   20  N   UNL     1     -37.394 -50.837  11.700  1.00  0.00    -0.007 NA
ATOM     21  HN  UNL     1     -37.945 -49.292  10.322  1.00  0.00     0.185 HD
HETATM   22  N   UNL     1     -38.073 -51.539  12.594  1.00  0.00    -0.005 NA
ENDBRANCH  15  16
ENDBRANCH  14  15
BRANCH  14  23
HETATM   23  O   UNL     1     -40.430 -53.608  11.780  1.00  0.00    -0.392 OA
HETATM   24  H   UNL     1     -40.855 -53.790  10.920  1.00  0.00     0.210 HD
ENDBRANCH  14  23
ENDBRANCH  13  14
ENDBRANCH   1  13
TORSDOF 5
ENDMDL
MODEL 3
REMARK VINA RESULT:      -6.5      3.962      5.116
REMARK  5 active torsions:
REMARK  status: ('A' for Active; 'I' for Inactive)
REMARK    1  A    between atoms: N_7  and  C_8 
REMARK    2  A    between atoms: C_8  and  C_9 
REMARK    3  A    between atoms: C_9  and  O_10 
REMARK    4  A    between atoms: C_9  and  C_11 
REMARK    5  A    between atoms: C_11  and  N_12 
ROOT
HETATM    1  N   UNL     1     -42.412 -53.709  14.531  1.00  0.00    -0.339 N 
HETATM    2  C   UNL     1     -41.981 -53.873  15.818  1.00  0.00     0.184 A 
HETATM    3  N   UNL     1     -42.892 -53.493  16.683  1.00  0.00    -0.350 N 
ATOM      4  HN  UNL     1     -42.845 -53.561  17.700  1.00  0.00     0.166 HD
HETATM    5  C   UNL     1     -43.920 -52.986  15.928  1.00  0.00     0.060 A 
HETATM    6  C   UNL     1     -45.124 -52.396  16.333  1.00  0.00     0.039 A 
HETATM    7  C   UNL     1     -46.039 -51.930  15.367  1.00  0.00    -0.054 A 
HETATM    8  C   UNL     1     -47.311 -51.282  15.844  1.00  0.00     0.049 C 
HETATM    9  C   UNL     1     -45.745 -52.072  13.993  1.00  0.00    -0.054 A 
HETATM   10  C   UNL     1     -46.679 -51.603  12.906  1.00  0.00     0.049 C 
HETATM   11  C   UNL     1     -44.535 -52.667  13.582  1.00  0.00     0.039 A 
HETATM   12  C   UNL     1     -43.646 -53.107  14.570  1.00  0.00     0.062 A 
ENDROOT
BRANCH   1  13
HETATM   13  C   UNL     1     -41.670 -54.081  13.342  1.00  0.00     0.163 C 
BRANCH  13  14
HETATM   14  C   UNL     1     -41.206 -52.882  12.492  1.00  0.00     0.156 C 
BRANCH  14  15
HETATM   15  C   UNL     1     -40.413 -51.801  13.249  1.00  0.00     0.181 C 
BRANCH  15  16
HETATM   16  N   UNL     1     -39.373 -51.166  12.479  1.00  0.00    -0.263 N 
HETATM   17  C   UNL     1     -39.449 -50.136  11.577  1.00  0.00     0.105 A 
HETATM   18  C   UNL     1     -40.666 -49.373  11.238  1.00  0.00     0.091 C 
HETATM   19  N   UNL     1     -38.242 -49.950  11.084  1.00  0.00    -0.274 N 
HETATM   20  N   UNL     1     -37.420 -50.852  11.709  1.00  0.00    -0.007 NA
ATOM     21  HN  UNL     1     -37.972 -49.268  10.376  1.00  0.00     0.185 HD
HETATM   22  N   UNL     1     -38.101 -51.588  12.573  1.00  0.00    -0.005 NA
ENDBRANCH  15  16
ENDBRANCH  14  15
BRANCH  14  23
HETATM   23  O   UNL     1     -40.455 -53.315  11.348  1.00  0.00    -0.392 OA
HETATM   24  H   UNL     1     -40.938 -54.030  10.890  1.00  0.00     0.210 HD
ENDBRANCH  14  23
ENDBRANCH  13  14
ENDBRANCH   1  13
TORSDOF 5
ENDMDL
MODEL 4
REMARK VINA RESULT:      -6.4      3.936      7.656
REMARK  5 active torsions:
REMARK  status: ('A' for Active; 'I' for Inactive)
REMARK    1  A    between atoms: N_7  and  C_8 
REMARK    2  A    between atoms: C_8  and  C_9 
REMARK    3  A    between atoms: C_9  and  O_10 
REMARK    4  A    between atoms: C_9  and  C_11 
REMARK    5  A    between atoms: C_11  and  N_12 
ROOT
HETATM    1  N   UNL     1     -41.830 -53.132  12.938  1.00  0.00    -0.339 N 
HETATM    2  C   UNL     1     -41.558 -52.081  12.110  1.00  0.00     0.184 A 
HETATM    3  N   UNL     1     -42.508 -51.176  12.149  1.00  0.00    -0.350 N 
ATOM      4  HN  UNL     1     -42.525 -50.275  11.671  1.00  0.00     0.166 HD
HETATM    5  C   UNL     1     -43.473 -51.702  12.972  1.00  0.00     0.060 A 
HETATM    6  C   UNL     1     -44.726 -51.184  13.329  1.00  0.00     0.039 A 
HETATM    7  C   UNL     1     -45.567 -51.915  14.194  1.00  0.00    -0.054 A 
HETATM    8  C   UNL     1     -46.914 -51.335  14.534  1.00  0.00     0.049 C 
HETATM    9  C   UNL     1     -45.139 -53.158  14.708  1.00  0.00    -0.054 A 
HETATM   10  C   UNL     1     -45.983 -53.988  15.642  1.00  0.00     0.049 C 
HETATM   11  C   UNL     1     -43.878 -53.679  14.353  1.00  0.00     0.039 A 
HETATM   12  C   UNL     1     -43.076 -52.932  13.484  1.00  0.00     0.062 A 
ENDROOT
BRANCH   1  13
HETATM   13  C   UNL     1     -40.961 -54.271  13.167  1.00  0.00     0.163 C 
BRANCH  13  14
HETATM   14  C   UNL     1     -39.636 -53.917  13.869  1.00  0.00     0.156 C 
BRANCH  14  15
HETATM   15  C   UNL     1     -39.693 -53.865  15.407  1.00  0.00     0.181 C 
BRANCH  15  16
HETATM   16  N   UNL     1     -39.834 -55.148  16.048  1.00  0.00    -0.263 N 
HETATM   17  C   UNL     1     -40.868 -55.651  16.796  1.00  0.00     0.105 A 
HETATM   18  C   UNL     1     -42.152 -54.973  17.057  1.00  0.00     0.091 C 
HETATM   19  N   UNL     1     -40.506 -56.843  17.222  1.00  0.00    -0.274 N 
HETATM   20  N   UNL     1     -39.257 -57.081  16.709  1.00  0.00    -0.007 NA
ATOM     21  HN  UNL     1     -41.050 -57.468  17.817  1.00  0.00     0.185 HD
HETATM   22  N   UNL     1     -38.847 -56.056  15.979  1.00  0.00    -0.005 NA
ENDBRANCH  15  16
ENDBRANCH  14  15
BRANCH  14  23
HETATM   23  O   UNL     1     -38.578 -54.795  13.457  1.00  0.00    -0.392 OA
HETATM   24  H   UNL     1     -38.837 -55.722  13.625  1.00  0.00     0.210 HD
ENDBRANCH  14  23
ENDBRANCH  13  14
ENDBRANCH   1  13
TORSDOF 5
ENDMDL
MODEL 5
REMARK VINA RESULT:      -6.3      1.598      2.495
REMARK  5 active torsions:
REMARK  status: ('A' for Active; 'I' for Inactive)
REMARK    1  A    between atoms: N_7  and  C_8 
REMARK    2  A    between atoms: C_8  and  C_9 
REMARK    3  A    between atoms: C_9  and  O_10 
REMARK    4  A    between atoms: C_9  and  C_11 
REMARK    5  A    between atoms: C_11  and  N_12 
ROOT
HETATM    1  N   UNL     1     -41.847 -50.787  12.395  1.00  0.00    -0.339 N 
HETATM    2  C   UNL     1     -41.001 -51.735  11.891  1.00  0.00     0.184 A 
HETATM    3  N   UNL     1     -41.547 -52.928  11.911  1.00  0.00    -0.350 N 
ATOM      4  HN  UNL     1     -41.153 -53.796  11.545  1.00  0.00     0.166 HD
HETATM    5  C   UNL     1     -42.761 -52.760  12.529  1.00  0.00     0.060 A 
HETATM    6  C   UNL     1     -43.737 -53.709  12.861  1.00  0.00     0.039 A 
HETATM    7  C   UNL     1     -44.920 -53.303  13.513  1.00  0.00    -0.054 A 
HETATM    8  C   UNL     1     -45.933 -54.356  13.873  1.00  0.00     0.049 C 
HETATM    9  C   UNL     1     -45.123 -51.939  13.817  1.00  0.00    -0.054 A 
HETATM   10  C   UNL     1     -46.365 -51.433  14.506  1.00  0.00     0.049 C 
HETATM   11  C   UNL     1     -44.143 -50.981  13.482  1.00  0.00     0.039 A 
HETATM   12  C   UNL     1     -42.978 -51.424  12.846  1.00  0.00     0.062 A 
ENDROOT
BRANCH   1  13
HETATM   13  C   UNL     1     -41.571 -49.365  12.465  1.00  0.00     0.163 C 
BRANCH  13  14
HETATM   14  C   UNL     1     -42.205 -48.547  11.324  1.00  0.00     0.156 C 
BRANCH  14  15
HETATM   15  C   UNL     1     -42.474 -47.064  11.641  1.00  0.00     0.181 C 
BRANCH  15  16
HETATM   16  N   UNL     1     -41.447 -46.157  11.195  1.00  0.00    -0.263 N 
HETATM   17  C   UNL     1     -40.297 -45.751  11.822  1.00  0.00     0.105 A 
HETATM   18  C   UNL     1     -39.807 -46.236  13.126  1.00  0.00     0.091 C 
HETATM   19  N   UNL     1     -39.712 -44.864  11.043  1.00  0.00    -0.274 N 
HETATM   20  N   UNL     1     -40.494 -44.749   9.923  1.00  0.00    -0.007 NA
ATOM     21  HN  UNL     1     -38.846 -44.361  11.236  1.00  0.00     0.185 HD
HETATM   22  N   UNL     1     -41.548 -45.547  10.002  1.00  0.00    -0.005 NA
ENDBRANCH  15  16
ENDBRANCH  14  15
BRANCH  14  23
HETATM   23  O   UNL     1     -41.431 -48.648  10.119  1.00  0.00    -0.392 OA
HETATM   24  H   UNL     1     -42.015 -48.890   9.374  1.00  0.00     0.210 HD
ENDBRANCH  14  23
ENDBRANCH  13  14
ENDBRANCH   1  13
TORSDOF 5
ENDMDL
MODEL 6
REMARK VINA RESULT:      -6.1      4.176      7.113
REMARK  5 active torsions:
REMARK  status: ('A' for Active; 'I' for Inactive)
REMARK    1  A    between atoms: N_7  and  C_8 
REMARK    2  A    between atoms: C_8  and  C_9 
REMARK    3  A    between atoms: C_9  and  O_10 
REMARK    4  A    between atoms: C_9  and  C_11 
REMARK    5  A    between atoms: C_11  and  N_12 
ROOT
HETATM    1  N   UNL     1     -40.796 -52.737  12.722  1.00  0.00    -0.339 N 
HETATM    2  C   UNL     1     -41.207 -52.166  11.551  1.00  0.00     0.184 A 
HETATM    3  N   UNL     1     -40.609 -51.018  11.338  1.00  0.00    -0.350 N 
ATOM      4  HN  UNL     1     -40.695 -50.418  10.517  1.00  0.00     0.166 HD
HETATM    5  C   UNL     1     -39.842 -50.797  12.455  1.00  0.00     0.060 A 
HETATM    6  C   UNL     1     -39.034 -49.700  12.786  1.00  0.00     0.039 A 
HETATM    7  C   UNL     1     -38.336 -49.686  14.011  1.00  0.00    -0.054 A 
HETATM    8  C   UNL     1     -37.497 -48.479  14.339  1.00  0.00     0.049 C 
HETATM    9  C   UNL     1     -38.443 -50.781  14.895  1.00  0.00    -0.054 A 
HETATM   10  C   UNL     1     -37.721 -50.836  16.218  1.00  0.00     0.049 C 
HETATM   11  C   UNL     1     -39.253 -51.887  14.564  1.00  0.00     0.039 A 
HETATM   12  C   UNL     1     -39.940 -51.861  13.345  1.00  0.00     0.062 A 
ENDROOT
BRANCH   1  13
HETATM   13  C   UNL     1     -41.223 -54.029  13.224  1.00  0.00     0.163 C 
BRANCH  13  14
HETATM   14  C   UNL     1     -42.613 -54.017  13.887  1.00  0.00     0.156 C 
BRANCH  14  15
HETATM   15  C   UNL     1     -43.810 -54.063  12.918  1.00  0.00     0.181 C 
BRANCH  15  16
HETATM   16  N   UNL     1     -45.100 -54.132  13.558  1.00  0.00    -0.263 N 
HETATM   17  C   UNL     1     -46.050 -53.158  13.729  1.00  0.00     0.105 A 
HETATM   18  C   UNL     1     -45.979 -51.780  13.206  1.00  0.00     0.091 C 
HETATM   19  N   UNL     1     -47.034 -53.684  14.430  1.00  0.00    -0.274 N 
HETATM   20  N   UNL     1     -46.694 -54.991  14.665  1.00  0.00    -0.007 NA
ATOM     21  HN  UNL     1     -47.883 -53.210  14.739  1.00  0.00     0.185 HD
HETATM   22  N   UNL     1     -45.521 -55.275  14.122  1.00  0.00    -0.005 NA
ENDBRANCH  15  16
ENDBRANCH  14  15
BRANCH  14  23
HETATM   23  O   UNL     1     -42.738 -55.069  14.855  1.00  0.00    -0.392 OA
HETATM   24  H   UNL     1     -43.543 -54.929  15.389  1.00  0.00     0.210 HD
ENDBRANCH  14  23
ENDBRANCH  13  14
ENDBRANCH   1  13
TORSDOF 5
ENDMDL
MODEL 7
REMARK VINA RESULT:      -6.0      4.306      5.324
REMARK  5 active torsions:
REMARK  status: ('A' for Active; 'I' for Inactive)
REMARK    1  A    between atoms: N_7  and  C_8 
REMARK    2  A    between atoms: C_8  and  C_9 
REMARK    3  A    between atoms: C_9  and  O_10 
REMARK    4  A    between atoms: C_9  and  C_11 
REMARK    5  A    between atoms: C_11  and  N_12 
ROOT
HETATM    1  N   UNL     1     -40.531 -52.764  13.138  1.00  0.00    -0.339 N 
HETATM    2  C   UNL     1     -40.848 -52.145  11.962  1.00  0.00     0.184 A 
HETATM    3  N   UNL     1     -42.107 -52.332  11.642  1.00  0.00    -0.350 N 
ATOM      4  HN  UNL     1     -42.609 -51.935  10.847  1.00  0.00     0.166 HD
HETATM    5  C   UNL     1     -42.604 -53.175  12.605  1.00  0.00     0.060 A 
HETATM    6  C   UNL     1     -43.879 -53.742  12.729  1.00  0.00     0.039 A 
HETATM    7  C   UNL     1     -44.165 -54.601  13.811  1.00  0.00    -0.054 A 
HETATM    8  C   UNL     1     -45.539 -55.209  13.894  1.00  0.00     0.049 C 
HETATM    9  C   UNL     1     -43.169 -54.875  14.773  1.00  0.00    -0.054 A 
HETATM   10  C   UNL     1     -43.406 -55.777  15.958  1.00  0.00     0.049 C 
HETATM   11  C   UNL     1     -41.885 -54.303  14.653  1.00  0.00     0.039 A 
HETATM   12  C   UNL     1     -41.636 -53.465  13.560  1.00  0.00     0.062 A 
ENDROOT
BRANCH   1  13
HETATM   13  C   UNL     1     -39.241 -52.710  13.797  1.00  0.00     0.163 C 
BRANCH  13  14
HETATM   14  C   UNL     1     -39.020 -51.438  14.638  1.00  0.00     0.156 C 
BRANCH  14  15
HETATM   15  C   UNL     1     -37.873 -50.524  14.170  1.00  0.00     0.181 C 
BRANCH  15  16
HETATM   16  N   UNL     1     -37.633 -50.540  12.749  1.00  0.00    -0.263 N 
HETATM   17  C   UNL     1     -38.137 -49.733  11.761  1.00  0.00     0.105 A 
HETATM   18  C   UNL     1     -39.026 -48.572  11.965  1.00  0.00     0.091 C 
HETATM   19  N   UNL     1     -37.674 -50.176  10.611  1.00  0.00    -0.274 N 
HETATM   20  N   UNL     1     -36.862 -51.242  10.900  1.00  0.00    -0.007 NA
ATOM     21  HN  UNL     1     -37.881 -49.801   9.685  1.00  0.00     0.185 HD
HETATM   22  N   UNL     1     -36.820 -51.460  12.204  1.00  0.00    -0.005 NA
ENDBRANCH  15  16
ENDBRANCH  14  15
BRANCH  14  23
HETATM   23  O   UNL     1     -40.229 -50.672  14.751  1.00  0.00    -0.392 OA
HETATM   24  H   UNL     1     -40.718 -50.948  15.550  1.00  0.00     0.210 HD
ENDBRANCH  14  23
ENDBRANCH  13  14
ENDBRANCH   1  13
TORSDOF 5
ENDMDL
MODEL 8
REMARK VINA RESULT:      -6.0      3.050      7.608
REMARK  5 active torsions:
REMARK  status: ('A' for Active; 'I' for Inactive)
REMARK    1  A    between atoms: N_7  and  C_8 
REMARK    2  A    between atoms: C_8  and  C_9 
REMARK    3  A    between atoms: C_9  and  O_10 
REMARK    4  A    between atoms: C_9  and  C_11 
REMARK    5  A    between atoms: C_11  and  N_12 
ROOT
HETATM    1  N   UNL     1     -41.904 -47.950  11.244  1.00  0.00    -0.339 N 
HETATM    2  C   UNL     1     -42.327 -47.498  10.026  1.00  0.00     0.184 A 
HETATM    3  N   UNL     1     -41.866 -46.295   9.771  1.00  0.00    -0.350 N 
ATOM      4  HN  UNL     1     -41.987 -45.755   8.914  1.00  0.00     0.166 HD
HETATM    5  C   UNL     1     -41.187 -45.921  10.905  1.00  0.00     0.060 A 
HETATM    6  C   UNL     1     -40.538 -44.715  11.204  1.00  0.00     0.039 A 
HETATM    7  C   UNL     1     -39.907 -44.548  12.454  1.00  0.00    -0.054 A 
HETATM    8  C   UNL     1     -39.242 -43.230  12.745  1.00  0.00     0.049 C 
HETATM    9  C   UNL     1     -39.919 -45.601  13.394  1.00  0.00    -0.054 A 
HETATM   10  C   UNL     1     -39.259 -45.495  14.746  1.00  0.00     0.049 C 
HETATM   11  C   UNL     1     -40.569 -46.817  13.095  1.00  0.00     0.039 A 
HETATM   12  C   UNL     1     -41.194 -46.941  11.849  1.00  0.00     0.062 A 
ENDROOT
BRANCH   1  13
HETATM   13  C   UNL     1     -42.190 -49.258  11.801  1.00  0.00     0.163 C 
BRANCH  13  14
HETATM   14  C   UNL     1     -41.022 -50.256  11.689  1.00  0.00     0.156 C 
BRANCH  14  15
HETATM   15  C   UNL     1     -41.384 -51.731  11.946  1.00  0.00     0.181 C 
BRANCH  15  16
HETATM   16  N   UNL     1     -40.430 -52.454  12.749  1.00  0.00    -0.263 N 
HETATM   17  C   UNL     1     -40.608 -53.550  13.553  1.00  0.00     0.105 A 
HETATM   18  C   UNL     1     -41.866 -54.304  13.721  1.00  0.00     0.091 C 
HETATM   19  N   UNL     1     -39.454 -53.809  14.133  1.00  0.00    -0.274 N 
HETATM   20  N   UNL     1     -38.561 -52.882  13.659  1.00  0.00    -0.007 NA
ATOM     21  HN  UNL     1     -39.262 -54.552  14.804  1.00  0.00     0.185 HD
HETATM   22  N   UNL     1     -39.147 -52.061  12.803  1.00  0.00    -0.005 NA
ENDBRANCH  15  16
ENDBRANCH  14  15
BRANCH  14  23
HETATM   23  O   UNL     1     -40.356 -50.138  10.423  1.00  0.00    -0.392 OA
HETATM   24  H   UNL     1     -39.393 -50.067  10.565  1.00  0.00     0.210 HD
ENDBRANCH  14  23
ENDBRANCH  13  14
ENDBRANCH   1  13
TORSDOF 5
ENDMDL
MODEL 9
REMARK VINA RESULT:      -6.0      1.670      2.043
REMARK  5 active torsions:
REMARK  status: ('A' for Active; 'I' for Inactive)
REMARK    1  A    between atoms: N_7  and  C_8 
REMARK    2  A    between atoms: C_8  and  C_9 
REMARK    3  A    between atoms: C_9  and  O_10 
REMARK    4  A    between atoms: C_9  and  C_11 
REMARK    5  A    between atoms: C_11  and  N_12 
ROOT
HETATM    1  N   UNL     1     -41.342 -49.122  12.382  1.00  0.00    -0.339 N 
HETATM    2  C   UNL     1     -40.224 -49.690  11.838  1.00  0.00     0.184 A 
HETATM    3  N   UNL     1     -40.390 -50.974  11.624  1.00  0.00    -0.350 N 
ATOM      4  HN  UNL     1     -39.734 -51.617  11.180  1.00  0.00     0.166 HD
HETATM    5  C   UNL     1     -41.634 -51.266  12.126  1.00  0.00     0.060 A 
HETATM    6  C   UNL     1     -42.302 -52.496  12.207  1.00  0.00     0.039 A 
HETATM    7  C   UNL     1     -43.589 -52.560  12.781  1.00  0.00    -0.054 A 
HETATM    8  C   UNL     1     -44.262 -53.903  12.871  1.00  0.00     0.049 C 
HETATM    9  C   UNL     1     -44.206 -51.383  13.257  1.00  0.00    -0.054 A 
HETATM   10  C   UNL     1     -45.582 -51.377  13.875  1.00  0.00     0.049 C 
HETATM   11  C   UNL     1     -43.538 -50.144  13.174  1.00  0.00     0.039 A 
HETATM   12  C   UNL     1     -42.258 -50.122  12.610  1.00  0.00     0.062 A 
ENDROOT
BRANCH   1  13
HETATM   13  C   UNL     1     -41.507 -47.714  12.689  1.00  0.00     0.163 C 
BRANCH  13  14
HETATM   14  C   UNL     1     -40.376 -46.819  12.150  1.00  0.00     0.156 C 
BRANCH  14  15
HETATM   15  C   UNL     1     -40.521 -46.378  10.682  1.00  0.00     0.181 C 
BRANCH  15  16
HETATM   16  N   UNL     1     -41.759 -45.707  10.374  1.00  0.00    -0.263 N 
HETATM   17  C   UNL     1     -42.891 -46.184   9.765  1.00  0.00     0.105 A 
HETATM   18  C   UNL     1     -43.119 -47.578   9.337  1.00  0.00     0.091 C 
HETATM   19  N   UNL     1     -43.732 -45.177   9.647  1.00  0.00    -0.274 N 
HETATM   20  N   UNL     1     -43.121 -44.087  10.211  1.00  0.00    -0.007 NA
ATOM     21  HN  UNL     1     -44.658 -45.203   9.219  1.00  0.00     0.185 HD
HETATM   22  N   UNL     1     -41.921 -44.407  10.670  1.00  0.00    -0.005 NA
ENDBRANCH  15  16
ENDBRANCH  14  15
BRANCH  14  23
HETATM   23  O   UNL     1     -40.186 -45.664  12.982  1.00  0.00    -0.392 OA
HETATM   24  H   UNL     1     -39.509 -45.082  12.585  1.00  0.00     0.210 HD
ENDBRANCH  14  23
ENDBRANCH  13  14
ENDBRANCH   1  13
TORSDOF 5
ENDMDL
