MODEL 1
REMARK VINA RESULT:      -7.6      0.000      0.000
REMARK  6 active torsions:
REMARK  status: ('A' for Active; 'I' for Inactive)
REMARK    1  A    between atoms: N_1  and  C_8 
REMARK    2  A    between atoms: N_2  and  C1*_5 
REMARK    3  A    between atoms: C_8  and  C_11 
REMARK    4  A    between atoms: C4*_14  and  C5*_24 
REMARK    5  A    between atoms: C3*_16  and  O3*_23 
REMARK    6  A    between atoms: C5*_24  and  O5*_25 
ROOT
HETATM    1  N   UNL     1     -41.540 -50.970  12.215  1.00  0.00    -0.261 N 
HETATM    2  N   UNL     1     -41.197 -48.661  11.914  1.00  0.00    -0.281 N 
HETATM    3  C   UNL     1     -42.054 -49.682  12.305  1.00  0.00     0.333 C 
HETATM    4  C   UNL     1     -40.179 -51.214  12.266  1.00  0.00     0.259 C 
HETATM    5  C   UNL     1     -39.278 -50.038  12.095  1.00  0.00     0.022 C 
HETATM    6  C   UNL     1     -39.836 -48.843  11.862  1.00  0.00     0.110 C 
HETATM    7  O   UNL     1     -43.196 -49.442  12.698  1.00  0.00    -0.246 OA
HETATM    8  O   UNL     1     -39.698 -52.328  12.467  1.00  0.00    -0.267 OA
HETATM    9  C   UNL     1     -37.797 -50.242  12.171  1.00  0.00     0.056 C 
ENDROOT
BRANCH   1  10
HETATM   10  C   UNL     1     -42.453 -52.078  12.435  1.00  0.00     0.176 C 
BRANCH  10  11
HETATM   11  C   UNL     1     -42.970 -52.277  13.860  1.00  0.00    -0.025 C 
HETATM   12  C   UNL     1     -44.337 -52.085  14.203  1.00  0.00    -0.002 A 
HETATM   13  C   UNL     1     -44.637 -51.860  15.565  1.00  0.00     0.043 A 
HETATM   14  C   UNL     1     -45.410 -52.050  13.280  1.00  0.00     0.014 A 
HETATM   15  N   UNL     1     -43.725 -51.964  16.542  1.00  0.00    -0.359 N 
HETATM   16  C   UNL     1     -45.919 -51.464  15.924  1.00  0.00     0.030 A 
HETATM   17  C   UNL     1     -42.454 -52.278  16.216  1.00  0.00     0.006 C 
ATOM     18  HN  UNL     1     -43.988 -51.809  17.515  1.00  0.00     0.166 HD
HETATM   19  C   UNL     1     -42.032 -52.421  14.902  1.00  0.00     0.034 C 
HETATM   20  C   UNL     1     -41.506 -52.384  17.370  1.00  0.00     0.068 C 
HETATM   21  C   UNL     1     -46.944 -51.340  14.989  1.00  0.00     0.002 A 
HETATM   22  C   UNL     1     -46.698 -51.679  13.665  1.00  0.00     0.001 A 
ENDBRANCH  10  11
ENDBRANCH   1  10
BRANCH   2  23
HETATM   23  C1* UNL     1     -41.828 -47.411  11.531  1.00  0.00     0.235 C 
HETATM   24  O4* UNL     1     -42.314 -47.501  10.177  1.00  0.00    -0.356 OA
HETATM   25  C4* UNL     1     -42.406 -46.145   9.670  1.00  0.00     0.176 C 
HETATM   26  C3* UNL     1     -41.895 -45.215  10.787  1.00  0.00     0.153 C 
HETATM   27  C2* UNL     1     -40.990 -46.145  11.581  1.00  0.00     0.088 C 
BRANCH  25  28
HETATM   28  C5* UNL     1     -43.843 -45.904   9.210  1.00  0.00     0.198 C 
BRANCH  28  29
HETATM   29  O5* UNL     1     -44.140 -44.505   9.246  1.00  0.00    -0.398 OA
HETATM   30  H5* UNL     1     -43.619 -44.102   8.523  1.00  0.00     0.209 HD
ENDBRANCH  28  29
ENDBRANCH  25  28
BRANCH  26  31
HETATM   31  O3* UNL     1     -42.904 -44.719  11.668  1.00  0.00    -0.393 OA
HETATM   32  H3* UNL     1     -42.889 -45.235  12.503  1.00  0.00     0.210 HD
ENDBRANCH  26  31
ENDBRANCH   2  23
TORSDOF 6
ENDMDL
MODEL 2
REMARK VINA RESULT:      -7.5      2.959      7.444
REMARK  6 active torsions:
REMARK  status: ('A' for Active; 'I' for Inactive)
REMARK    1  A    between atoms: N_1  and  C_8 
REMARK    2  A    between atoms: N_2  and  C1*_5 
REMARK    3  A    between atoms: C_8  and  C_11 
REMARK    4  A    between atoms: C4*_14  and  C5*_24 
REMARK    5  A    between atoms: C3*_16  and  O3*_23 
REMARK    6  A    between atoms: C5*_24  and  O5*_25 
ROOT
HETATM    1  N   UNL     1     -39.985 -48.045  12.604  1.00  0.00    -0.261 N 
HETATM    2  N   UNL     1     -40.308 -50.213  13.465  1.00  0.00    -0.281 N 
HETATM    3  C   UNL     1     -39.894 -49.418  12.405  1.00  0.00     0.333 C 
HETATM    4  C   UNL     1     -39.959 -47.494  13.873  1.00  0.00     0.259 C 
HETATM    5  C   UNL     1     -40.156 -48.430  15.018  1.00  0.00     0.022 C 
HETATM    6  C   UNL     1     -40.386 -49.720  14.746  1.00  0.00     0.110 C 
HETATM    7  O   UNL     1     -39.480 -49.916  11.357  1.00  0.00    -0.246 OA
HETATM    8  O   UNL     1     -39.760 -46.300  14.088  1.00  0.00    -0.267 OA
HETATM    9  C   UNL     1     -40.107 -47.888  16.413  1.00  0.00     0.056 C 
ENDROOT
BRANCH   1  10
HETATM   10  C   UNL     1     -39.740 -47.179  11.466  1.00  0.00     0.176 C 
BRANCH  10  11
HETATM   11  C   UNL     1     -40.953 -46.470  10.861  1.00  0.00    -0.025 C 
HETATM   12  C   UNL     1     -41.144 -45.065  10.978  1.00  0.00    -0.002 A 
HETATM   13  C   UNL     1     -42.455 -44.572  10.792  1.00  0.00     0.043 A 
HETATM   14  C   UNL     1     -40.135 -44.133  11.318  1.00  0.00     0.014 A 
HETATM   15  N   UNL     1     -43.472 -45.340  10.374  1.00  0.00    -0.359 N 
HETATM   16  C   UNL     1     -42.735 -43.247  11.095  1.00  0.00     0.030 A 
HETATM   17  C   UNL     1     -43.247 -46.649  10.139  1.00  0.00     0.006 C 
ATOM     18  HN  UNL     1     -44.400 -44.940  10.237  1.00  0.00     0.166 HD
HETATM   19  C   UNL     1     -42.023 -47.254  10.386  1.00  0.00     0.034 C 
HETATM   20  C   UNL     1     -44.436 -47.427   9.666  1.00  0.00     0.068 C 
HETATM   21  C   UNL     1     -41.747 -42.361  11.522  1.00  0.00     0.002 A 
HETATM   22  C   UNL     1     -40.431 -42.797  11.590  1.00  0.00     0.001 A 
ENDBRANCH  10  11
ENDBRANCH   1  10
BRANCH   2  23
HETATM   23  C1* UNL     1     -40.688 -51.573  13.133  1.00  0.00     0.235 C 
HETATM   24  O4* UNL     1     -41.990 -51.867  13.676  1.00  0.00    -0.356 OA
HETATM   25  C4* UNL     1     -42.075 -53.308  13.815  1.00  0.00     0.176 C 
HETATM   26  C3* UNL     1     -40.715 -53.881  13.369  1.00  0.00     0.153 C 
HETATM   27  C2* UNL     1     -39.786 -52.700  13.604  1.00  0.00     0.088 C 
BRANCH  25  28
HETATM   28  C5* UNL     1     -43.291 -53.794  13.028  1.00  0.00     0.198 C 
BRANCH  28  29
HETATM   29  O5* UNL     1     -43.403 -53.065  11.801  1.00  0.00    -0.398 OA
HETATM   30  H5* UNL     1     -42.976 -53.622  11.120  1.00  0.00     0.209 HD
ENDBRANCH  28  29
ENDBRANCH  25  28
BRANCH  26  31
HETATM   31  O3* UNL     1     -40.635 -54.240  11.989  1.00  0.00    -0.393 OA
HETATM   32  H3* UNL     1     -40.032 -53.620  11.526  1.00  0.00     0.210 HD
ENDBRANCH  26  31
ENDBRANCH   2  23
TORSDOF 6
ENDMDL
MODEL 3
REMARK VINA RESULT:      -7.4      1.820      3.150
REMARK  6 active torsions:
REMARK  status: ('A' for Active; 'I' for Inactive)
REMARK    1  A    between atoms: N_1  and  C_8 
REMARK    2  A    between atoms: N_2  and  C1*_5 
REMARK    3  A    between atoms: C_8  and  C_11 
REMARK    4  A    between atoms: C4*_14  and  C5*_24 
REMARK    5  A    between atoms: C3*_16  and  O3*_23 
REMARK    6  A    between atoms: C5*_24  and  O5*_25 
ROOT
HETATM    1  N   UNL     1     -42.051 -49.452  13.347  1.00  0.00    -0.261 N 
HETATM    2  N   UNL     1     -42.060 -47.928  11.551  1.00  0.00    -0.281 N 
HETATM    3  C   UNL     1     -42.574 -48.290  12.790  1.00  0.00     0.333 C 
HETATM    4  C   UNL     1     -40.791 -49.914  13.010  1.00  0.00     0.259 C 
HETATM    5  C   UNL     1     -40.153 -49.312  11.804  1.00  0.00     0.022 C 
HETATM    6  C   UNL     1     -40.850 -48.405  11.107  1.00  0.00     0.110 C 
HETATM    7  O   UNL     1     -43.443 -47.615  13.343  1.00  0.00    -0.246 OA
HETATM    8  O   UNL     1     -40.184 -50.759  13.664  1.00  0.00    -0.267 OA
HETATM    9  C   UNL     1     -38.777 -49.756  11.413  1.00  0.00     0.056 C 
ENDROOT
BRANCH   1  10
HETATM   10  C   UNL     1     -42.683 -49.969  14.546  1.00  0.00     0.176 C 
BRANCH  10  11
HETATM   11  C   UNL     1     -43.686 -51.110  14.364  1.00  0.00    -0.025 C 
HETATM   12  C   UNL     1     -43.405 -52.439  14.786  1.00  0.00    -0.002 A 
HETATM   13  C   UNL     1     -44.164 -53.477  14.202  1.00  0.00     0.043 A 
HETATM   14  C   UNL     1     -42.390 -52.804  15.702  1.00  0.00     0.014 A 
HETATM   15  N   UNL     1     -45.212 -53.253  13.397  1.00  0.00    -0.359 N 
HETATM   16  C   UNL     1     -43.795 -54.798  14.420  1.00  0.00     0.030 A 
HETATM   17  C   UNL     1     -45.552 -51.979  13.108  1.00  0.00     0.006 C 
ATOM     18  HN  UNL     1     -45.744 -54.032  13.009  1.00  0.00     0.166 HD
HETATM   19  C   UNL     1     -44.813 -50.890  13.549  1.00  0.00     0.034 C 
HETATM   20  C   UNL     1     -46.740 -51.822  12.211  1.00  0.00     0.068 C 
HETATM   21  C   UNL     1     -42.730 -55.141  15.251  1.00  0.00     0.002 A 
HETATM   22  C   UNL     1     -42.053 -54.138  15.932  1.00  0.00     0.001 A 
ENDBRANCH  10  11
ENDBRANCH   1  10
BRANCH   2  23
HETATM   23  C1* UNL     1     -42.892 -47.053  10.747  1.00  0.00     0.235 C 
HETATM   24  O4* UNL     1     -43.968 -47.807  10.153  1.00  0.00    -0.356 OA
HETATM   25  C4* UNL     1     -44.400 -47.073   8.979  1.00  0.00     0.176 C 
HETATM   26  C3* UNL     1     -43.483 -45.840   8.860  1.00  0.00     0.153 C 
HETATM   27  C2* UNL     1     -42.238 -46.303   9.600  1.00  0.00     0.088 C 
BRANCH  25  28
HETATM   28  C5* UNL     1     -45.893 -46.780   9.122  1.00  0.00     0.198 C 
BRANCH  28  29
HETATM   29  O5* UNL     1     -46.637 -47.565   8.184  1.00  0.00    -0.398 OA
HETATM   30  H5* UNL     1     -47.556 -47.583   8.521  1.00  0.00     0.209 HD
ENDBRANCH  28  29
ENDBRANCH  25  28
BRANCH  26  31
HETATM   31  O3* UNL     1     -43.970 -44.662   9.504  1.00  0.00    -0.393 OA
HETATM   32  H3* UNL     1     -43.404 -44.459  10.280  1.00  0.00     0.210 HD
ENDBRANCH  26  31
ENDBRANCH   2  23
TORSDOF 6
ENDMDL
MODEL 4
REMARK VINA RESULT:      -7.2      2.994      6.862
REMARK  6 active torsions:
REMARK  status: ('A' for Active; 'I' for Inactive)
REMARK    1  A    between atoms: N_1  and  C_8 
REMARK    2  A    between atoms: N_2  and  C1*_5 
REMARK    3  A    between atoms: C_8  and  C_11 
REMARK    4  A    between atoms: C4*_14  and  C5*_24 
REMARK    5  A    between atoms: C3*_16  and  O3*_23 
REMARK    6  A    between atoms: C5*_24  and  O5*_25 
ROOT
HETATM    1  N   UNL     1     -40.085 -51.660  13.200  1.00  0.00    -0.261 N 
HETATM    2  N   UNL     1     -41.809 -53.085  13.934  1.00  0.00    -0.281 N 
HETATM    3  C   UNL     1     -41.196 -52.430  12.874  1.00  0.00     0.333 C 
HETATM    4  C   UNL     1     -39.323 -51.925  14.324  1.00  0.00     0.259 C 
HETATM    5  C   UNL     1     -39.915 -52.847  15.336  1.00  0.00     0.022 C 
HETATM    6  C   UNL     1     -41.148 -53.319  15.116  1.00  0.00     0.110 C 
HETATM    7  O   UNL     1     -41.626 -52.533  11.725  1.00  0.00    -0.246 OA
HETATM    8  O   UNL     1     -38.198 -51.462  14.502  1.00  0.00    -0.267 OA
HETATM    9  C   UNL     1     -39.118 -53.190  16.557  1.00  0.00     0.056 C 
ENDROOT
BRANCH   1  10
HETATM   10  C   UNL     1     -39.523 -50.814  12.163  1.00  0.00     0.176 C 
BRANCH  10  11
HETATM   11  C   UNL     1     -40.058 -49.384  12.070  1.00  0.00    -0.025 C 
HETATM   12  C   UNL     1     -39.516 -48.321  12.845  1.00  0.00    -0.002 A 
HETATM   13  C   UNL     1     -40.323 -47.177  13.027  1.00  0.00     0.043 A 
HETATM   14  C   UNL     1     -38.256 -48.345  13.489  1.00  0.00     0.014 A 
HETATM   15  N   UNL     1     -41.490 -46.996  12.392  1.00  0.00    -0.359 N 
HETATM   16  C   UNL     1     -39.932 -46.205  13.938  1.00  0.00     0.030 A 
HETATM   17  C   UNL     1     -41.932 -47.957  11.554  1.00  0.00     0.006 C 
ATOM     18  HN  UNL     1     -42.034 -46.146  12.540  1.00  0.00     0.166 HD
HETATM   19  C   UNL     1     -41.266 -49.162  11.381  1.00  0.00     0.034 C 
HETATM   20  C   UNL     1     -43.237 -47.666  10.881  1.00  0.00     0.068 C 
HETATM   21  C   UNL     1     -38.731 -46.288  14.639  1.00  0.00     0.002 A 
HETATM   22  C   UNL     1     -37.867 -47.344  14.379  1.00  0.00     0.001 A 
ENDBRANCH  10  11
ENDBRANCH   1  10
BRANCH   2  23
HETATM   23  C1* UNL     1     -43.194 -53.469  13.731  1.00  0.00     0.235 C 
HETATM   24  O4* UNL     1     -44.048 -52.314  13.853  1.00  0.00    -0.356 OA
HETATM   25  C4* UNL     1     -45.370 -52.799  14.198  1.00  0.00     0.176 C 
HETATM   26  C3* UNL     1     -45.262 -54.330  14.333  1.00  0.00     0.153 C 
HETATM   27  C2* UNL     1     -43.788 -54.514  14.659  1.00  0.00     0.088 C 
BRANCH  25  28
HETATM   28  C5* UNL     1     -46.355 -52.291  13.147  1.00  0.00     0.198 C 
BRANCH  28  29
HETATM   29  O5* UNL     1     -45.881 -52.614  11.836  1.00  0.00    -0.398 OA
HETATM   30  H5* UNL     1     -46.507 -53.277  11.481  1.00  0.00     0.209 HD
ENDBRANCH  28  29
ENDBRANCH  25  28
BRANCH  26  31
HETATM   31  O3* UNL     1     -45.547 -55.062  13.140  1.00  0.00    -0.393 OA
HETATM   32  H3* UNL     1     -44.923 -55.817  13.064  1.00  0.00     0.210 HD
ENDBRANCH  26  31
ENDBRANCH   2  23
TORSDOF 6
ENDMDL
MODEL 5
REMARK VINA RESULT:      -7.2      2.971      6.784
REMARK  6 active torsions:
REMARK  status: ('A' for Active; 'I' for Inactive)
REMARK    1  A    between atoms: N_1  and  C_8 
REMARK    2  A    between atoms: N_2  and  C1*_5 
REMARK    3  A    between atoms: C_8  and  C_11 
REMARK    4  A    between atoms: C4*_14  and  C5*_24 
REMARK    5  A    between atoms: C3*_16  and  O3*_23 
REMARK    6  A    between atoms: C5*_24  and  O5*_25 
ROOT
HETATM    1  N   UNL     1     -40.651 -52.426  13.117  1.00  0.00    -0.261 N 
HETATM    2  N   UNL     1     -42.542 -53.504  14.016  1.00  0.00    -0.281 N 
HETATM    3  C   UNL     1     -42.006 -52.715  13.006  1.00  0.00     0.333 C 
HETATM    4  C   UNL     1     -39.789 -53.251  13.819  1.00  0.00     0.259 C 
HETATM    5  C   UNL     1     -40.411 -54.270  14.712  1.00  0.00     0.022 C 
HETATM    6  C   UNL     1     -41.746 -54.294  14.811  1.00  0.00     0.110 C 
HETATM    7  O   UNL     1     -42.705 -52.300  12.080  1.00  0.00    -0.246 OA
HETATM    8  O   UNL     1     -38.565 -53.194  13.717  1.00  0.00    -0.267 OA
HETATM    9  C   UNL     1     -39.524 -55.208  15.471  1.00  0.00     0.056 C 
ENDROOT
BRANCH   1  10
HETATM   10  C   UNL     1     -40.088 -51.459  12.193  1.00  0.00     0.176 C 
BRANCH  10  11
HETATM   11  C   UNL     1     -39.891 -50.035  12.716  1.00  0.00    -0.025 C 
HETATM   12  C   UNL     1     -40.485 -48.908  12.084  1.00  0.00    -0.002 A 
HETATM   13  C   UNL     1     -39.915 -47.643  12.348  1.00  0.00     0.043 A 
HETATM   14  C   UNL     1     -41.565 -48.962  11.172  1.00  0.00     0.014 A 
HETATM   15  N   UNL     1     -38.954 -47.450  13.263  1.00  0.00    -0.359 N 
HETATM   16  C   UNL     1     -40.319 -46.543  11.603  1.00  0.00     0.030 A 
HETATM   17  C   UNL     1     -38.489 -48.513  13.953  1.00  0.00     0.006 C 
ATOM     18  HN  UNL     1     -38.581 -46.516  13.434  1.00  0.00     0.166 HD
HETATM   19  C   UNL     1     -38.909 -49.810  13.701  1.00  0.00     0.034 C 
HETATM   20  C   UNL     1     -37.426 -48.204  14.961  1.00  0.00     0.068 C 
HETATM   21  C   UNL     1     -41.320 -46.631  10.638  1.00  0.00     0.002 A 
HETATM   22  C   UNL     1     -41.979 -47.840  10.454  1.00  0.00     0.001 A 
ENDBRANCH  10  11
ENDBRANCH   1  10
BRANCH   2  23
HETATM   23  C1* UNL     1     -43.978 -53.413  14.202  1.00  0.00     0.235 C 
HETATM   24  O4* UNL     1     -44.273 -52.957  15.537  1.00  0.00    -0.356 OA
HETATM   25  C4* UNL     1     -45.616 -53.405  15.850  1.00  0.00     0.176 C 
HETATM   26  C3* UNL     1     -46.111 -54.214  14.635  1.00  0.00     0.153 C 
HETATM   27  C2* UNL     1     -44.803 -54.673  14.010  1.00  0.00     0.088 C 
BRANCH  25  28
HETATM   28  C5* UNL     1     -46.454 -52.183  16.221  1.00  0.00     0.198 C 
BRANCH  28  29
HETATM   29  O5* UNL     1     -46.386 -51.208  15.176  1.00  0.00    -0.398 OA
HETATM   30  H5* UNL     1     -45.489 -51.287  14.794  1.00  0.00     0.209 HD
ENDBRANCH  28  29
ENDBRANCH  25  28
BRANCH  26  31
HETATM   31  O3* UNL     1     -46.829 -53.458  13.659  1.00  0.00    -0.393 OA
HETATM   32  H3* UNL     1     -47.791 -53.624  13.762  1.00  0.00     0.210 HD
ENDBRANCH  26  31
ENDBRANCH   2  23
TORSDOF 6
ENDMDL
MODEL 6
REMARK VINA RESULT:      -7.2      3.407      6.015
REMARK  6 active torsions:
REMARK  status: ('A' for Active; 'I' for Inactive)
REMARK    1  A    between atoms: N_1  and  C_8 
REMARK    2  A    between atoms: N_2  and  C1*_5 
REMARK    3  A    between atoms: C_8  and  C_11 
REMARK    4  A    between atoms: C4*_14  and  C5*_24 
REMARK    5  A    between atoms: C3*_16  and  O3*_23 
REMARK    6  A    between atoms: C5*_24  and  O5*_25 
ROOT
HETATM    1  N   UNL     1     -40.304 -51.347  13.140  1.00  0.00    -0.261 N 
HETATM    2  N   UNL     1     -38.702 -50.076  14.308  1.00  0.00    -0.281 N 
HETATM    3  C   UNL     1     -38.981 -51.199  13.539  1.00  0.00     0.333 C 
HETATM    4  C   UNL     1     -41.154 -50.260  13.028  1.00  0.00     0.259 C 
HETATM    5  C   UNL     1     -40.700 -48.984  13.654  1.00  0.00     0.022 C 
HETATM    6  C   UNL     1     -39.536 -48.983  14.314  1.00  0.00     0.110 C 
HETATM    7  O   UNL     1     -38.099 -52.006  13.244  1.00  0.00    -0.246 OA
HETATM    8  O   UNL     1     -42.225 -50.298  12.426  1.00  0.00    -0.267 OA
HETATM    9  C   UNL     1     -41.569 -47.770  13.535  1.00  0.00     0.056 C 
ENDROOT
BRANCH   1  10
HETATM   10  C   UNL     1     -40.681 -52.592  12.496  1.00  0.00     0.176 C 
BRANCH  10  11
HETATM   11  C   UNL     1     -41.338 -53.656  13.376  1.00  0.00    -0.025 C 
HETATM   12  C   UNL     1     -42.746 -53.857  13.396  1.00  0.00    -0.002 A 
HETATM   13  C   UNL     1     -43.288 -54.523  14.519  1.00  0.00     0.043 A 
HETATM   14  C   UNL     1     -43.648 -53.396  12.409  1.00  0.00     0.014 A 
HETATM   15  N   UNL     1     -42.530 -55.088  15.469  1.00  0.00    -0.359 N 
HETATM   16  C   UNL     1     -44.665 -54.562  14.689  1.00  0.00     0.030 A 
HETATM   17  C   UNL     1     -41.187 -55.005  15.369  1.00  0.00     0.006 C 
ATOM     18  HN  UNL     1     -42.963 -55.574  16.256  1.00  0.00     0.166 HD
HETATM   19  C   UNL     1     -40.556 -54.289  14.362  1.00  0.00     0.034 C 
HETATM   20  C   UNL     1     -40.421 -55.674  16.468  1.00  0.00     0.068 C 
HETATM   21  C   UNL     1     -45.542 -54.017  13.753  1.00  0.00     0.002 A 
HETATM   22  C   UNL     1     -45.030 -53.471  12.584  1.00  0.00     0.001 A 
ENDBRANCH  10  11
ENDBRANCH   1  10
BRANCH   2  23
HETATM   23  C1* UNL     1     -37.506 -50.145  15.126  1.00  0.00     0.235 C 
HETATM   24  O4* UNL     1     -37.810 -50.768  16.390  1.00  0.00    -0.356 OA
HETATM   25  C4* UNL     1     -36.804 -50.322  17.334  1.00  0.00     0.176 C 
HETATM   26  C3* UNL     1     -35.887 -49.341  16.579  1.00  0.00     0.153 C 
HETATM   27  C2* UNL     1     -36.803 -48.844  15.471  1.00  0.00     0.088 C 
BRANCH  25  28
HETATM   28  C5* UNL     1     -36.119 -51.556  17.920  1.00  0.00     0.198 C 
BRANCH  28  29
HETATM   29  O5* UNL     1     -34.795 -51.222  18.350  1.00  0.00    -0.398 OA
HETATM   30  H5* UNL     1     -34.632 -50.311  18.033  1.00  0.00     0.209 HD
ENDBRANCH  28  29
ENDBRANCH  25  28
BRANCH  26  31
HETATM   31  O3* UNL     1     -34.738 -49.934  15.972  1.00  0.00    -0.393 OA
HETATM   32  H3* UNL     1     -34.659 -50.867  16.268  1.00  0.00     0.210 HD
ENDBRANCH  26  31
ENDBRANCH   2  23
TORSDOF 6
ENDMDL
MODEL 7
REMARK VINA RESULT:      -7.2      2.501      7.218
REMARK  6 active torsions:
REMARK  status: ('A' for Active; 'I' for Inactive)
REMARK    1  A    between atoms: N_1  and  C_8 
REMARK    2  A    between atoms: N_2  and  C1*_5 
REMARK    3  A    between atoms: C_8  and  C_11 
REMARK    4  A    between atoms: C4*_14  and  C5*_24 
REMARK    5  A    between atoms: C3*_16  and  O3*_23 
REMARK    6  A    between atoms: C5*_24  and  O5*_25 
ROOT
HETATM    1  N   UNL     1     -40.857 -49.022  12.685  1.00  0.00    -0.261 N 
HETATM    2  N   UNL     1     -42.042 -50.858  13.562  1.00  0.00    -0.281 N 
HETATM    3  C   UNL     1     -41.376 -50.296  12.481  1.00  0.00     0.333 C 
HETATM    4  C   UNL     1     -40.536 -48.563  13.950  1.00  0.00     0.259 C 
HETATM    5  C   UNL     1     -41.063 -49.348  15.104  1.00  0.00     0.022 C 
HETATM    6  C   UNL     1     -41.840 -50.408  14.845  1.00  0.00     0.110 C 
HETATM    7  O   UNL     1     -41.266 -50.900  11.413  1.00  0.00    -0.246 OA
HETATM    8  O   UNL     1     -39.832 -47.576  14.154  1.00  0.00    -0.267 OA
HETATM    9  C   UNL     1     -40.721 -48.912  16.495  1.00  0.00     0.056 C 
ENDROOT
BRANCH   1  10
HETATM   10  C   UNL     1     -40.316 -48.321  11.534  1.00  0.00     0.176 C 
BRANCH  10  11
HETATM   11  C   UNL     1     -41.228 -47.297  10.856  1.00  0.00    -0.025 C 
HETATM   12  C   UNL     1     -41.078 -45.897  11.061  1.00  0.00    -0.002 A 
HETATM   13  C   UNL     1     -42.191 -45.078  10.768  1.00  0.00     0.043 A 
HETATM   14  C   UNL     1     -39.923 -45.271  11.585  1.00  0.00     0.014 A 
HETATM   15  N   UNL     1     -43.304 -45.540  10.180  1.00  0.00    -0.359 N 
HETATM   16  C   UNL     1     -42.172 -43.742  11.143  1.00  0.00     0.030 A 
HETATM   17  C   UNL     1     -43.382 -46.850   9.869  1.00  0.00     0.006 C 
ATOM     18  HN  UNL     1     -44.079 -44.910   9.971  1.00  0.00     0.166 HD
HETATM   19  C   UNL     1     -42.387 -47.758  10.203  1.00  0.00     0.034 C 
HETATM   20  C   UNL     1     -44.655 -47.275   9.205  1.00  0.00     0.068 C 
HETATM   21  C   UNL     1     -41.059 -43.159  11.747  1.00  0.00     0.002 A 
HETATM   22  C   UNL     1     -39.911 -43.919  11.928  1.00  0.00     0.001 A 
ENDBRANCH  10  11
ENDBRANCH   1  10
BRANCH   2  23
HETATM   23  C1* UNL     1     -42.985 -51.915  13.250  1.00  0.00     0.235 C 
HETATM   24  O4* UNL     1     -44.288 -51.580  13.769  1.00  0.00    -0.356 OA
HETATM   25  C4* UNL     1     -45.009 -52.827  13.937  1.00  0.00     0.176 C 
HETATM   26  C3* UNL     1     -44.044 -53.959  13.535  1.00  0.00     0.153 C 
HETATM   27  C2* UNL     1     -42.687 -53.312  13.766  1.00  0.00     0.088 C 
BRANCH  25  28
HETATM   28  C5* UNL     1     -46.305 -52.741  13.133  1.00  0.00     0.198 C 
BRANCH  28  29
HETATM   29  O5* UNL     1     -46.012 -52.454  11.762  1.00  0.00    -0.398 OA
HETATM   30  H5* UNL     1     -45.243 -53.012  11.530  1.00  0.00     0.209 HD
ENDBRANCH  28  29
ENDBRANCH  25  28
BRANCH  26  31
HETATM   31  O3* UNL     1     -44.118 -54.357  12.165  1.00  0.00    -0.393 OA
HETATM   32  H3* UNL     1     -43.284 -54.807  11.911  1.00  0.00     0.210 HD
ENDBRANCH  26  31
ENDBRANCH   2  23
TORSDOF 6
ENDMDL
MODEL 8
REMARK VINA RESULT:      -6.9      3.754      7.154
REMARK  6 active torsions:
REMARK  status: ('A' for Active; 'I' for Inactive)
REMARK    1  A    between atoms: N_1  and  C_8 
REMARK    2  A    between atoms: N_2  and  C1*_5 
REMARK    3  A    between atoms: C_8  and  C_11 
REMARK    4  A    between atoms: C4*_14  and  C5*_24 
REMARK    5  A    between atoms: C3*_16  and  O3*_23 
REMARK    6  A    between atoms: C5*_24  and  O5*_25 
ROOT
HETATM    1  N   UNL     1     -40.438 -54.032  14.668  1.00  0.00    -0.261 N 
HETATM    2  N   UNL     1     -42.741 -54.500  14.811  1.00  0.00    -0.281 N 
HETATM    3  C   UNL     1     -41.689 -53.986  14.064  1.00  0.00     0.333 C 
HETATM    4  C   UNL     1     -40.140 -54.961  15.650  1.00  0.00     0.259 C 
HETATM    5  C   UNL     1     -41.290 -55.688  16.259  1.00  0.00     0.022 C 
HETATM    6  C   UNL     1     -42.526 -55.368  15.854  1.00  0.00     0.110 C 
HETATM    7  O   UNL     1     -41.872 -53.518  12.939  1.00  0.00    -0.246 OA
HETATM    8  O   UNL     1     -38.993 -55.220  16.009  1.00  0.00    -0.267 OA
HETATM    9  C   UNL     1     -41.020 -56.725  17.305  1.00  0.00     0.056 C 
ENDROOT
BRANCH   1  10
HETATM   10  C   UNL     1     -39.343 -53.344  14.008  1.00  0.00     0.176 C 
BRANCH  10  11
HETATM   11  C   UNL     1     -39.054 -51.911  14.458  1.00  0.00    -0.025 C 
HETATM   12  C   UNL     1     -39.175 -50.802  13.575  1.00  0.00    -0.002 A 
HETATM   13  C   UNL     1     -38.487 -49.618  13.926  1.00  0.00     0.043 A 
HETATM   14  C   UNL     1     -39.883 -50.810  12.350  1.00  0.00     0.014 A 
HETATM   15  N   UNL     1     -37.864 -49.456  15.101  1.00  0.00    -0.359 N 
HETATM   16  C   UNL     1     -38.401 -48.582  13.006  1.00  0.00     0.030 A 
HETATM   17  C   UNL     1     -37.869 -50.473  15.988  1.00  0.00     0.006 C 
ATOM     18  HN  UNL     1     -37.393 -48.578  15.321  1.00  0.00     0.166 HD
HETATM   19  C   UNL     1     -38.428 -51.710  15.704  1.00  0.00     0.034 C 
HETATM   20  C   UNL     1     -37.158 -50.200  17.278  1.00  0.00     0.068 C 
HETATM   21  C   UNL     1     -39.025 -48.643  11.762  1.00  0.00     0.002 A 
HETATM   22  C   UNL     1     -39.809 -49.747  11.451  1.00  0.00     0.001 A 
ENDBRANCH  10  11
ENDBRANCH   1  10
BRANCH   2  23
HETATM   23  C1* UNL     1     -44.067 -54.036  14.448  1.00  0.00     0.235 C 
HETATM   24  O4* UNL     1     -44.666 -53.341  15.559  1.00  0.00    -0.356 OA
HETATM   25  C4* UNL     1     -46.102 -53.400  15.370  1.00  0.00     0.176 C 
HETATM   26  C3* UNL     1     -46.351 -54.224  14.092  1.00  0.00     0.153 C 
HETATM   27  C2* UNL     1     -45.090 -55.070  14.014  1.00  0.00     0.088 C 
BRANCH  25  28
HETATM   28  C5* UNL     1     -46.641 -51.971  15.356  1.00  0.00     0.198 C 
BRANCH  28  29
HETATM   29  O5* UNL     1     -45.978 -51.208  14.342  1.00  0.00    -0.398 OA
HETATM   30  H5* UNL     1     -45.044 -51.143  14.624  1.00  0.00     0.209 HD
ENDBRANCH  28  29
ENDBRANCH  25  28
BRANCH  26  31
HETATM   31  O3* UNL     1     -46.446 -53.458  12.890  1.00  0.00    -0.393 OA
HETATM   32  H3* UNL     1     -45.913 -52.639  12.983  1.00  0.00     0.210 HD
ENDBRANCH  26  31
ENDBRANCH   2  23
TORSDOF 6
ENDMDL
MODEL 9
REMARK VINA RESULT:      -6.9      3.537      6.591
REMARK  6 active torsions:
REMARK  status: ('A' for Active; 'I' for Inactive)
REMARK    1  A    between atoms: N_1  and  C_8 
REMARK    2  A    between atoms: N_2  and  C1*_5 
REMARK    3  A    between atoms: C_8  and  C_11 
REMARK    4  A    between atoms: C4*_14  and  C5*_24 
REMARK    5  A    between atoms: C3*_16  and  O3*_23 
REMARK    6  A    between atoms: C5*_24  and  O5*_25 
ROOT
HETATM    1  N   UNL     1     -40.290 -51.661  13.247  1.00  0.00    -0.261 N 
HETATM    2  N   UNL     1     -38.607 -50.303  14.177  1.00  0.00    -0.281 N 
HETATM    3  C   UNL     1     -38.968 -51.540  13.660  1.00  0.00     0.333 C 
HETATM    4  C   UNL     1     -41.034 -50.559  12.864  1.00  0.00     0.259 C 
HETATM    5  C   UNL     1     -40.481 -49.219  13.216  1.00  0.00     0.022 C 
HETATM    6  C   UNL     1     -39.337 -49.170  13.909  1.00  0.00     0.110 C 
HETATM    7  O   UNL     1     -38.156 -52.463  13.586  1.00  0.00    -0.246 OA
HETATM    8  O   UNL     1     -42.090 -50.640  12.240  1.00  0.00    -0.267 OA
HETATM    9  C   UNL     1     -41.233 -47.993  12.798  1.00  0.00     0.056 C 
ENDROOT
BRANCH   1  10
HETATM   10  C   UNL     1     -40.762 -52.982  12.873  1.00  0.00     0.176 C 
BRANCH  10  11
HETATM   11  C   UNL     1     -41.784 -53.640  13.802  1.00  0.00    -0.025 C 
HETATM   12  C   UNL     1     -41.392 -54.425  14.922  1.00  0.00    -0.002 A 
HETATM   13  C   UNL     1     -42.344 -55.329  15.444  1.00  0.00     0.043 A 
HETATM   14  C   UNL     1     -40.109 -54.408  15.519  1.00  0.00     0.014 A 
HETATM   15  N   UNL     1     -43.618 -55.369  15.028  1.00  0.00    -0.359 N 
HETATM   16  C   UNL     1     -41.952 -56.259  16.396  1.00  0.00     0.030 A 
HETATM   17  C   UNL     1     -44.013 -54.525  14.052  1.00  0.00     0.006 C 
ATOM     18  HN  UNL     1     -44.279 -56.027  15.443  1.00  0.00     0.166 HD
HETATM   19  C   UNL     1     -43.135 -53.668  13.404  1.00  0.00     0.034 C 
HETATM   20  C   UNL     1     -45.454 -54.631  13.659  1.00  0.00     0.068 C 
HETATM   21  C   UNL     1     -40.655 -56.293  16.906  1.00  0.00     0.002 A 
HETATM   22  C   UNL     1     -39.741 -55.332  16.497  1.00  0.00     0.001 A 
ENDBRANCH  10  11
ENDBRANCH   1  10
BRANCH   2  23
HETATM   23  C1* UNL     1     -37.441 -50.288  15.041  1.00  0.00     0.235 C 
HETATM   24  O4* UNL     1     -37.764 -50.887  16.312  1.00  0.00    -0.356 OA
HETATM   25  C4* UNL     1     -36.817 -50.365  17.278  1.00  0.00     0.176 C 
HETATM   26  C3* UNL     1     -35.919 -49.363  16.527  1.00  0.00     0.153 C 
HETATM   27  C2* UNL     1     -36.815 -48.945  15.370  1.00  0.00     0.088 C 
BRANCH  25  28
HETATM   28  C5* UNL     1     -36.098 -51.545  17.928  1.00  0.00     0.198 C 
BRANCH  28  29
HETATM   29  O5* UNL     1     -34.806 -51.136  18.391  1.00  0.00    -0.398 OA
HETATM   30  H5* UNL     1     -34.880 -51.070  19.364  1.00  0.00     0.209 HD
ENDBRANCH  28  29
ENDBRANCH  25  28
BRANCH  26  31
HETATM   31  O3* UNL     1     -34.721 -49.917  15.982  1.00  0.00    -0.393 OA
HETATM   32  H3* UNL     1     -34.917 -50.322  15.110  1.00  0.00     0.210 HD
ENDBRANCH  26  31
ENDBRANCH   2  23
TORSDOF 6
ENDMDL
