MODEL 1
REMARK VINA RESULT:      -6.6      0.000      0.000
REMARK  4 active torsions:
REMARK  status: ('A' for Active; 'I' for Inactive)
REMARK       I    between atoms: N_5  and  C_8 
REMARK       I    between atoms: C_8  and  N_10 
REMARK    1  A    between atoms: N_10  and  C_11 
REMARK    2  A    between atoms: C_11  and  C_12 
REMARK    3  A    between atoms: C_12  and  C_13 
REMARK    4  A    between atoms: N_18  and  C_19 
ROOT
HETATM    1  C   UNL     1     -46.249 -53.308  15.548  1.00  0.00     0.010 C 
HETATM    2  C   UNL     1     -46.545 -51.844  15.216  1.00  0.00    -0.015 C 
HETATM    3  C   UNL     1     -46.449 -51.569  13.706  1.00  0.00     0.024 C 
HETATM    4  C   UNL     1     -45.007 -51.583  13.193  1.00  0.00     0.128 C 
HETATM    5  N   UNL     1     -44.155 -50.699  13.994  1.00  0.00    -0.334 N 
HETATM    6  C   UNL     1     -44.181 -50.948  15.436  1.00  0.00     0.128 C 
HETATM    7  C   UNL     1     -45.608 -50.891  15.974  1.00  0.00     0.024 C 
HETATM    8  C   UNL     1     -43.428 -49.622  13.541  1.00  0.00     0.318 C 
HETATM    9  O   UNL     1     -42.855 -48.843  14.298  1.00  0.00    -0.247 OA
HETATM   10  N   UNL     1     -43.349 -49.468  12.186  1.00  0.00    -0.343 N 
HETATM   11  H   UNL     1     -43.407 -50.299  11.617  1.00  0.00     0.164 HD
ENDROOT
BRANCH  10  12
HETATM   12  C   UNL     1     -42.608 -48.356  11.611  1.00  0.00     0.132 C 
BRANCH  12  13
HETATM   13  C   UNL     1     -43.491 -47.305  10.925  1.00  0.00     0.096 C 
BRANCH  13  14
HETATM   14  C   UNL     1     -43.716 -47.625   9.482  1.00  0.00     0.088 A 
HETATM   15  N   UNL     1     -42.739 -47.855   8.625  1.00  0.00    -0.354 N 
HETATM   16  C   UNL     1     -43.334 -48.167   7.435  1.00  0.00     0.107 A 
ATOM     17  HN  UNL     1     -41.738 -47.808   8.813  1.00  0.00     0.166 HD
HETATM   18  C   UNL     1     -44.699 -48.114   7.554  1.00  0.00     0.114 A 
HETATM   19  N   UNL     1     -44.938 -47.746   8.857  1.00  0.00    -0.289 N 
BRANCH  19  20
HETATM   20  C   UNL     1     -46.266 -47.546   9.404  1.00  0.00     0.465 C 
HETATM   21  F   UNL     1     -46.923 -46.571   8.716  1.00  0.00    -0.191 F 
HETATM   22  F   UNL     1     -47.013 -48.676   9.267  1.00  0.00    -0.191 F 
ENDBRANCH  19  20
ENDBRANCH  13  14
ENDBRANCH  12  13
ENDBRANCH  10  12
TORSDOF 4
ENDMDL
MODEL 2
REMARK VINA RESULT:      -6.0      3.594      4.226
REMARK  4 active torsions:
REMARK  status: ('A' for Active; 'I' for Inactive)
REMARK       I    between atoms: N_5  and  C_8 
REMARK       I    between atoms: C_8  and  N_10 
REMARK    1  A    between atoms: N_10  and  C_11 
REMARK    2  A    between atoms: C_11  and  C_12 
REMARK    3  A    between atoms: C_12  and  C_13 
REMARK    4  A    between atoms: N_18  and  C_19 
ROOT
HETATM    1  C   UNL     1     -45.062 -55.178  13.971  1.00  0.00     0.010 C 
HETATM    2  C   UNL     1     -44.226 -54.080  14.634  1.00  0.00    -0.015 C 
HETATM    3  C   UNL     1     -44.439 -52.714  13.961  1.00  0.00     0.024 C 
HETATM    4  C   UNL     1     -43.788 -52.628  12.578  1.00  0.00     0.128 C 
HETATM    5  N   UNL     1     -42.379 -53.028  12.636  1.00  0.00    -0.334 N 
HETATM    6  C   UNL     1     -42.128 -54.340  13.232  1.00  0.00     0.128 C 
HETATM    7  C   UNL     1     -42.731 -54.428  14.632  1.00  0.00     0.024 C 
HETATM    8  C   UNL     1     -41.290 -52.264  12.280  1.00  0.00     0.318 C 
HETATM    9  O   UNL     1     -40.134 -52.619  12.495  1.00  0.00    -0.247 OA
HETATM   10  N   UNL     1     -41.556 -51.085  11.645  1.00  0.00    -0.343 N 
HETATM   11  H   UNL     1     -42.398 -51.031  11.093  1.00  0.00     0.164 HD
ENDROOT
BRANCH  10  12
HETATM   12  C   UNL     1     -40.471 -50.206  11.236  1.00  0.00     0.132 C 
BRANCH  12  13
HETATM   13  C   UNL     1     -40.584 -48.777  11.785  1.00  0.00     0.096 C 
BRANCH  13  14
HETATM   14  C   UNL     1     -41.465 -47.923  10.932  1.00  0.00     0.088 A 
HETATM   15  N   UNL     1     -42.631 -48.323  10.456  1.00  0.00    -0.354 N 
HETATM   16  C   UNL     1     -43.160 -47.258   9.784  1.00  0.00     0.107 A 
ATOM     17  HN  UNL     1     -43.052 -49.245  10.568  1.00  0.00     0.166 HD
HETATM   18  C   UNL     1     -42.303 -46.188   9.831  1.00  0.00     0.114 A 
HETATM   19  N   UNL     1     -41.212 -46.625  10.546  1.00  0.00    -0.289 N 
BRANCH  19  20
HETATM   20  C   UNL     1     -40.046 -45.806  10.810  1.00  0.00     0.465 C 
HETATM   21  F   UNL     1     -39.919 -44.836   9.862  1.00  0.00    -0.191 F 
HETATM   22  F   UNL     1     -40.178 -45.157  12.000  1.00  0.00    -0.191 F 
ENDBRANCH  19  20
ENDBRANCH  13  14
ENDBRANCH  12  13
ENDBRANCH  10  12
TORSDOF 4
ENDMDL
MODEL 3
REMARK VINA RESULT:      -6.0      4.477      7.072
REMARK  4 active torsions:
REMARK  status: ('A' for Active; 'I' for Inactive)
REMARK       I    between atoms: N_5  and  C_8 
REMARK       I    between atoms: C_8  and  N_10 
REMARK    1  A    between atoms: N_10  and  C_11 
REMARK    2  A    between atoms: C_11  and  C_12 
REMARK    3  A    between atoms: C_12  and  C_13 
REMARK    4  A    between atoms: N_18  and  C_19 
ROOT
HETATM    1  C   UNL     1     -37.681 -48.489  13.616  1.00  0.00     0.010 C 
HETATM    2  C   UNL     1     -38.150 -49.310  12.411  1.00  0.00    -0.015 C 
HETATM    3  C   UNL     1     -39.679 -49.280  12.259  1.00  0.00     0.024 C 
HETATM    4  C   UNL     1     -40.397 -50.104  13.331  1.00  0.00     0.128 C 
HETATM    5  N   UNL     1     -39.852 -51.463  13.400  1.00  0.00    -0.334 N 
HETATM    6  C   UNL     1     -38.403 -51.545  13.586  1.00  0.00     0.128 C 
HETATM    7  C   UNL     1     -37.669 -50.766  12.497  1.00  0.00     0.024 C 
HETATM    8  C   UNL     1     -40.544 -52.638  13.215  1.00  0.00     0.318 C 
HETATM    9  O   UNL     1     -39.987 -53.731  13.144  1.00  0.00    -0.247 OA
HETATM   10  N   UNL     1     -41.903 -52.538  13.134  1.00  0.00    -0.343 N 
HETATM   11  H   UNL     1     -42.346 -51.778  13.628  1.00  0.00     0.164 HD
ENDROOT
BRANCH  10  12
HETATM   12  C   UNL     1     -42.721 -53.725  12.931  1.00  0.00     0.132 C 
BRANCH  12  13
HETATM   13  C   UNL     1     -44.104 -53.436  12.332  1.00  0.00     0.096 C 
BRANCH  13  14
HETATM   14  C   UNL     1     -45.201 -53.709  13.310  1.00  0.00     0.088 A 
HETATM   15  N   UNL     1     -45.458 -54.908  13.802  1.00  0.00    -0.354 N 
HETATM   16  C   UNL     1     -46.479 -54.747  14.697  1.00  0.00     0.107 A 
ATOM     17  HN  UNL     1     -44.989 -55.780  13.562  1.00  0.00     0.166 HD
HETATM   18  C   UNL     1     -46.869 -53.433  14.747  1.00  0.00     0.114 A 
HETATM   19  N   UNL     1     -46.066 -52.778  13.843  1.00  0.00    -0.289 N 
BRANCH  19  20
HETATM   20  C   UNL     1     -46.166 -51.360  13.560  1.00  0.00     0.465 C 
HETATM   21  F   UNL     1     -44.938 -50.773  13.625  1.00  0.00    -0.191 F 
HETATM   22  F   UNL     1     -46.617 -51.157  12.292  1.00  0.00    -0.191 F 
ENDBRANCH  19  20
ENDBRANCH  13  14
ENDBRANCH  12  13
ENDBRANCH  10  12
TORSDOF 4
ENDMDL
MODEL 4
REMARK VINA RESULT:      -5.8      4.220      5.518
REMARK  4 active torsions:
REMARK  status: ('A' for Active; 'I' for Inactive)
REMARK       I    between atoms: N_5  and  C_8 
REMARK       I    between atoms: C_8  and  N_10 
REMARK    1  A    between atoms: N_10  and  C_11 
REMARK    2  A    between atoms: C_11  and  C_12 
REMARK    3  A    between atoms: C_12  and  C_13 
REMARK    4  A    between atoms: N_18  and  C_19 
ROOT
HETATM    1  C   UNL     1     -46.580 -53.579  14.951  1.00  0.00     0.010 C 
HETATM    2  C   UNL     1     -46.784 -52.138  14.478  1.00  0.00    -0.015 C 
HETATM    3  C   UNL     1     -46.340 -51.947  13.018  1.00  0.00     0.024 C 
HETATM    4  C   UNL     1     -44.819 -51.978  12.853  1.00  0.00     0.128 C 
HETATM    5  N   UNL     1     -44.171 -51.044  13.779  1.00  0.00    -0.334 N 
HETATM    6  C   UNL     1     -44.531 -51.212  15.187  1.00  0.00     0.128 C 
HETATM    7  C   UNL     1     -46.044 -51.137  15.377  1.00  0.00     0.024 C 
HETATM    8  C   UNL     1     -43.353 -49.988  13.445  1.00  0.00     0.318 C 
HETATM    9  O   UNL     1     -42.967 -49.163  14.270  1.00  0.00    -0.247 OA
HETATM   10  N   UNL     1     -42.963 -49.910  12.140  1.00  0.00    -0.343 N 
HETATM   11  H   UNL     1     -42.892 -50.771  11.620  1.00  0.00     0.164 HD
ENDROOT
BRANCH  10  12
HETATM   12  C   UNL     1     -42.103 -48.825  11.690  1.00  0.00     0.132 C 
BRANCH  12  13
HETATM   13  C   UNL     1     -40.663 -49.256  11.380  1.00  0.00     0.096 C 
BRANCH  13  14
HETATM   14  C   UNL     1     -39.756 -49.045  12.549  1.00  0.00     0.088 A 
HETATM   15  N   UNL     1     -40.080 -48.316  13.602  1.00  0.00    -0.354 N 
HETATM   16  C   UNL     1     -39.033 -48.411  14.474  1.00  0.00     0.107 A 
ATOM     17  HN  UNL     1     -40.942 -47.787  13.737  1.00  0.00     0.166 HD
HETATM   18  C   UNL     1     -38.040 -49.197  13.948  1.00  0.00     0.114 A 
HETATM   19  N   UNL     1     -38.497 -49.581  12.709  1.00  0.00    -0.289 N 
BRANCH  19  20
HETATM   20  C   UNL     1     -37.736 -50.408  11.793  1.00  0.00     0.465 C 
HETATM   21  F   UNL     1     -37.010 -49.632  10.941  1.00  0.00    -0.191 F 
HETATM   22  F   UNL     1     -36.836 -51.169  12.475  1.00  0.00    -0.191 F 
ENDBRANCH  19  20
ENDBRANCH  13  14
ENDBRANCH  12  13
ENDBRANCH  10  12
TORSDOF 4
ENDMDL
MODEL 5
REMARK VINA RESULT:      -5.8      3.192      3.829
REMARK  4 active torsions:
REMARK  status: ('A' for Active; 'I' for Inactive)
REMARK       I    between atoms: N_5  and  C_8 
REMARK       I    between atoms: C_8  and  N_10 
REMARK    1  A    between atoms: N_10  and  C_11 
REMARK    2  A    between atoms: C_11  and  C_12 
REMARK    3  A    between atoms: C_12  and  C_13 
REMARK    4  A    between atoms: N_18  and  C_19 
ROOT
HETATM    1  C   UNL     1     -44.846 -54.994  13.927  1.00  0.00     0.010 C 
HETATM    2  C   UNL     1     -44.019 -53.893  14.596  1.00  0.00    -0.015 C 
HETATM    3  C   UNL     1     -44.231 -52.529  13.920  1.00  0.00     0.024 C 
HETATM    4  C   UNL     1     -43.570 -52.441  12.542  1.00  0.00     0.128 C 
HETATM    5  N   UNL     1     -42.160 -52.836  12.611  1.00  0.00    -0.334 N 
HETATM    6  C   UNL     1     -41.909 -54.147  13.209  1.00  0.00     0.128 C 
HETATM    7  C   UNL     1     -42.522 -54.237  14.604  1.00  0.00     0.024 C 
HETATM    8  C   UNL     1     -41.072 -52.069  12.262  1.00  0.00     0.318 C 
HETATM    9  O   UNL     1     -39.916 -52.420  12.486  1.00  0.00    -0.247 OA
HETATM   10  N   UNL     1     -41.336 -50.891  11.625  1.00  0.00    -0.343 N 
HETATM   11  H   UNL     1     -42.174 -50.840  11.066  1.00  0.00     0.164 HD
ENDROOT
BRANCH  10  12
HETATM   12  C   UNL     1     -40.251 -50.009  11.224  1.00  0.00     0.132 C 
BRANCH  12  13
HETATM   13  C   UNL     1     -40.106 -48.758  12.100  1.00  0.00     0.096 C 
BRANCH  13  14
HETATM   14  C   UNL     1     -40.566 -47.525  11.390  1.00  0.00     0.088 A 
HETATM   15  N   UNL     1     -39.743 -46.624  10.884  1.00  0.00    -0.354 N 
HETATM   16  C   UNL     1     -40.526 -45.689  10.269  1.00  0.00     0.107 A 
ATOM     17  HN  UNL     1     -38.725 -46.626  10.942  1.00  0.00     0.166 HD
HETATM   18  C   UNL     1     -41.852 -46.007  10.409  1.00  0.00     0.114 A 
HETATM   19  N   UNL     1     -41.874 -47.168  11.145  1.00  0.00    -0.289 N 
BRANCH  19  20
HETATM   20  C   UNL     1     -43.094 -47.841  11.547  1.00  0.00     0.465 C 
HETATM   21  F   UNL     1     -43.376 -47.578  12.853  1.00  0.00    -0.191 F 
HETATM   22  F   UNL     1     -44.153 -47.378  10.828  1.00  0.00    -0.191 F 
ENDBRANCH  19  20
ENDBRANCH  13  14
ENDBRANCH  12  13
ENDBRANCH  10  12
TORSDOF 4
ENDMDL
MODEL 6
REMARK VINA RESULT:      -5.7      3.195      3.926
REMARK  4 active torsions:
REMARK  status: ('A' for Active; 'I' for Inactive)
REMARK       I    between atoms: N_5  and  C_8 
REMARK       I    between atoms: C_8  and  N_10 
REMARK    1  A    between atoms: N_10  and  C_11 
REMARK    2  A    between atoms: C_11  and  C_12 
REMARK    3  A    between atoms: C_12  and  C_13 
REMARK    4  A    between atoms: N_18  and  C_19 
ROOT
HETATM    1  C   UNL     1     -46.588 -53.693  14.911  1.00  0.00     0.010 C 
HETATM    2  C   UNL     1     -46.842 -52.299  14.333  1.00  0.00    -0.015 C 
HETATM    3  C   UNL     1     -46.298 -52.166  12.901  1.00  0.00     0.024 C 
HETATM    4  C   UNL     1     -44.770 -52.108  12.851  1.00  0.00     0.128 C 
HETATM    5  N   UNL     1     -44.253 -51.081  13.760  1.00  0.00    -0.334 N 
HETATM    6  C   UNL     1     -44.710 -51.188  15.146  1.00  0.00     0.128 C 
HETATM    7  C   UNL     1     -46.235 -51.201  15.219  1.00  0.00     0.024 C 
HETATM    8  C   UNL     1     -43.477 -49.995  13.422  1.00  0.00     0.318 C 
HETATM    9  O   UNL     1     -43.207 -49.100  14.218  1.00  0.00    -0.247 OA
HETATM   10  N   UNL     1     -42.992 -49.969  12.146  1.00  0.00    -0.343 N 
HETATM   11  H   UNL     1     -42.829 -50.853  11.689  1.00  0.00     0.164 HD
ENDROOT
BRANCH  10  12
HETATM   12  C   UNL     1     -42.167 -48.859  11.692  1.00  0.00     0.132 C 
BRANCH  12  13
HETATM   13  C   UNL     1     -42.968 -47.650  11.189  1.00  0.00     0.096 C 
BRANCH  13  14
HETATM   14  C   UNL     1     -42.651 -46.412  11.965  1.00  0.00     0.088 A 
HETATM   15  N   UNL     1     -43.285 -46.061  13.069  1.00  0.00    -0.354 N 
HETATM   16  C   UNL     1     -42.680 -44.920  13.515  1.00  0.00     0.107 A 
ATOM     17  HN  UNL     1     -44.070 -46.545  13.503  1.00  0.00     0.166 HD
HETATM   18  C   UNL     1     -41.668 -44.551  12.666  1.00  0.00     0.114 A 
HETATM   19  N   UNL     1     -41.668 -45.495  11.666  1.00  0.00    -0.289 N 
BRANCH  19  20
HETATM   20  C   UNL     1     -40.762 -45.465  10.535  1.00  0.00     0.465 C 
HETATM   21  F   UNL     1     -40.230 -44.220  10.381  1.00  0.00    -0.191 F 
HETATM   22  F   UNL     1     -39.710 -46.304  10.745  1.00  0.00    -0.191 F 
ENDBRANCH  19  20
ENDBRANCH  13  14
ENDBRANCH  12  13
ENDBRANCH  10  12
TORSDOF 4
ENDMDL
MODEL 7
REMARK VINA RESULT:      -5.6      2.279      2.767
REMARK  4 active torsions:
REMARK  status: ('A' for Active; 'I' for Inactive)
REMARK       I    between atoms: N_5  and  C_8 
REMARK       I    between atoms: C_8  and  N_10 
REMARK    1  A    between atoms: N_10  and  C_11 
REMARK    2  A    between atoms: C_11  and  C_12 
REMARK    3  A    between atoms: C_12  and  C_13 
REMARK    4  A    between atoms: N_18  and  C_19 
ROOT
HETATM    1  C   UNL     1     -46.502 -54.194  14.676  1.00  0.00     0.010 C 
HETATM    2  C   UNL     1     -46.865 -52.731  14.410  1.00  0.00    -0.015 C 
HETATM    3  C   UNL     1     -46.411 -52.273  13.014  1.00  0.00     0.024 C 
HETATM    4  C   UNL     1     -44.893 -52.106  12.911  1.00  0.00     0.128 C 
HETATM    5  N   UNL     1     -44.385 -51.253  13.989  1.00  0.00    -0.334 N 
HETATM    6  C   UNL     1     -44.756 -51.671  15.341  1.00  0.00     0.128 C 
HETATM    7  C   UNL     1     -46.271 -51.798  15.476  1.00  0.00     0.024 C 
HETATM    8  C   UNL     1     -43.690 -50.073  13.848  1.00  0.00     0.318 C 
HETATM    9  O   UNL     1     -43.425 -49.343  14.800  1.00  0.00    -0.247 OA
HETATM   10  N   UNL     1     -43.280 -49.755  12.586  1.00  0.00    -0.343 N 
HETATM   11  H   UNL     1     -43.094 -50.515  11.949  1.00  0.00     0.164 HD
ENDROOT
BRANCH  10  12
HETATM   12  C   UNL     1     -42.545 -48.525  12.336  1.00  0.00     0.132 C 
BRANCH  12  13
HETATM   13  C   UNL     1     -41.792 -48.507  10.998  1.00  0.00     0.096 C 
BRANCH  13  14
HETATM   14  C   UNL     1     -42.493 -47.669   9.977  1.00  0.00     0.088 A 
HETATM   15  N   UNL     1     -43.267 -48.167   9.031  1.00  0.00    -0.354 N 
HETATM   16  C   UNL     1     -43.770 -47.100   8.341  1.00  0.00     0.107 A 
ATOM     17  HN  UNL     1     -43.453 -49.154   8.851  1.00  0.00     0.166 HD
HETATM   18  C   UNL     1     -43.287 -45.926   8.858  1.00  0.00     0.114 A 
HETATM   19  N   UNL     1     -42.454 -46.295   9.888  1.00  0.00    -0.289 N 
BRANCH  19  20
HETATM   20  C   UNL     1     -41.708 -45.349  10.695  1.00  0.00     0.465 C 
HETATM   21  F   UNL     1     -40.485 -45.111  10.143  1.00  0.00    -0.191 F 
HETATM   22  F   UNL     1     -42.347 -44.148  10.735  1.00  0.00    -0.191 F 
ENDBRANCH  19  20
ENDBRANCH  13  14
ENDBRANCH  12  13
ENDBRANCH  10  12
TORSDOF 4
ENDMDL
MODEL 8
REMARK VINA RESULT:      -5.6      4.762      5.423
REMARK  4 active torsions:
REMARK  status: ('A' for Active; 'I' for Inactive)
REMARK       I    between atoms: N_5  and  C_8 
REMARK       I    between atoms: C_8  and  N_10 
REMARK    1  A    between atoms: N_10  and  C_11 
REMARK    2  A    between atoms: C_11  and  C_12 
REMARK    3  A    between atoms: C_12  and  C_13 
REMARK    4  A    between atoms: N_18  and  C_19 
ROOT
HETATM    1  C   UNL     1     -44.981 -55.004  13.976  1.00  0.00     0.010 C 
HETATM    2  C   UNL     1     -44.097 -53.966  14.673  1.00  0.00    -0.015 C 
HETATM    3  C   UNL     1     -44.293 -52.560  14.082  1.00  0.00     0.024 C 
HETATM    4  C   UNL     1     -43.681 -52.413  12.687  1.00  0.00     0.128 C 
HETATM    5  N   UNL     1     -42.282 -52.850  12.680  1.00  0.00    -0.334 N 
HETATM    6  C   UNL     1     -42.048 -54.199  13.195  1.00  0.00     0.128 C 
HETATM    7  C   UNL     1     -42.612 -54.350  14.606  1.00  0.00     0.024 C 
HETATM    8  C   UNL     1     -41.184 -52.095  12.334  1.00  0.00     0.318 C 
HETATM    9  O   UNL     1     -40.031 -52.489  12.494  1.00  0.00    -0.247 OA
HETATM   10  N   UNL     1     -41.436 -50.876  11.773  1.00  0.00    -0.343 N 
HETATM   11  H   UNL     1     -42.292 -50.770  11.250  1.00  0.00     0.164 HD
ENDROOT
BRANCH  10  12
HETATM   12  C   UNL     1     -40.341 -50.002  11.381  1.00  0.00     0.132 C 
BRANCH  12  13
HETATM   13  C   UNL     1     -39.926 -48.996  12.462  1.00  0.00     0.096 C 
BRANCH  13  14
HETATM   14  C   UNL     1     -39.949 -47.591  11.952  1.00  0.00     0.088 A 
HETATM   15  N   UNL     1     -40.353 -47.262  10.738  1.00  0.00    -0.354 N 
HETATM   16  C   UNL     1     -40.288 -45.899  10.666  1.00  0.00     0.107 A 
ATOM     17  HN  UNL     1     -40.653 -47.899  10.001  1.00  0.00     0.166 HD
HETATM   18  C   UNL     1     -39.823 -45.378  11.846  1.00  0.00     0.114 A 
HETATM   19  N   UNL     1     -39.587 -46.464  12.656  1.00  0.00    -0.289 N 
BRANCH  19  20
HETATM   20  C   UNL     1     -39.056 -46.361  14.002  1.00  0.00     0.465 C 
HETATM   21  F   UNL     1     -37.779 -46.833  14.048  1.00  0.00    -0.191 F 
HETATM   22  F   UNL     1     -38.994 -45.058  14.391  1.00  0.00    -0.191 F 
ENDBRANCH  19  20
ENDBRANCH  13  14
ENDBRANCH  12  13
ENDBRANCH  10  12
TORSDOF 4
ENDMDL
MODEL 9
REMARK VINA RESULT:      -5.5      4.915      5.962
REMARK  4 active torsions:
REMARK  status: ('A' for Active; 'I' for Inactive)
REMARK       I    between atoms: N_5  and  C_8 
REMARK       I    between atoms: C_8  and  N_10 
REMARK    1  A    between atoms: N_10  and  C_11 
REMARK    2  A    between atoms: C_11  and  C_12 
REMARK    3  A    between atoms: C_12  and  C_13 
REMARK    4  A    between atoms: N_18  and  C_19 
ROOT
HETATM    1  C   UNL     1     -47.068 -50.910  17.068  1.00  0.00     0.010 C 
HETATM    2  C   UNL     1     -46.929 -52.157  16.190  1.00  0.00    -0.015 C 
HETATM    3  C   UNL     1     -45.711 -53.005  16.591  1.00  0.00     0.024 C 
HETATM    4  C   UNL     1     -44.382 -52.355  16.196  1.00  0.00     0.128 C 
HETATM    5  N   UNL     1     -44.382 -51.981  14.779  1.00  0.00    -0.334 N 
HETATM    6  C   UNL     1     -45.501 -51.138  14.357  1.00  0.00     0.128 C 
HETATM    7  C   UNL     1     -46.837 -51.793  14.701  1.00  0.00     0.024 C 
HETATM    8  C   UNL     1     -43.504 -52.415  13.812  1.00  0.00     0.318 C 
HETATM    9  O   UNL     1     -43.659 -52.170  12.618  1.00  0.00    -0.247 OA
HETATM   10  N   UNL     1     -42.421 -53.123  14.247  1.00  0.00    -0.343 N 
HETATM   11  H   UNL     1     -42.076 -52.927  15.174  1.00  0.00     0.164 HD
ENDROOT
BRANCH  10  12
HETATM   12  C   UNL     1     -41.441 -53.631  13.299  1.00  0.00     0.132 C 
BRANCH  12  13
HETATM   13  C   UNL     1     -40.068 -52.951  13.395  1.00  0.00     0.096 C 
BRANCH  13  14
HETATM   14  C   UNL     1     -40.001 -51.715  12.557  1.00  0.00     0.088 A 
HETATM   15  N   UNL     1     -40.923 -51.381  11.673  1.00  0.00    -0.354 N 
HETATM   16  C   UNL     1     -40.546 -50.172  11.159  1.00  0.00     0.107 A 
ATOM     17  HN  UNL     1     -41.753 -51.919  11.424  1.00  0.00     0.166 HD
HETATM   18  C   UNL     1     -39.366 -49.760  11.721  1.00  0.00     0.114 A 
HETATM   19  N   UNL     1     -39.009 -50.759  12.597  1.00  0.00    -0.289 N 
BRANCH  19  20
HETATM   20  C   UNL     1     -37.796 -50.736  13.390  1.00  0.00     0.465 C 
HETATM   21  F   UNL     1     -36.762 -51.287  12.696  1.00  0.00    -0.191 F 
HETATM   22  F   UNL     1     -37.429 -49.453  13.663  1.00  0.00    -0.191 F 
ENDBRANCH  19  20
ENDBRANCH  13  14
ENDBRANCH  12  13
ENDBRANCH  10  12
TORSDOF 4
ENDMDL
