MODEL 1
REMARK VINA RESULT:      -6.4      0.000      0.000
REMARK  6 active torsions:
REMARK  status: ('A' for Active; 'I' for Inactive)
REMARK    1  A    between atoms: C_2  and  C_4 
REMARK    2  A    between atoms: C_4  and  C_5 
REMARK    3  A    between atoms: C_5  and  C_6 
REMARK    4  A    between atoms: C_6  and  N_7 
REMARK       I    between atoms: N_7  and  C_8 
REMARK    5  A    between atoms: C_8  and  C_10 
REMARK    6  A    between atoms: C_10  and  C_11 
ROOT
HETATM    1  N   UNL     1     -42.301 -50.415  12.011  1.00  0.00    -0.360 N 
HETATM    2  C   UNL     1     -41.243 -49.677  11.531  1.00  0.00     0.223 C 
HETATM    3  O   UNL     1     -40.162 -50.174  11.221  1.00  0.00    -0.273 OA
HETATM    4  H   UNL     1     -43.145 -49.930  12.306  1.00  0.00     0.162 HD
ENDROOT
BRANCH   1   5
HETATM    5  C   UNL     1     -42.187 -51.843  12.254  1.00  0.00     0.132 C 
BRANCH   5   6
HETATM    6  C   UNL     1     -43.366 -52.297  13.125  1.00  0.00    -0.024 C 
HETATM    7  C   UNL     1     -43.879 -53.733  12.794  1.00  0.00     0.011 C 
HETATM    8  C   UNL     1     -43.079 -54.299  13.962  1.00  0.00     0.002 C 
HETATM    9  C   UNL     1     -42.899 -52.873  14.505  1.00  0.00     0.011 C 
BRANCH   6  10
HETATM   10  C   UNL     1     -44.520 -51.268  13.225  1.00  0.00     0.015 C 
BRANCH  10  11
HETATM   11  C   UNL     1     -45.929 -51.893  13.363  1.00  0.00    -0.022 C 
HETATM   12  C   UNL     1     -46.707 -51.404  14.586  1.00  0.00     0.009 C 
HETATM   13  C   UNL     1     -46.765 -51.595  12.113  1.00  0.00     0.009 C 
ENDBRANCH  10  11
ENDBRANCH   6  10
ENDBRANCH   5   6
ENDBRANCH   1   5
BRANCH   2  14
HETATM   14  C   UNL     1     -41.500 -48.186  11.391  1.00  0.00     0.161 C 
BRANCH  14  15
HETATM   15  C   UNL     1     -42.620 -47.915  10.456  1.00  0.00     0.043 A 
HETATM   16  C   UNL     1     -43.933 -47.474  10.751  1.00  0.00     0.061 A 
HETATM   17  C   UNL     1     -44.571 -47.467   9.537  1.00  0.00     0.074 A 
HETATM   18  C   UNL     1     -45.944 -47.160   9.097  1.00  0.00     0.079 C 
HETATM   19  O   UNL     1     -43.699 -47.856   8.571  1.00  0.00    -0.243 OA
HETATM   20  N   UNL     1     -42.470 -48.139   9.143  1.00  0.00    -0.265 N 
ATOM     21  HN  UNL     1     -41.626 -48.452   8.664  1.00  0.00     0.194 HD
ENDBRANCH  14  15
ENDBRANCH   2  14
TORSDOF 6
ENDMDL
MODEL 2
REMARK VINA RESULT:      -5.9      2.671      5.246
REMARK  6 active torsions:
REMARK  status: ('A' for Active; 'I' for Inactive)
REMARK    1  A    between atoms: C_2  and  C_4 
REMARK    2  A    between atoms: C_4  and  C_5 
REMARK    3  A    between atoms: C_5  and  C_6 
REMARK    4  A    between atoms: C_6  and  N_7 
REMARK       I    between atoms: N_7  and  C_8 
REMARK    5  A    between atoms: C_8  and  C_10 
REMARK    6  A    between atoms: C_10  and  C_11 
ROOT
HETATM    1  N   UNL     1     -42.804 -50.891  13.007  1.00  0.00    -0.360 N 
HETATM    2  C   UNL     1     -42.037 -50.110  12.173  1.00  0.00     0.223 C 
HETATM    3  O   UNL     1     -42.403 -49.015  11.751  1.00  0.00    -0.273 OA
HETATM    4  H   UNL     1     -42.463 -51.813  13.268  1.00  0.00     0.162 HD
ENDROOT
BRANCH   1   5
HETATM    5  C   UNL     1     -44.148 -50.499  13.395  1.00  0.00     0.132 C 
BRANCH   5   6
HETATM    6  C   UNL     1     -44.957 -51.760  13.730  1.00  0.00    -0.024 C 
HETATM    7  C   UNL     1     -45.543 -51.767  15.176  1.00  0.00     0.011 C 
HETATM    8  C   UNL     1     -46.894 -51.304  14.642  1.00  0.00     0.002 C 
HETATM    9  C   UNL     1     -46.437 -51.670  13.222  1.00  0.00     0.011 C 
BRANCH   6  10
HETATM   10  C   UNL     1     -44.245 -53.090  13.377  1.00  0.00     0.015 C 
BRANCH  10  11
HETATM   11  C   UNL     1     -44.528 -54.252  14.360  1.00  0.00    -0.022 C 
HETATM   12  C   UNL     1     -45.487 -55.309  13.809  1.00  0.00     0.009 C 
HETATM   13  C   UNL     1     -43.218 -54.947  14.747  1.00  0.00     0.009 C 
ENDBRANCH  10  11
ENDBRANCH   6  10
ENDBRANCH   5   6
ENDBRANCH   1   5
BRANCH   2  14
HETATM   14  C   UNL     1     -40.678 -50.686  11.809  1.00  0.00     0.161 C 
BRANCH  14  15
HETATM   15  C   UNL     1     -40.475 -52.023  12.422  1.00  0.00     0.043 A 
HETATM   16  C   UNL     1     -39.893 -52.344  13.671  1.00  0.00     0.061 A 
HETATM   17  C   UNL     1     -39.882 -53.715  13.700  1.00  0.00     0.074 A 
HETATM   18  C   UNL     1     -39.394 -54.721  14.661  1.00  0.00     0.079 C 
HETATM   19  O   UNL     1     -40.440 -54.191  12.557  1.00  0.00    -0.243 OA
HETATM   20  N   UNL     1     -40.816 -53.131  11.749  1.00  0.00    -0.265 N 
ATOM     21  HN  UNL     1     -41.260 -53.183  10.832  1.00  0.00     0.194 HD
ENDBRANCH  14  15
ENDBRANCH   2  14
TORSDOF 6
ENDMDL
MODEL 3
REMARK VINA RESULT:      -5.8      2.134      2.559
REMARK  6 active torsions:
REMARK  status: ('A' for Active; 'I' for Inactive)
REMARK    1  A    between atoms: C_2  and  C_4 
REMARK    2  A    between atoms: C_4  and  C_5 
REMARK    3  A    between atoms: C_5  and  C_6 
REMARK    4  A    between atoms: C_6  and  N_7 
REMARK       I    between atoms: N_7  and  C_8 
REMARK    5  A    between atoms: C_8  and  C_10 
REMARK    6  A    between atoms: C_10  and  C_11 
ROOT
HETATM    1  N   UNL     1     -42.407 -49.997  11.882  1.00  0.00    -0.360 N 
HETATM    2  C   UNL     1     -41.472 -49.133  11.359  1.00  0.00     0.223 C 
HETATM    3  O   UNL     1     -40.269 -49.216  11.601  1.00  0.00    -0.273 OA
HETATM    4  H   UNL     1     -43.391 -49.831  11.688  1.00  0.00     0.162 HD
ENDROOT
BRANCH   1   5
HETATM    5  C   UNL     1     -42.038 -51.039  12.825  1.00  0.00     0.132 C 
BRANCH   5   6
HETATM    6  C   UNL     1     -43.299 -51.819  13.224  1.00  0.00    -0.024 C 
HETATM    7  C   UNL     1     -43.503 -53.141  12.421  1.00  0.00     0.011 C 
HETATM    8  C   UNL     1     -42.905 -53.944  13.572  1.00  0.00     0.002 C 
HETATM    9  C   UNL     1     -43.068 -52.720  14.485  1.00  0.00     0.011 C 
BRANCH   6  10
HETATM   10  C   UNL     1     -44.589 -50.962  13.284  1.00  0.00     0.015 C 
BRANCH  10  11
HETATM   11  C   UNL     1     -45.897 -51.778  13.422  1.00  0.00    -0.022 C 
HETATM   12  C   UNL     1     -46.731 -51.407  14.649  1.00  0.00     0.009 C 
HETATM   13  C   UNL     1     -46.769 -51.592  12.175  1.00  0.00     0.009 C 
ENDBRANCH  10  11
ENDBRANCH   6  10
ENDBRANCH   5   6
ENDBRANCH   1   5
BRANCH   2  14
HETATM   14  C   UNL     1     -42.023 -48.059  10.437  1.00  0.00     0.161 C 
BRANCH  14  15
HETATM   15  C   UNL     1     -41.348 -46.756  10.659  1.00  0.00     0.043 A 
HETATM   16  C   UNL     1     -41.923 -45.507  10.996  1.00  0.00     0.061 A 
HETATM   17  C   UNL     1     -40.866 -44.633  10.997  1.00  0.00     0.074 A 
HETATM   18  C   UNL     1     -40.729 -43.183  11.221  1.00  0.00     0.079 C 
HETATM   19  O   UNL     1     -39.725 -45.311  10.703  1.00  0.00    -0.243 OA
HETATM   20  N   UNL     1     -40.023 -46.646  10.490  1.00  0.00    -0.265 N 
ATOM     21  HN  UNL     1     -39.368 -47.392  10.253  1.00  0.00     0.194 HD
ENDBRANCH  14  15
ENDBRANCH   2  14
TORSDOF 6
ENDMDL
MODEL 4
REMARK VINA RESULT:      -5.8      3.134      4.098
REMARK  6 active torsions:
REMARK  status: ('A' for Active; 'I' for Inactive)
REMARK    1  A    between atoms: C_2  and  C_4 
REMARK    2  A    between atoms: C_4  and  C_5 
REMARK    3  A    between atoms: C_5  and  C_6 
REMARK    4  A    between atoms: C_6  and  N_7 
REMARK       I    between atoms: N_7  and  C_8 
REMARK    5  A    between atoms: C_8  and  C_10 
REMARK    6  A    between atoms: C_10  and  C_11 
ROOT
HETATM    1  N   UNL     1     -42.538 -52.312  11.850  1.00  0.00    -0.360 N 
HETATM    2  C   UNL     1     -41.214 -51.943  11.931  1.00  0.00     0.223 C 
HETATM    3  O   UNL     1     -40.329 -52.693  12.338  1.00  0.00    -0.273 OA
HETATM    4  H   UNL     1     -43.224 -51.620  11.561  1.00  0.00     0.162 HD
ENDROOT
BRANCH   1   5
HETATM    5  C   UNL     1     -42.996 -53.611  12.313  1.00  0.00     0.132 C 
BRANCH   5   6
HETATM    6  C   UNL     1     -43.750 -53.430  13.638  1.00  0.00    -0.024 C 
HETATM    7  C   UNL     1     -44.642 -54.649  14.027  1.00  0.00     0.011 C 
HETATM    8  C   UNL     1     -43.554 -55.158  14.967  1.00  0.00     0.002 C 
HETATM    9  C   UNL     1     -42.866 -53.788  14.881  1.00  0.00     0.011 C 
BRANCH   6  10
HETATM   10  C   UNL     1     -44.506 -52.083  13.764  1.00  0.00     0.015 C 
BRANCH  10  11
HETATM   11  C   UNL     1     -46.047 -52.201  13.696  1.00  0.00    -0.022 C 
HETATM   12  C   UNL     1     -46.777 -51.432  14.799  1.00  0.00     0.009 C 
HETATM   13  C   UNL     1     -46.557 -51.696  12.341  1.00  0.00     0.009 C 
ENDBRANCH  10  11
ENDBRANCH   6  10
ENDBRANCH   5   6
ENDBRANCH   1   5
BRANCH   2  14
HETATM   14  C   UNL     1     -40.904 -50.530  11.464  1.00  0.00     0.161 C 
BRANCH  14  15
HETATM   15  C   UNL     1     -39.670 -50.008  12.102  1.00  0.00     0.043 A 
HETATM   16  C   UNL     1     -39.547 -49.162  13.230  1.00  0.00     0.061 A 
HETATM   17  C   UNL     1     -38.199 -48.928  13.336  1.00  0.00     0.074 A 
HETATM   18  C   UNL     1     -37.362 -48.118  14.239  1.00  0.00     0.079 C 
HETATM   19  O   UNL     1     -37.549 -49.605  12.353  1.00  0.00    -0.243 OA
HETATM   20  N   UNL     1     -38.469 -50.286  11.575  1.00  0.00    -0.265 N 
ATOM     21  HN  UNL     1     -38.274 -50.878  10.767  1.00  0.00     0.194 HD
ENDBRANCH  14  15
ENDBRANCH   2  14
TORSDOF 6
ENDMDL
MODEL 5
REMARK VINA RESULT:      -5.6      1.079      2.833
REMARK  6 active torsions:
REMARK  status: ('A' for Active; 'I' for Inactive)
REMARK    1  A    between atoms: C_2  and  C_4 
REMARK    2  A    between atoms: C_4  and  C_5 
REMARK    3  A    between atoms: C_5  and  C_6 
REMARK    4  A    between atoms: C_6  and  N_7 
REMARK       I    between atoms: N_7  and  C_8 
REMARK    5  A    between atoms: C_8  and  C_10 
REMARK    6  A    between atoms: C_10  and  C_11 
ROOT
HETATM    1  N   UNL     1     -42.250 -50.833  12.055  1.00  0.00    -0.360 N 
HETATM    2  C   UNL     1     -41.106 -50.083  11.908  1.00  0.00     0.223 C 
HETATM    3  O   UNL     1     -39.991 -50.578  11.760  1.00  0.00    -0.273 OA
HETATM    4  H   UNL     1     -43.130 -50.357  12.235  1.00  0.00     0.162 HD
ENDROOT
BRANCH   1   5
HETATM    5  C   UNL     1     -42.207 -52.284  12.116  1.00  0.00     0.132 C 
BRANCH   5   6
HETATM    6  C   UNL     1     -43.168 -52.766  13.212  1.00  0.00    -0.024 C 
HETATM    7  C   UNL     1     -44.431 -51.865  13.383  1.00  0.00     0.011 C 
HETATM    8  C   UNL     1     -45.250 -52.836  12.540  1.00  0.00     0.002 C 
HETATM    9  C   UNL     1     -44.140 -53.884  12.702  1.00  0.00     0.011 C 
BRANCH   6  10
HETATM   10  C   UNL     1     -42.486 -53.088  14.565  1.00  0.00     0.015 C 
BRANCH  10  11
HETATM   11  C   UNL     1     -41.858 -54.500  14.649  1.00  0.00    -0.022 C 
HETATM   12  C   UNL     1     -40.353 -54.493  14.923  1.00  0.00     0.009 C 
HETATM   13  C   UNL     1     -42.543 -55.318  15.750  1.00  0.00     0.009 C 
ENDBRANCH  10  11
ENDBRANCH   6  10
ENDBRANCH   5   6
ENDBRANCH   1   5
BRANCH   2  14
HETATM   14  C   UNL     1     -41.309 -48.577  11.925  1.00  0.00     0.161 C 
BRANCH  14  15
HETATM   15  C   UNL     1     -42.246 -48.145  10.859  1.00  0.00     0.043 A 
HETATM   16  C   UNL     1     -43.552 -47.615  10.990  1.00  0.00     0.061 A 
HETATM   17  C   UNL     1     -43.991 -47.466   9.699  1.00  0.00     0.074 A 
HETATM   18  C   UNL     1     -45.252 -47.012   9.086  1.00  0.00     0.079 C 
HETATM   19  O   UNL     1     -43.010 -47.859   8.845  1.00  0.00    -0.243 OA
HETATM   20  N   UNL     1     -41.910 -48.286   9.569  1.00  0.00    -0.265 N 
ATOM     21  HN  UNL     1     -41.026 -48.635   9.198  1.00  0.00     0.194 HD
ENDBRANCH  14  15
ENDBRANCH   2  14
TORSDOF 6
ENDMDL
MODEL 6
REMARK VINA RESULT:      -5.5      3.379      6.486
REMARK  6 active torsions:
REMARK  status: ('A' for Active; 'I' for Inactive)
REMARK    1  A    between atoms: C_2  and  C_4 
REMARK    2  A    between atoms: C_4  and  C_5 
REMARK    3  A    between atoms: C_5  and  C_6 
REMARK    4  A    between atoms: C_6  and  N_7 
REMARK       I    between atoms: N_7  and  C_8 
REMARK    5  A    between atoms: C_8  and  C_10 
REMARK    6  A    between atoms: C_10  and  C_11 
ROOT
HETATM    1  N   UNL     1     -41.205 -51.490  13.854  1.00  0.00    -0.360 N 
HETATM    2  C   UNL     1     -40.060 -52.205  13.590  1.00  0.00     0.223 C 
HETATM    3  O   UNL     1     -39.787 -52.653  12.478  1.00  0.00    -0.273 OA
HETATM    4  H   UNL     1     -41.395 -51.202  14.811  1.00  0.00     0.162 HD
ENDROOT
BRANCH   1   5
HETATM    5  C   UNL     1     -42.219 -51.272  12.837  1.00  0.00     0.132 C 
BRANCH   5   6
HETATM    6  C   UNL     1     -43.506 -51.998  13.253  1.00  0.00    -0.024 C 
HETATM    7  C   UNL     1     -43.797 -53.288  12.424  1.00  0.00     0.011 C 
HETATM    8  C   UNL     1     -43.210 -54.148  13.537  1.00  0.00     0.002 C 
HETATM    9  C   UNL     1     -43.286 -52.942  14.484  1.00  0.00     0.011 C 
BRANCH   6  10
HETATM   10  C   UNL     1     -44.749 -51.081  13.372  1.00  0.00     0.015 C 
BRANCH  10  11
HETATM   11  C   UNL     1     -46.098 -51.834  13.465  1.00  0.00    -0.022 C 
HETATM   12  C   UNL     1     -46.947 -51.436  14.673  1.00  0.00     0.009 C 
HETATM   13  C   UNL     1     -46.926 -51.595  12.197  1.00  0.00     0.009 C 
ENDBRANCH  10  11
ENDBRANCH   6  10
ENDBRANCH   5   6
ENDBRANCH   1   5
BRANCH   2  14
HETATM   14  C   UNL     1     -39.127 -52.401  14.773  1.00  0.00     0.161 C 
BRANCH  14  15
HETATM   15  C   UNL     1     -39.120 -53.813  15.230  1.00  0.00     0.043 A 
HETATM   16  C   UNL     1     -39.553 -54.344  16.469  1.00  0.00     0.061 A 
HETATM   17  C   UNL     1     -39.247 -55.679  16.393  1.00  0.00     0.074 A 
HETATM   18  C   UNL     1     -39.377 -56.820  17.317  1.00  0.00     0.079 C 
HETATM   19  O   UNL     1     -38.689 -55.942  15.182  1.00  0.00    -0.243 OA
HETATM   20  N   UNL     1     -38.606 -54.771  14.447  1.00  0.00    -0.265 N 
ATOM     21  HN  UNL     1     -38.233 -54.662  13.504  1.00  0.00     0.194 HD
ENDBRANCH  14  15
ENDBRANCH   2  14
TORSDOF 6
ENDMDL
MODEL 7
REMARK VINA RESULT:      -5.5      2.097      3.593
REMARK  6 active torsions:
REMARK  status: ('A' for Active; 'I' for Inactive)
REMARK    1  A    between atoms: C_2  and  C_4 
REMARK    2  A    between atoms: C_4  and  C_5 
REMARK    3  A    between atoms: C_5  and  C_6 
REMARK    4  A    between atoms: C_6  and  N_7 
REMARK       I    between atoms: N_7  and  C_8 
REMARK    5  A    between atoms: C_8  and  C_10 
REMARK    6  A    between atoms: C_10  and  C_11 
ROOT
HETATM    1  N   UNL     1     -43.062 -50.179  12.654  1.00  0.00    -0.360 N 
HETATM    2  C   UNL     1     -42.663 -48.921  12.262  1.00  0.00     0.223 C 
HETATM    3  O   UNL     1     -42.994 -47.896  12.854  1.00  0.00    -0.273 OA
HETATM    4  H   UNL     1     -42.800 -50.978  12.081  1.00  0.00     0.162 HD
ENDROOT
BRANCH   1   5
HETATM    5  C   UNL     1     -43.972 -50.377  13.769  1.00  0.00     0.132 C 
BRANCH   5   6
HETATM    6  C   UNL     1     -44.766 -51.671  13.541  1.00  0.00    -0.024 C 
HETATM    7  C   UNL     1     -45.597 -52.128  14.780  1.00  0.00     0.011 C 
HETATM    8  C   UNL     1     -46.853 -51.507  14.179  1.00  0.00     0.002 C 
HETATM    9  C   UNL     1     -46.135 -51.410  12.825  1.00  0.00     0.011 C 
BRANCH   6  10
HETATM   10  C   UNL     1     -43.939 -52.829  12.926  1.00  0.00     0.015 C 
BRANCH  10  11
HETATM   11  C   UNL     1     -43.044 -53.586  13.936  1.00  0.00    -0.022 C 
HETATM   12  C   UNL     1     -43.654 -54.893  14.445  1.00  0.00     0.009 C 
HETATM   13  C   UNL     1     -41.685 -53.906  13.302  1.00  0.00     0.009 C 
ENDBRANCH  10  11
ENDBRANCH   6  10
ENDBRANCH   5   6
ENDBRANCH   1   5
BRANCH   2  14
HETATM   14  C   UNL     1     -41.761 -48.876  11.040  1.00  0.00     0.161 C 
BRANCH  14  15
HETATM   15  C   UNL     1     -41.422 -47.480  10.669  1.00  0.00     0.043 A 
HETATM   16  C   UNL     1     -40.302 -46.707  11.060  1.00  0.00     0.061 A 
HETATM   17  C   UNL     1     -40.526 -45.475  10.501  1.00  0.00     0.074 A 
HETATM   18  C   UNL     1     -39.808 -44.188  10.524  1.00  0.00     0.079 C 
HETATM   19  O   UNL     1     -41.690 -45.506   9.802  1.00  0.00    -0.243 OA
HETATM   20  N   UNL     1     -42.257 -46.765   9.903  1.00  0.00    -0.265 N 
ATOM     21  HN  UNL     1     -43.131 -47.083   9.482  1.00  0.00     0.194 HD
ENDBRANCH  14  15
ENDBRANCH   2  14
TORSDOF 6
ENDMDL
MODEL 8
REMARK VINA RESULT:      -5.4      2.131      5.386
REMARK  6 active torsions:
REMARK  status: ('A' for Active; 'I' for Inactive)
REMARK    1  A    between atoms: C_2  and  C_4 
REMARK    2  A    between atoms: C_4  and  C_5 
REMARK    3  A    between atoms: C_5  and  C_6 
REMARK    4  A    between atoms: C_6  and  N_7 
REMARK       I    between atoms: N_7  and  C_8 
REMARK    5  A    between atoms: C_8  and  C_10 
REMARK    6  A    between atoms: C_10  and  C_11 
ROOT
HETATM    1  N   UNL     1     -41.181 -51.168  11.499  1.00  0.00    -0.360 N 
HETATM    2  C   UNL     1     -40.647 -52.100  12.360  1.00  0.00     0.223 C 
HETATM    3  O   UNL     1     -39.538 -51.981  12.877  1.00  0.00    -0.273 OA
HETATM    4  H   UNL     1     -42.078 -51.361  11.061  1.00  0.00     0.162 HD
ENDROOT
BRANCH   1   5
HETATM    5  C   UNL     1     -40.429 -49.997  11.082  1.00  0.00     0.132 C 
BRANCH   5   6
HETATM    6  C   UNL     1     -41.237 -48.738  11.425  1.00  0.00    -0.024 C 
HETATM    7  C   UNL     1     -42.177 -48.909  12.658  1.00  0.00     0.011 C 
HETATM    8  C   UNL     1     -41.146 -48.228  13.552  1.00  0.00     0.002 C 
HETATM    9  C   UNL     1     -40.418 -47.725  12.296  1.00  0.00     0.011 C 
BRANCH   6  10
HETATM   10  C   UNL     1     -41.961 -48.094  10.216  1.00  0.00     0.015 C 
BRANCH  10  11
HETATM   11  C   UNL     1     -43.079 -47.092  10.596  1.00  0.00    -0.022 C 
HETATM   12  C   UNL     1     -42.742 -45.636  10.270  1.00  0.00     0.009 C 
HETATM   13  C   UNL     1     -44.382 -47.456   9.875  1.00  0.00     0.009 C 
ENDBRANCH  10  11
ENDBRANCH   6  10
ENDBRANCH   5   6
ENDBRANCH   1   5
BRANCH   2  14
HETATM   14  C   UNL     1     -41.533 -53.300  12.650  1.00  0.00     0.161 C 
BRANCH  14  15
HETATM   15  C   UNL     1     -42.964 -52.913  12.717  1.00  0.00     0.043 A 
HETATM   16  C   UNL     1     -43.614 -52.085  13.664  1.00  0.00     0.061 A 
HETATM   17  C   UNL     1     -44.938 -52.131  13.305  1.00  0.00     0.074 A 
HETATM   18  C   UNL     1     -46.174 -51.549  13.857  1.00  0.00     0.079 C 
HETATM   19  O   UNL     1     -45.076 -52.914  12.204  1.00  0.00    -0.243 OA
HETATM   20  N   UNL     1     -43.838 -53.408  11.829  1.00  0.00    -0.265 N 
ATOM     21  HN  UNL     1     -43.633 -54.022  11.041  1.00  0.00     0.194 HD
ENDBRANCH  14  15
ENDBRANCH   2  14
TORSDOF 6
ENDMDL
MODEL 9
REMARK VINA RESULT:      -5.4      1.978      2.644
REMARK  6 active torsions:
REMARK  status: ('A' for Active; 'I' for Inactive)
REMARK    1  A    between atoms: C_2  and  C_4 
REMARK    2  A    between atoms: C_4  and  C_5 
REMARK    3  A    between atoms: C_5  and  C_6 
REMARK    4  A    between atoms: C_6  and  N_7 
REMARK       I    between atoms: N_7  and  C_8 
REMARK    5  A    between atoms: C_8  and  C_10 
REMARK    6  A    between atoms: C_10  and  C_11 
ROOT
HETATM    1  N   UNL     1     -44.597 -50.761  13.013  1.00  0.00    -0.360 N 
HETATM    2  C   UNL     1     -43.259 -50.444  12.960  1.00  0.00     0.223 C 
HETATM    3  O   UNL     1     -42.370 -51.288  12.869  1.00  0.00    -0.273 OA
HETATM    4  H   UNL     1     -45.274 -50.015  13.151  1.00  0.00     0.162 HD
ENDROOT
BRANCH   1   5
HETATM    5  C   UNL     1     -45.053 -52.141  13.035  1.00  0.00     0.132 C 
BRANCH   5   6
HETATM    6  C   UNL     1     -45.661 -52.443  14.411  1.00  0.00    -0.024 C 
HETATM    7  C   UNL     1     -46.410 -53.810  14.483  1.00  0.00     0.011 C 
HETATM    8  C   UNL     1     -45.186 -54.458  15.122  1.00  0.00     0.002 C 
HETATM    9  C   UNL     1     -44.615 -53.060  15.402  1.00  0.00     0.011 C 
BRANCH   6  10
HETATM   10  C   UNL     1     -46.494 -51.282  15.011  1.00  0.00     0.015 C 
BRANCH  10  11
HETATM   11  C   UNL     1     -46.588 -51.290  16.556  1.00  0.00    -0.022 C 
HETATM   12  C   UNL     1     -45.784 -50.176  17.230  1.00  0.00     0.009 C 
HETATM   13  C   UNL     1     -48.050 -51.162  16.998  1.00  0.00     0.009 C 
ENDBRANCH  10  11
ENDBRANCH   6  10
ENDBRANCH   5   6
ENDBRANCH   1   5
BRANCH   2  14
HETATM   14  C   UNL     1     -42.940 -48.959  13.009  1.00  0.00     0.161 C 
BRANCH  14  15
HETATM   15  C   UNL     1     -42.834 -48.383  11.645  1.00  0.00     0.043 A 
HETATM   16  C   UNL     1     -43.592 -47.339  11.063  1.00  0.00     0.061 A 
HETATM   17  C   UNL     1     -43.140 -47.268   9.770  1.00  0.00     0.074 A 
HETATM   18  C   UNL     1     -43.499 -46.451   8.598  1.00  0.00     0.079 C 
HETATM   19  O   UNL     1     -42.158 -48.190   9.589  1.00  0.00    -0.243 OA
HETATM   20  N   UNL     1     -41.961 -48.894  10.764  1.00  0.00    -0.265 N 
ATOM     21  HN  UNL     1     -41.291 -49.645  10.927  1.00  0.00     0.194 HD
ENDBRANCH  14  15
ENDBRANCH   2  14
TORSDOF 6
ENDMDL
