MODEL 1
REMARK VINA RESULT:      -6.8      0.000      0.000
REMARK  6 active torsions:
REMARK  status: ('A' for Active; 'I' for Inactive)
REMARK    1  A    between atoms: C_2  and  C_5 
REMARK       I    between atoms: C_5  and  N_7 
REMARK    2  A    between atoms: N_7  and  C_8 
REMARK    3  A    between atoms: C_8  and  C_9 
REMARK       I    between atoms: C_9  and  N_11 
REMARK    4  A    between atoms: N_11  and  C_12 
REMARK    5  A    between atoms: C_12  and  C_13 
REMARK    6  A    between atoms: C_16  and  N_20 
ROOT
HETATM    1  C   UNL     1     -40.637 -51.692  12.803  1.00  0.00     0.162 C 
ENDROOT
BRANCH   1   2
HETATM    2  N   UNL     1     -41.572 -52.455  13.593  1.00  0.00    -0.355 N 
HETATM    3  C   UNL     1     -41.609 -53.829  13.452  1.00  0.00     0.235 C 
HETATM    4  O   UNL     1     -40.904 -54.442  12.652  1.00  0.00    -0.272 OA
HETATM    5  H   UNL     1     -42.404 -52.004  13.970  1.00  0.00     0.162 HD
BRANCH   3   6
HETATM    6  C   UNL     1     -42.649 -54.536  14.320  1.00  0.00     0.225 C 
BRANCH   6   7
HETATM    7  N   UNL     1     -43.805 -53.697  14.567  1.00  0.00    -0.352 N 
HETATM    8  C   UNL     1     -44.792 -53.556  13.620  1.00  0.00     0.225 C 
HETATM    9  O   UNL     1     -44.747 -54.179  12.560  1.00  0.00    -0.273 OA
HETATM   10  H   UNL     1     -43.943 -53.347  15.506  1.00  0.00     0.162 HD
BRANCH   8  11
HETATM   11  C   UNL     1     -45.947 -52.604  13.991  1.00  0.00     0.030 C 
HETATM   12  C   UNL     1     -46.570 -52.034  12.705  1.00  0.00     0.024 C 
HETATM   13  C   UNL     1     -45.432 -51.433  14.843  1.00  0.00     0.024 C 
HETATM   14  C   UNL     1     -47.024 -53.376  14.765  1.00  0.00     0.024 C 
ENDBRANCH   8  11
ENDBRANCH   6   7
ENDBRANCH   3   6
ENDBRANCH   1   2
BRANCH   1  15
HETATM   15  C   UNL     1     -41.199 -50.426  12.234  1.00  0.00    -0.025 A 
HETATM   16  C   UNL     1     -42.317 -49.810  12.783  1.00  0.00     0.014 A 
HETATM   17  C   UNL     1     -42.884 -48.697  12.150  1.00  0.00     0.049 A 
HETATM   18  C   UNL     1     -42.338 -48.202  10.966  1.00  0.00     0.103 A 
HETATM   19  N   UNL     1     -41.223 -48.777  10.461  1.00  0.00    -0.352 N 
HETATM   20  C   UNL     1     -40.676 -49.845  11.092  1.00  0.00     0.098 A 
ATOM     21  HN  UNL     1     -40.796 -48.410   9.611  1.00  0.00     0.166 HD
BRANCH  18  22
HETATM   22  N   UNL     1     -42.853 -47.105  10.299  1.00  0.00    -0.363 N 
HETATM   23  C   UNL     1     -42.108 -45.840  10.446  1.00  0.00     0.150 C 
HETATM   24  C   UNL     1     -43.065 -44.660  10.223  1.00  0.00     0.187 C 
HETATM   25  O   UNL     1     -43.714 -44.741   8.941  1.00  0.00    -0.388 OA
HETATM   26  C   UNL     1     -44.465 -45.962   8.849  1.00  0.00     0.187 C 
HETATM   27  C   UNL     1     -43.571 -47.203   9.022  1.00  0.00     0.150 C 
ENDBRANCH  18  22
ENDBRANCH   1  15
TORSDOF 6
ENDMDL
MODEL 2
REMARK VINA RESULT:      -6.6      1.352      2.042
REMARK  6 active torsions:
REMARK  status: ('A' for Active; 'I' for Inactive)
REMARK    1  A    between atoms: C_2  and  C_5 
REMARK       I    between atoms: C_5  and  N_7 
REMARK    2  A    between atoms: N_7  and  C_8 
REMARK    3  A    between atoms: C_8  and  C_9 
REMARK       I    between atoms: C_9  and  N_11 
REMARK    4  A    between atoms: N_11  and  C_12 
REMARK    5  A    between atoms: C_12  and  C_13 
REMARK    6  A    between atoms: C_16  and  N_20 
ROOT
HETATM    1  C   UNL     1     -40.470 -52.984  13.016  1.00  0.00     0.162 C 
ENDROOT
BRANCH   1   2
HETATM    2  N   UNL     1     -41.752 -53.581  13.296  1.00  0.00    -0.355 N 
HETATM    3  C   UNL     1     -41.907 -54.340  14.441  1.00  0.00     0.235 C 
HETATM    4  O   UNL     1     -40.987 -54.568  15.226  1.00  0.00    -0.272 OA
HETATM    5  H   UNL     1     -42.412 -53.746  12.538  1.00  0.00     0.162 HD
BRANCH   3   6
HETATM    6  C   UNL     1     -43.297 -54.943  14.630  1.00  0.00     0.225 C 
BRANCH   6   7
HETATM    7  N   UNL     1     -44.320 -53.919  14.720  1.00  0.00    -0.352 N 
HETATM    8  C   UNL     1     -45.019 -53.518  13.605  1.00  0.00     0.225 C 
HETATM    9  O   UNL     1     -44.831 -54.053  12.513  1.00  0.00    -0.273 OA
HETATM   10  H   UNL     1     -44.614 -53.624  15.641  1.00  0.00     0.162 HD
BRANCH   8  11
HETATM   11  C   UNL     1     -46.050 -52.394  13.829  1.00  0.00     0.030 C 
HETATM   12  C   UNL     1     -46.617 -51.946  12.471  1.00  0.00     0.024 C 
HETATM   13  C   UNL     1     -45.392 -51.180  14.505  1.00  0.00     0.024 C 
HETATM   14  C   UNL     1     -47.201 -52.915  14.700  1.00  0.00     0.024 C 
ENDBRANCH   8  11
ENDBRANCH   6   7
ENDBRANCH   3   6
ENDBRANCH   1   2
BRANCH   1  15
HETATM   15  C   UNL     1     -40.545 -51.614  12.416  1.00  0.00    -0.025 A 
HETATM   16  C   UNL     1     -39.416 -50.822  12.255  1.00  0.00     0.014 A 
HETATM   17  C   UNL     1     -39.544 -49.503  11.804  1.00  0.00     0.049 A 
HETATM   18  C   UNL     1     -40.802 -48.972  11.519  1.00  0.00     0.103 A 
HETATM   19  N   UNL     1     -41.894 -49.762  11.633  1.00  0.00    -0.352 N 
HETATM   20  C   UNL     1     -41.753 -51.042  12.056  1.00  0.00     0.098 A 
ATOM     21  HN  UNL     1     -42.818 -49.397  11.401  1.00  0.00     0.166 HD
BRANCH  18  22
HETATM   22  N   UNL     1     -40.990 -47.678  11.068  1.00  0.00    -0.363 N 
HETATM   23  C   UNL     1     -42.387 -47.255  10.852  1.00  0.00     0.150 C 
HETATM   24  C   UNL     1     -42.420 -46.128   9.810  1.00  0.00     0.187 C 
HETATM   25  O   UNL     1     -41.593 -45.020  10.207  1.00  0.00    -0.388 OA
HETATM   26  C   UNL     1     -40.233 -45.455  10.365  1.00  0.00     0.187 C 
HETATM   27  C   UNL     1     -40.103 -46.564  11.425  1.00  0.00     0.150 C 
ENDBRANCH  18  22
ENDBRANCH   1  15
TORSDOF 6
ENDMDL
MODEL 3
REMARK VINA RESULT:      -6.5      1.156      1.632
REMARK  6 active torsions:
REMARK  status: ('A' for Active; 'I' for Inactive)
REMARK    1  A    between atoms: C_2  and  C_5 
REMARK       I    between atoms: C_5  and  N_7 
REMARK    2  A    between atoms: N_7  and  C_8 
REMARK    3  A    between atoms: C_8  and  C_9 
REMARK       I    between atoms: C_9  and  N_11 
REMARK    4  A    between atoms: N_11  and  C_12 
REMARK    5  A    between atoms: C_12  and  C_13 
REMARK    6  A    between atoms: C_16  and  N_20 
ROOT
HETATM    1  C   UNL     1     -39.896 -52.338  13.856  1.00  0.00     0.162 C 
ENDROOT
BRANCH   1   2
HETATM    2  N   UNL     1     -41.054 -52.961  14.446  1.00  0.00    -0.355 N 
HETATM    3  C   UNL     1     -41.633 -54.045  13.812  1.00  0.00     0.235 C 
HETATM    4  O   UNL     1     -41.230 -54.489  12.738  1.00  0.00    -0.272 OA
HETATM    5  H   UNL     1     -41.640 -52.436  15.094  1.00  0.00     0.162 HD
BRANCH   3   6
HETATM    6  C   UNL     1     -42.866 -54.615  14.511  1.00  0.00     0.225 C 
BRANCH   6   7
HETATM    7  N   UNL     1     -43.924 -53.631  14.625  1.00  0.00    -0.352 N 
HETATM    8  C   UNL     1     -44.862 -53.482  13.629  1.00  0.00     0.225 C 
HETATM    9  O   UNL     1     -44.857 -54.214  12.640  1.00  0.00    -0.273 OA
HETATM   10  H   UNL     1     -44.049 -53.171  15.517  1.00  0.00     0.162 HD
BRANCH   8  11
HETATM   11  C   UNL     1     -45.909 -52.374  13.855  1.00  0.00     0.030 C 
HETATM   12  C   UNL     1     -45.219 -51.138  14.460  1.00  0.00     0.024 C 
HETATM   13  C   UNL     1     -46.999 -52.847  14.829  1.00  0.00     0.024 C 
HETATM   14  C   UNL     1     -46.543 -51.981  12.514  1.00  0.00     0.024 C 
ENDBRANCH   8  11
ENDBRANCH   6   7
ENDBRANCH   3   6
ENDBRANCH   1   2
BRANCH   1  15
HETATM   15  C   UNL     1     -40.186 -51.061  13.131  1.00  0.00    -0.025 A 
HETATM   16  C   UNL     1     -39.993 -49.820  13.726  1.00  0.00     0.014 A 
HETATM   17  C   UNL     1     -40.390 -48.655  13.060  1.00  0.00     0.049 A 
HETATM   18  C   UNL     1     -40.985 -48.726  11.801  1.00  0.00     0.103 A 
HETATM   19  N   UNL     1     -41.127 -49.933  11.206  1.00  0.00    -0.352 N 
HETATM   20  C   UNL     1     -40.725 -51.052  11.856  1.00  0.00     0.098 A 
ATOM     21  HN  UNL     1     -41.535 -50.000  10.273  1.00  0.00     0.166 HD
BRANCH  18  22
HETATM   22  N   UNL     1     -41.394 -47.610  11.095  1.00  0.00    -0.363 N 
HETATM   23  C   UNL     1     -40.395 -46.535  10.932  1.00  0.00     0.150 C 
HETATM   24  C   UNL     1     -41.119 -45.197  10.728  1.00  0.00     0.187 C 
HETATM   25  O   UNL     1     -42.020 -45.251   9.607  1.00  0.00    -0.388 OA
HETATM   26  C   UNL     1     -43.005 -46.275   9.818  1.00  0.00     0.187 C 
HETATM   27  C   UNL     1     -42.363 -47.664   9.994  1.00  0.00     0.150 C 
ENDBRANCH  18  22
ENDBRANCH   1  15
TORSDOF 6
ENDMDL
MODEL 4
REMARK VINA RESULT:      -6.4      2.037      2.764
REMARK  6 active torsions:
REMARK  status: ('A' for Active; 'I' for Inactive)
REMARK    1  A    between atoms: C_2  and  C_5 
REMARK       I    between atoms: C_5  and  N_7 
REMARK    2  A    between atoms: N_7  and  C_8 
REMARK    3  A    between atoms: C_8  and  C_9 
REMARK       I    between atoms: C_9  and  N_11 
REMARK    4  A    between atoms: N_11  and  C_12 
REMARK    5  A    between atoms: C_12  and  C_13 
REMARK    6  A    between atoms: C_16  and  N_20 
ROOT
HETATM    1  C   UNL     1     -40.315 -50.021  11.311  1.00  0.00     0.162 C 
ENDROOT
BRANCH   1   2
HETATM    2  N   UNL     1     -41.402 -50.960  11.435  1.00  0.00    -0.355 N 
HETATM    3  C   UNL     1     -41.171 -52.182  12.038  1.00  0.00     0.235 C 
HETATM    4  O   UNL     1     -40.065 -52.532  12.447  1.00  0.00    -0.272 OA
HETATM    5  H   UNL     1     -42.202 -50.896  10.808  1.00  0.00     0.162 HD
BRANCH   3   6
HETATM    6  C   UNL     1     -42.384 -53.108  12.099  1.00  0.00     0.225 C 
BRANCH   6   7
HETATM    7  N   UNL     1     -43.538 -52.447  12.677  1.00  0.00    -0.352 N 
HETATM    8  C   UNL     1     -44.735 -53.110  12.821  1.00  0.00     0.225 C 
HETATM    9  O   UNL     1     -44.844 -54.295  12.510  1.00  0.00    -0.273 OA
HETATM   10  H   UNL     1     -43.396 -51.546  13.115  1.00  0.00     0.162 HD
BRANCH   8  11
HETATM   11  C   UNL     1     -45.892 -52.282  13.413  1.00  0.00     0.030 C 
HETATM   12  C   UNL     1     -45.315 -51.108  14.223  1.00  0.00     0.024 C 
HETATM   13  C   UNL     1     -46.752 -53.143  14.352  1.00  0.00     0.024 C 
HETATM   14  C   UNL     1     -46.760 -51.722  12.278  1.00  0.00     0.024 C 
ENDBRANCH   8  11
ENDBRANCH   6   7
ENDBRANCH   3   6
ENDBRANCH   1   2
BRANCH   1  15
HETATM   15  C   UNL     1     -40.736 -48.584  11.333  1.00  0.00    -0.025 A 
HETATM   16  C   UNL     1     -41.714 -48.095  10.476  1.00  0.00     0.014 A 
HETATM   17  C   UNL     1     -41.992 -46.723  10.443  1.00  0.00     0.049 A 
HETATM   18  C   UNL     1     -41.290 -45.838  11.261  1.00  0.00     0.103 A 
HETATM   19  N   UNL     1     -40.372 -46.326  12.127  1.00  0.00    -0.352 N 
HETATM   20  C   UNL     1     -40.123 -47.658  12.159  1.00  0.00     0.098 A 
ATOM     21  HN  UNL     1     -39.870 -45.695  12.751  1.00  0.00     0.166 HD
BRANCH  18  22
HETATM   22  N   UNL     1     -41.524 -44.475  11.273  1.00  0.00    -0.363 N 
HETATM   23  C   UNL     1     -40.346 -43.607  11.079  1.00  0.00     0.150 C 
HETATM   24  C   UNL     1     -40.614 -42.238  11.722  1.00  0.00     0.187 C 
HETATM   25  O   UNL     1     -41.806 -41.632  11.193  1.00  0.00    -0.388 OA
HETATM   26  C   UNL     1     -42.939 -42.480  11.438  1.00  0.00     0.187 C 
HETATM   27  C   UNL     1     -42.770 -43.867  10.791  1.00  0.00     0.150 C 
ENDBRANCH  18  22
ENDBRANCH   1  15
TORSDOF 6
ENDMDL
MODEL 5
REMARK VINA RESULT:      -6.1      4.139      5.203
REMARK  6 active torsions:
REMARK  status: ('A' for Active; 'I' for Inactive)
REMARK    1  A    between atoms: C_2  and  C_5 
REMARK       I    between atoms: C_5  and  N_7 
REMARK    2  A    between atoms: N_7  and  C_8 
REMARK    3  A    between atoms: C_8  and  C_9 
REMARK       I    between atoms: C_9  and  N_11 
REMARK    4  A    between atoms: N_11  and  C_12 
REMARK    5  A    between atoms: C_12  and  C_13 
REMARK    6  A    between atoms: C_16  and  N_20 
ROOT
HETATM    1  C   UNL     1     -40.872 -54.334  13.201  1.00  0.00     0.162 C 
ENDROOT
BRANCH   1   2
HETATM    2  N   UNL     1     -42.280 -54.352  13.512  1.00  0.00    -0.355 N 
HETATM    3  C   UNL     1     -42.691 -54.802  14.752  1.00  0.00     0.235 C 
HETATM    4  O   UNL     1     -41.912 -55.228  15.604  1.00  0.00    -0.272 OA
HETATM    5  H   UNL     1     -42.966 -54.376  12.759  1.00  0.00     0.162 HD
BRANCH   3   6
HETATM    6  C   UNL     1     -44.202 -54.798  14.970  1.00  0.00     0.225 C 
BRANCH   6   7
HETATM    7  N   UNL     1     -44.777 -53.488  14.730  1.00  0.00    -0.352 N 
HETATM    8  C   UNL     1     -45.325 -53.170  13.509  1.00  0.00     0.225 C 
HETATM    9  O   UNL     1     -45.388 -54.002  12.606  1.00  0.00    -0.273 OA
HETATM   10  H   UNL     1     -44.908 -52.876  15.524  1.00  0.00     0.162 HD
BRANCH   8  11
HETATM   11  C   UNL     1     -45.866 -51.733  13.372  1.00  0.00     0.030 C 
HETATM   12  C   UNL     1     -46.731 -51.633  12.103  1.00  0.00     0.024 C 
HETATM   13  C   UNL     1     -44.711 -50.726  13.254  1.00  0.00     0.024 C 
HETATM   14  C   UNL     1     -46.733 -51.389  14.591  1.00  0.00     0.024 C 
ENDBRANCH   8  11
ENDBRANCH   6   7
ENDBRANCH   3   6
ENDBRANCH   1   2
BRANCH   1  15
HETATM   15  C   UNL     1     -40.168 -53.074  13.599  1.00  0.00    -0.025 A 
HETATM   16  C   UNL     1     -40.318 -51.893  12.883  1.00  0.00     0.014 A 
HETATM   17  C   UNL     1     -39.550 -50.771  13.214  1.00  0.00     0.049 A 
HETATM   18  C   UNL     1     -38.627 -50.828  14.259  1.00  0.00     0.103 A 
HETATM   19  N   UNL     1     -38.519 -51.965  14.983  1.00  0.00    -0.352 N 
HETATM   20  C   UNL     1     -39.279 -53.040  14.660  1.00  0.00     0.098 A 
ATOM     21  HN  UNL     1     -37.868 -52.014  15.767  1.00  0.00     0.166 HD
BRANCH  18  22
HETATM   22  N   UNL     1     -37.844 -49.751  14.632  1.00  0.00    -0.363 N 
HETATM   23  C   UNL     1     -36.664 -50.057  15.465  1.00  0.00     0.150 C 
HETATM   24  C   UNL     1     -36.291 -48.818  16.291  1.00  0.00     0.187 C 
HETATM   25  O   UNL     1     -36.058 -47.674  15.449  1.00  0.00    -0.388 OA
HETATM   26  C   UNL     1     -37.238 -47.377  14.687  1.00  0.00     0.187 C 
HETATM   27  C   UNL     1     -37.661 -48.559  13.796  1.00  0.00     0.150 C 
ENDBRANCH  18  22
ENDBRANCH   1  15
TORSDOF 6
ENDMDL
MODEL 6
REMARK VINA RESULT:      -6.1      3.123      8.747
REMARK  6 active torsions:
REMARK  status: ('A' for Active; 'I' for Inactive)
REMARK    1  A    between atoms: C_2  and  C_5 
REMARK       I    between atoms: C_5  and  N_7 
REMARK    2  A    between atoms: N_7  and  C_8 
REMARK    3  A    between atoms: C_8  and  C_9 
REMARK       I    between atoms: C_9  and  N_11 
REMARK    4  A    between atoms: N_11  and  C_12 
REMARK    5  A    between atoms: C_12  and  C_13 
REMARK    6  A    between atoms: C_16  and  N_20 
ROOT
HETATM    1  C   UNL     1     -42.954 -52.818  12.470  1.00  0.00     0.162 C 
ENDROOT
BRANCH   1   2
HETATM    2  N   UNL     1     -42.296 -51.642  11.957  1.00  0.00    -0.355 N 
HETATM    3  C   UNL     1     -42.642 -50.402  12.461  1.00  0.00     0.235 C 
HETATM    4  O   UNL     1     -43.519 -50.242  13.309  1.00  0.00    -0.272 OA
HETATM    5  H   UNL     1     -41.863 -51.664  11.035  1.00  0.00     0.162 HD
BRANCH   3   6
HETATM    6  C   UNL     1     -41.900 -49.224  11.834  1.00  0.00     0.225 C 
BRANCH   6   7
HETATM    7  N   UNL     1     -42.587 -48.717  10.663  1.00  0.00    -0.352 N 
HETATM    8  C   UNL     1     -43.233 -47.502  10.692  1.00  0.00     0.225 C 
HETATM    9  O   UNL     1     -43.201 -46.792  11.696  1.00  0.00    -0.273 OA
HETATM   10  H   UNL     1     -42.445 -49.199   9.785  1.00  0.00     0.162 HD
BRANCH   8  11
HETATM   11  C   UNL     1     -43.958 -47.098   9.393  1.00  0.00     0.030 C 
HETATM   12  C   UNL     1     -45.435 -47.521   9.482  1.00  0.00     0.024 C 
HETATM   13  C   UNL     1     -43.325 -47.795   8.178  1.00  0.00     0.024 C 
HETATM   14  C   UNL     1     -43.888 -45.575   9.215  1.00  0.00     0.024 C 
ENDBRANCH   8  11
ENDBRANCH   6   7
ENDBRANCH   3   6
ENDBRANCH   1   2
BRANCH   1  15
HETATM   15  C   UNL     1     -42.127 -53.619  13.427  1.00  0.00    -0.025 A 
HETATM   16  C   UNL     1     -42.676 -54.192  14.568  1.00  0.00     0.014 A 
HETATM   17  C   UNL     1     -41.847 -54.829  15.499  1.00  0.00     0.049 A 
HETATM   18  C   UNL     1     -40.469 -54.890  15.296  1.00  0.00     0.103 A 
HETATM   19  N   UNL     1     -39.945 -54.372  14.161  1.00  0.00    -0.352 N 
HETATM   20  C   UNL     1     -40.761 -53.771  13.261  1.00  0.00     0.098 A 
ATOM     21  HN  UNL     1     -38.943 -54.432  13.984  1.00  0.00     0.166 HD
BRANCH  18  22
HETATM   22  N   UNL     1     -39.603 -55.508  16.179  1.00  0.00    -0.363 N 
HETATM   23  C   UNL     1     -40.124 -56.694  16.886  1.00  0.00     0.150 C 
HETATM   24  C   UNL     1     -39.364 -56.870  18.209  1.00  0.00     0.187 C 
HETATM   25  O   UNL     1     -37.945 -56.969  17.992  1.00  0.00    -0.388 OA
HETATM   26  C   UNL     1     -37.463 -55.782  17.344  1.00  0.00     0.187 C 
HETATM   27  C   UNL     1     -38.148 -55.550  15.984  1.00  0.00     0.150 C 
ENDBRANCH  18  22
ENDBRANCH   1  15
TORSDOF 6
ENDMDL
MODEL 7
REMARK VINA RESULT:      -6.1      1.876      2.699
REMARK  6 active torsions:
REMARK  status: ('A' for Active; 'I' for Inactive)
REMARK    1  A    between atoms: C_2  and  C_5 
REMARK       I    between atoms: C_5  and  N_7 
REMARK    2  A    between atoms: N_7  and  C_8 
REMARK    3  A    between atoms: C_8  and  C_9 
REMARK       I    between atoms: C_9  and  N_11 
REMARK    4  A    between atoms: N_11  and  C_12 
REMARK    5  A    between atoms: C_12  and  C_13 
REMARK    6  A    between atoms: C_16  and  N_20 
ROOT
HETATM    1  C   UNL     1     -42.393 -53.122  13.672  1.00  0.00     0.162 C 
ENDROOT
BRANCH   1   2
HETATM    2  N   UNL     1     -43.667 -53.430  14.270  1.00  0.00    -0.355 N 
HETATM    3  C   UNL     1     -44.640 -54.045  13.505  1.00  0.00     0.235 C 
HETATM    4  O   UNL     1     -44.488 -54.314  12.314  1.00  0.00    -0.272 OA
HETATM    5  H   UNL     1     -43.980 -52.916  15.092  1.00  0.00     0.162 HD
BRANCH   3   6
HETATM    6  C   UNL     1     -45.958 -54.307  14.230  1.00  0.00     0.225 C 
BRANCH   6   7
HETATM    7  N   UNL     1     -46.062 -53.536  15.454  1.00  0.00    -0.352 N 
HETATM    8  C   UNL     1     -46.591 -52.266  15.446  1.00  0.00     0.225 C 
HETATM    9  O   UNL     1     -47.036 -51.771  14.412  1.00  0.00    -0.273 OA
HETATM   10  H   UNL     1     -45.886 -54.012  16.329  1.00  0.00     0.162 HD
BRANCH   8  11
HETATM   11  C   UNL     1     -46.608 -51.540  16.806  1.00  0.00     0.030 C 
HETATM   12  C   UNL     1     -46.319 -52.553  17.927  1.00  0.00     0.024 C 
HETATM   13  C   UNL     1     -47.984 -50.907  17.067  1.00  0.00     0.024 C 
HETATM   14  C   UNL     1     -45.523 -50.455  16.826  1.00  0.00     0.024 C 
ENDBRANCH   8  11
ENDBRANCH   6   7
ENDBRANCH   3   6
ENDBRANCH   1   2
BRANCH   1  15
HETATM   15  C   UNL     1     -42.295 -51.739  13.105  1.00  0.00    -0.025 A 
HETATM   16  C   UNL     1     -43.072 -50.693  13.589  1.00  0.00     0.014 A 
HETATM   17  C   UNL     1     -43.041 -49.447  12.953  1.00  0.00     0.049 A 
HETATM   18  C   UNL     1     -42.238 -49.244  11.830  1.00  0.00     0.103 A 
HETATM   19  N   UNL     1     -41.449 -50.251  11.392  1.00  0.00    -0.352 N 
HETATM   20  C   UNL     1     -41.478 -51.449  12.026  1.00  0.00     0.098 A 
ATOM     21  HN  UNL     1     -40.836 -50.111  10.589  1.00  0.00     0.166 HD
BRANCH  18  22
HETATM   22  N   UNL     1     -42.165 -48.034  11.164  1.00  0.00    -0.363 N 
HETATM   23  C   UNL     1     -40.915 -47.268  11.332  1.00  0.00     0.150 C 
HETATM   24  C   UNL     1     -41.199 -45.777  11.104  1.00  0.00     0.187 C 
HETATM   25  O   UNL     1     -41.789 -45.544   9.812  1.00  0.00    -0.388 OA
HETATM   26  C   UNL     1     -43.025 -46.267   9.699  1.00  0.00     0.187 C 
HETATM   27  C   UNL     1     -42.823 -47.784   9.876  1.00  0.00     0.150 C 
ENDBRANCH  18  22
ENDBRANCH   1  15
TORSDOF 6
ENDMDL
MODEL 8
REMARK VINA RESULT:      -5.9      2.147      2.676
REMARK  6 active torsions:
REMARK  status: ('A' for Active; 'I' for Inactive)
REMARK    1  A    between atoms: C_2  and  C_5 
REMARK       I    between atoms: C_5  and  N_7 
REMARK    2  A    between atoms: N_7  and  C_8 
REMARK    3  A    between atoms: C_8  and  C_9 
REMARK       I    between atoms: C_9  and  N_11 
REMARK    4  A    between atoms: N_11  and  C_12 
REMARK    5  A    between atoms: C_12  and  C_13 
REMARK    6  A    between atoms: C_16  and  N_20 
ROOT
HETATM    1  C   UNL     1     -38.617 -51.587  13.685  1.00  0.00     0.162 C 
ENDROOT
BRANCH   1   2
HETATM    2  N   UNL     1     -39.671 -52.306  14.356  1.00  0.00    -0.355 N 
HETATM    3  C   UNL     1     -39.679 -53.688  14.312  1.00  0.00     0.235 C 
HETATM    4  O   UNL     1     -38.843 -54.345  13.693  1.00  0.00    -0.272 OA
HETATM    5  H   UNL     1     -40.558 -51.844  14.549  1.00  0.00     0.162 HD
BRANCH   3   6
HETATM    6  C   UNL     1     -40.850 -54.348  15.037  1.00  0.00     0.225 C 
BRANCH   6   7
HETATM    7  N   UNL     1     -42.126 -53.925  14.494  1.00  0.00    -0.352 N 
HETATM    8  C   UNL     1     -43.242 -54.721  14.609  1.00  0.00     0.225 C 
HETATM    9  O   UNL     1     -43.199 -55.788  15.219  1.00  0.00    -0.273 OA
HETATM   10  H   UNL     1     -42.210 -52.969  14.173  1.00  0.00     0.162 HD
BRANCH   8  11
HETATM   11  C   UNL     1     -44.526 -54.173  13.955  1.00  0.00     0.030 C 
HETATM   12  C   UNL     1     -44.190 -53.627  12.556  1.00  0.00     0.024 C 
HETATM   13  C   UNL     1     -45.118 -53.030  14.795  1.00  0.00     0.024 C 
HETATM   14  C   UNL     1     -45.555 -55.302  13.813  1.00  0.00     0.024 C 
ENDBRANCH   8  11
ENDBRANCH   6   7
ENDBRANCH   3   6
ENDBRANCH   1   2
BRANCH   1  15
HETATM   15  C   UNL     1     -39.016 -50.233  13.185  1.00  0.00    -0.025 A 
HETATM   16  C   UNL     1     -39.540 -49.265  14.031  1.00  0.00     0.014 A 
HETATM   17  C   UNL     1     -40.014 -48.057  13.505  1.00  0.00     0.049 A 
HETATM   18  C   UNL     1     -39.969 -47.817  12.132  1.00  0.00     0.103 A 
HETATM   19  N   UNL     1     -39.414 -48.744  11.317  1.00  0.00    -0.352 N 
HETATM   20  C   UNL     1     -38.947 -49.903  11.842  1.00  0.00     0.098 A 
ATOM     21  HN  UNL     1     -39.349 -48.572  10.314  1.00  0.00     0.166 HD
BRANCH  18  22
HETATM   22  N   UNL     1     -40.419 -46.643  11.556  1.00  0.00    -0.363 N 
HETATM   23  C   UNL     1     -41.882 -46.454  11.511  1.00  0.00     0.150 C 
HETATM   24  C   UNL     1     -42.235 -45.508  10.354  1.00  0.00     0.187 C 
HETATM   25  O   UNL     1     -41.547 -44.251  10.472  1.00  0.00    -0.388 OA
HETATM   26  C   UNL     1     -40.127 -44.466  10.467  1.00  0.00     0.187 C 
HETATM   27  C   UNL     1     -39.679 -45.377  11.626  1.00  0.00     0.150 C 
ENDBRANCH  18  22
ENDBRANCH   1  15
TORSDOF 6
ENDMDL
MODEL 9
REMARK VINA RESULT:      -5.9      1.894      2.514
REMARK  6 active torsions:
REMARK  status: ('A' for Active; 'I' for Inactive)
REMARK    1  A    between atoms: C_2  and  C_5 
REMARK       I    between atoms: C_5  and  N_7 
REMARK    2  A    between atoms: N_7  and  C_8 
REMARK    3  A    between atoms: C_8  and  C_9 
REMARK       I    between atoms: C_9  and  N_11 
REMARK    4  A    between atoms: N_11  and  C_12 
REMARK    5  A    between atoms: C_12  and  C_13 
REMARK    6  A    between atoms: C_16  and  N_20 
ROOT
HETATM    1  C   UNL     1     -38.727 -51.633  14.398  1.00  0.00     0.162 C 
ENDROOT
BRANCH   1   2
HETATM    2  N   UNL     1     -39.729 -52.500  14.963  1.00  0.00    -0.355 N 
HETATM    3  C   UNL     1     -39.846 -53.793  14.489  1.00  0.00     0.235 C 
HETATM    4  O   UNL     1     -39.156 -54.239  13.574  1.00  0.00    -0.272 OA
HETATM    5  H   UNL     1     -40.544 -52.101  15.427  1.00  0.00     0.162 HD
BRANCH   3   6
HETATM    6  C   UNL     1     -40.953 -54.620  15.142  1.00  0.00     0.225 C 
BRANCH   6   7
HETATM    7  N   UNL     1     -42.191 -54.550  14.392  1.00  0.00    -0.352 N 
HETATM    8  C   UNL     1     -43.140 -53.597  14.681  1.00  0.00     0.225 C 
HETATM    9  O   UNL     1     -42.942 -52.748  15.549  1.00  0.00    -0.273 OA
HETATM   10  H   UNL     1     -42.269 -55.111  13.554  1.00  0.00     0.162 HD
BRANCH   8  11
HETATM   11  C   UNL     1     -44.428 -53.656  13.836  1.00  0.00     0.030 C 
HETATM   12  C   UNL     1     -45.415 -52.588  14.338  1.00  0.00     0.024 C 
HETATM   13  C   UNL     1     -45.098 -55.034  13.961  1.00  0.00     0.024 C 
HETATM   14  C   UNL     1     -44.094 -53.371  12.365  1.00  0.00     0.024 C 
ENDBRANCH   8  11
ENDBRANCH   6   7
ENDBRANCH   3   6
ENDBRANCH   1   2
BRANCH   1  15
HETATM   15  C   UNL     1     -39.268 -50.582  13.478  1.00  0.00    -0.025 A 
HETATM   16  C   UNL     1     -38.508 -49.485  13.092  1.00  0.00     0.014 A 
HETATM   17  C   UNL     1     -39.090 -48.464  12.331  1.00  0.00     0.049 A 
HETATM   18  C   UNL     1     -40.432 -48.536  11.958  1.00  0.00     0.103 A 
HETATM   19  N   UNL     1     -41.154 -49.629  12.296  1.00  0.00    -0.352 N 
HETATM   20  C   UNL     1     -40.574 -50.616  13.021  1.00  0.00     0.098 A 
ATOM     21  HN  UNL     1     -42.129 -49.709  12.007  1.00  0.00     0.166 HD
BRANCH  18  22
HETATM   22  N   UNL     1     -41.058 -47.560  11.204  1.00  0.00    -0.363 N 
HETATM   23  C   UNL     1     -40.255 -46.365  10.881  1.00  0.00     0.150 C 
HETATM   24  C   UNL     1     -41.193 -45.175  10.634  1.00  0.00     0.187 C 
HETATM   25  O   UNL     1     -42.147 -45.462   9.596  1.00  0.00    -0.388 OA
HETATM   26  C   UNL     1     -42.942 -46.601   9.962  1.00  0.00     0.187 C 
HETATM   27  C   UNL     1     -42.079 -47.856  10.192  1.00  0.00     0.150 C 
ENDBRANCH  18  22
ENDBRANCH   1  15
TORSDOF 6
ENDMDL
