MODEL 1
REMARK VINA RESULT:      -5.0      0.000      0.000
REMARK  4 active torsions:
REMARK  status: ('A' for Active; 'I' for Inactive)
REMARK    1  A    between atoms: N_1  and  C_2 
REMARK    2  A    between atoms: C_2  and  C_3 
REMARK    3  A    between atoms: C_8  and  O_9 
REMARK    4  A    between atoms: O_9  and  C_10 
ROOT
HETATM    1  C   UNL     1     -40.706 -53.626  13.462  1.00  0.00    -0.025 A 
HETATM    2  C   UNL     1     -40.343 -52.497  12.719  1.00  0.00     0.026 A 
HETATM    3  C   UNL     1     -41.283 -51.920  11.880  1.00  0.00     0.090 A 
HETATM    4  N   UNL     1     -42.548 -52.374  11.743  1.00  0.00    -0.347 N 
ATOM      5  HN  UNL     1     -43.216 -51.925  11.116  1.00  0.00     0.167 HD
HETATM    6  C   UNL     1     -42.879 -53.453  12.478  1.00  0.00     0.142 A 
HETATM    7  C   UNL     1     -42.003 -54.121  13.317  1.00  0.00     0.065 A 
ENDROOT
BRANCH   6   8
HETATM    8  O   UNL     1     -44.163 -53.951  12.406  1.00  0.00    -0.328 OA
BRANCH   8   9
HETATM    9  C   UNL     1     -44.886 -53.816  13.625  1.00  0.00     0.156 C 
HETATM   10  C   UNL     1     -45.590 -55.122  13.930  1.00  0.00     0.061 C 
HETATM   11  C   UNL     1     -46.809 -54.703  14.723  1.00  0.00     0.170 C 
HETATM   12  O   UNL     1     -47.012 -53.301  14.512  1.00  0.00    -0.389 OA
HETATM   13  C   UNL     1     -46.060 -52.856  13.536  1.00  0.00     0.200 C 
ENDBRANCH   8   9
ENDBRANCH   6   8
BRANCH   1  14
HETATM   14  C   UNL     1     -39.726 -54.267  14.406  1.00  0.00     0.305 C 
BRANCH  14  15
HETATM   15  N   UNL     1     -38.735 -55.049  13.677  1.00  0.00     0.082 N 
HETATM   16  H   UNL     1     -38.028 -55.385  14.330  1.00  0.00     0.313 HD
HETATM   17  H   UNL     1     -38.250 -54.440  13.021  1.00  0.00     0.313 HD
ENDBRANCH  14  15
ENDBRANCH   1  14
TORSDOF 4
ENDMDL
MODEL 2
REMARK VINA RESULT:      -4.7      1.807      3.123
REMARK  4 active torsions:
REMARK  status: ('A' for Active; 'I' for Inactive)
REMARK    1  A    between atoms: N_1  and  C_2 
REMARK    2  A    between atoms: C_2  and  C_3 
REMARK    3  A    between atoms: C_8  and  O_9 
REMARK    4  A    between atoms: O_9  and  C_10 
ROOT
HETATM    1  C   UNL     1     -40.107 -51.055  12.496  1.00  0.00    -0.025 A 
HETATM    2  C   UNL     1     -39.013 -51.307  13.331  1.00  0.00     0.026 A 
HETATM    3  C   UNL     1     -38.960 -52.509  14.018  1.00  0.00     0.090 A 
HETATM    4  N   UNL     1     -39.901 -53.473  13.921  1.00  0.00    -0.347 N 
ATOM      5  HN  UNL     1     -39.831 -54.348  14.440  1.00  0.00     0.167 HD
HETATM    6  C   UNL     1     -40.938 -53.216  13.100  1.00  0.00     0.142 A 
HETATM    7  C   UNL     1     -41.099 -52.032  12.398  1.00  0.00     0.065 A 
ENDROOT
BRANCH   6   8
HETATM    8  O   UNL     1     -41.920 -54.170  12.933  1.00  0.00    -0.328 OA
BRANCH   8   9
HETATM    9  C   UNL     1     -43.184 -53.769  13.449  1.00  0.00     0.156 C 
HETATM   10  C   UNL     1     -43.727 -54.867  14.339  1.00  0.00     0.061 C 
HETATM   11  C   UNL     1     -45.229 -54.718  14.231  1.00  0.00     0.170 C 
HETATM   12  O   UNL     1     -45.510 -53.920  13.074  1.00  0.00    -0.389 OA
HETATM   13  C   UNL     1     -44.273 -53.674  12.393  1.00  0.00     0.200 C 
ENDBRANCH   8   9
ENDBRANCH   6   8
BRANCH   1  14
HETATM   14  C   UNL     1     -40.191 -49.776  11.709  1.00  0.00     0.305 C 
BRANCH  14  15
HETATM   15  N   UNL     1     -40.430 -50.047  10.298  1.00  0.00     0.082 N 
HETATM   16  H   UNL     1     -40.633 -49.171   9.818  1.00  0.00     0.313 HD
HETATM   17  H   UNL     1     -41.267 -50.620  10.207  1.00  0.00     0.313 HD
ENDBRANCH  14  15
ENDBRANCH   1  14
TORSDOF 4
ENDMDL
MODEL 3
REMARK VINA RESULT:      -4.6      2.735      5.652
REMARK  4 active torsions:
REMARK  status: ('A' for Active; 'I' for Inactive)
REMARK    1  A    between atoms: N_1  and  C_2 
REMARK    2  A    between atoms: C_2  and  C_3 
REMARK    3  A    between atoms: C_8  and  O_9 
REMARK    4  A    between atoms: O_9  and  C_10 
ROOT
HETATM    1  C   UNL     1     -46.008 -52.005  14.804  1.00  0.00    -0.025 A 
HETATM    2  C   UNL     1     -46.877 -51.507  13.827  1.00  0.00     0.026 A 
HETATM    3  C   UNL     1     -46.591 -51.749  12.493  1.00  0.00     0.090 A 
HETATM    4  N   UNL     1     -45.522 -52.458  12.070  1.00  0.00    -0.347 N 
ATOM      5  HN  UNL     1     -45.341 -52.619  11.079  1.00  0.00     0.167 HD
HETATM    6  C   UNL     1     -44.707 -52.940  13.028  1.00  0.00     0.142 A 
HETATM    7  C   UNL     1     -44.887 -52.722  14.384  1.00  0.00     0.065 A 
ENDROOT
BRANCH   6   8
HETATM    8  O   UNL     1     -43.612 -53.696  12.665  1.00  0.00    -0.328 OA
BRANCH   8   9
HETATM    9  C   UNL     1     -42.382 -53.172  13.155  1.00  0.00     0.156 C 
HETATM   10  C   UNL     1     -41.964 -52.001  12.291  1.00  0.00     0.061 C 
HETATM   11  C   UNL     1     -40.453 -51.999  12.384  1.00  0.00     0.170 C 
HETATM   12  O   UNL     1     -40.041 -53.279  12.878  1.00  0.00    -0.389 OA
HETATM   13  C   UNL     1     -41.203 -54.113  12.977  1.00  0.00     0.200 C 
ENDBRANCH   8   9
ENDBRANCH   6   8
BRANCH   1  14
HETATM   14  C   UNL     1     -46.295 -51.790  16.264  1.00  0.00     0.305 C 
BRANCH  14  15
HETATM   15  N   UNL     1     -47.627 -51.230  16.456  1.00  0.00     0.082 N 
HETATM   16  H   UNL     1     -47.628 -50.646  17.292  1.00  0.00     0.313 HD
HETATM   17  H   UNL     1     -48.283 -51.988  16.640  1.00  0.00     0.313 HD
ENDBRANCH  14  15
ENDBRANCH   1  14
TORSDOF 4
ENDMDL
MODEL 4
REMARK VINA RESULT:      -4.6      7.825     10.214
REMARK  4 active torsions:
REMARK  status: ('A' for Active; 'I' for Inactive)
REMARK    1  A    between atoms: N_1  and  C_2 
REMARK    2  A    between atoms: C_2  and  C_3 
REMARK    3  A    between atoms: C_8  and  O_9 
REMARK    4  A    between atoms: O_9  and  C_10 
ROOT
HETATM    1  C   UNL     1     -43.276 -47.009   9.941  1.00  0.00    -0.025 A 
HETATM    2  C   UNL     1     -42.555 -48.153  10.300  1.00  0.00     0.026 A 
HETATM    3  C   UNL     1     -41.220 -48.021  10.644  1.00  0.00     0.090 A 
HETATM    4  N   UNL     1     -40.563 -46.841  10.671  1.00  0.00    -0.347 N 
ATOM      5  HN  UNL     1     -39.579 -46.778  10.930  1.00  0.00     0.167 HD
HETATM    6  C   UNL     1     -41.280 -45.750  10.335  1.00  0.00     0.142 A 
HETATM    7  C   UNL     1     -42.608 -45.783   9.943  1.00  0.00     0.065 A 
ENDROOT
BRANCH   6   8
HETATM    8  O   UNL     1     -40.677 -44.510  10.369  1.00  0.00    -0.328 OA
BRANCH   8   9
HETATM    9  C   UNL     1     -40.672 -43.924  11.666  1.00  0.00     0.156 C 
HETATM   10  C   UNL     1     -40.750 -42.418  11.529  1.00  0.00     0.061 C 
HETATM   11  C   UNL     1     -40.038 -41.901  12.761  1.00  0.00     0.170 C 
HETATM   12  O   UNL     1     -39.261 -42.976  13.303  1.00  0.00    -0.389 OA
HETATM   13  C   UNL     1     -39.355 -44.090  12.406  1.00  0.00     0.200 C 
ENDBRANCH   8   9
ENDBRANCH   6   8
BRANCH   1  14
HETATM   14  C   UNL     1     -44.734 -47.103   9.587  1.00  0.00     0.305 C 
BRANCH  14  15
HETATM   15  N   UNL     1     -45.177 -45.907   8.882  1.00  0.00     0.082 N 
HETATM   16  H   UNL     1     -44.959 -45.085   9.446  1.00  0.00     0.313 HD
HETATM   17  H   UNL     1     -46.191 -45.929   8.794  1.00  0.00     0.313 HD
ENDBRANCH  14  15
ENDBRANCH   1  14
TORSDOF 4
ENDMDL
MODEL 5
REMARK VINA RESULT:      -4.5      1.649      2.627
REMARK  4 active torsions:
REMARK  status: ('A' for Active; 'I' for Inactive)
REMARK    1  A    between atoms: N_1  and  C_2 
REMARK    2  A    between atoms: C_2  and  C_3 
REMARK    3  A    between atoms: C_8  and  O_9 
REMARK    4  A    between atoms: O_9  and  C_10 
ROOT
HETATM    1  C   UNL     1     -40.984 -51.723  12.290  1.00  0.00    -0.025 A 
HETATM    2  C   UNL     1     -40.280 -52.884  12.628  1.00  0.00     0.026 A 
HETATM    3  C   UNL     1     -40.993 -54.032  12.936  1.00  0.00     0.090 A 
HETATM    4  N   UNL     1     -42.341 -54.107  12.915  1.00  0.00    -0.347 N 
ATOM      5  HN  UNL     1     -42.835 -54.969  13.146  1.00  0.00     0.167 HD
HETATM    6  C   UNL     1     -42.998 -52.982  12.573  1.00  0.00     0.142 A 
HETATM    7  C   UNL     1     -42.379 -51.778  12.283  1.00  0.00     0.065 A 
ENDROOT
BRANCH   6   8
HETATM    8  O   UNL     1     -44.376 -52.999  12.505  1.00  0.00    -0.328 OA
BRANCH   8   9
HETATM    9  C   UNL     1     -45.000 -52.413  13.643  1.00  0.00     0.156 C 
HETATM   10  C   UNL     1     -45.852 -53.457  14.333  1.00  0.00     0.061 C 
HETATM   11  C   UNL     1     -46.955 -52.655  14.988  1.00  0.00     0.170 C 
HETATM   12  O   UNL     1     -46.981 -51.360  14.376  1.00  0.00    -0.389 OA
HETATM   13  C   UNL     1     -46.039 -51.361  13.295  1.00  0.00     0.200 C 
ENDBRANCH   8   9
ENDBRANCH   6   8
BRANCH   1  14
HETATM   14  C   UNL     1     -40.250 -50.463  11.922  1.00  0.00     0.305 C 
BRANCH  14  15
HETATM   15  N   UNL     1     -40.455 -50.133  10.517  1.00  0.00     0.082 N 
HETATM   16  H   UNL     1     -40.077 -49.204  10.333  1.00  0.00     0.313 HD
HETATM   17  H   UNL     1     -41.455 -50.074  10.332  1.00  0.00     0.313 HD
ENDBRANCH  14  15
ENDBRANCH   1  14
TORSDOF 4
ENDMDL
MODEL 6
REMARK VINA RESULT:      -4.3      2.882      5.392
REMARK  4 active torsions:
REMARK  status: ('A' for Active; 'I' for Inactive)
REMARK    1  A    between atoms: N_1  and  C_2 
REMARK    2  A    between atoms: C_2  and  C_3 
REMARK    3  A    between atoms: C_8  and  O_9 
REMARK    4  A    between atoms: O_9  and  C_10 
ROOT
HETATM    1  C   UNL     1     -42.764 -54.404  14.208  1.00  0.00    -0.025 A 
HETATM    2  C   UNL     1     -43.955 -54.125  13.528  1.00  0.00     0.026 A 
HETATM    3  C   UNL     1     -43.910 -53.303  12.413  1.00  0.00     0.090 A 
HETATM    4  N   UNL     1     -42.774 -52.759  11.925  1.00  0.00    -0.347 N 
ATOM      5  HN  UNL     1     -42.776 -52.159  11.100  1.00  0.00     0.167 HD
HETATM    6  C   UNL     1     -41.638 -53.053  12.586  1.00  0.00     0.142 A 
HETATM    7  C   UNL     1     -41.583 -53.834  13.729  1.00  0.00     0.065 A 
ENDROOT
BRANCH   6   8
HETATM    8  O   UNL     1     -40.439 -52.553  12.124  1.00  0.00    -0.328 OA
BRANCH   8   9
HETATM    9  C   UNL     1     -40.104 -51.289  12.689  1.00  0.00     0.156 C 
HETATM   10  C   UNL     1     -40.168 -50.232  11.606  1.00  0.00     0.061 C 
HETATM   11  C   UNL     1     -39.165 -49.189  12.054  1.00  0.00     0.170 C 
HETATM   12  O   UNL     1     -38.313 -49.792  13.036  1.00  0.00    -0.389 OA
HETATM   13  C   UNL     1     -38.654 -51.181  13.128  1.00  0.00     0.200 C 
ENDBRANCH   8   9
ENDBRANCH   6   8
BRANCH   1  14
HETATM   14  C   UNL     1     -42.763 -55.314  15.406  1.00  0.00     0.305 C 
BRANCH  14  15
HETATM   15  N   UNL     1     -41.510 -55.202  16.142  1.00  0.00     0.082 N 
HETATM   16  H   UNL     1     -41.672 -55.452  17.118  1.00  0.00     0.313 HD
HETATM   17  H   UNL     1     -41.212 -54.228  16.145  1.00  0.00     0.313 HD
ENDBRANCH  14  15
ENDBRANCH   1  14
TORSDOF 4
ENDMDL
MODEL 7
REMARK VINA RESULT:      -4.3      6.178      8.239
REMARK  4 active torsions:
REMARK  status: ('A' for Active; 'I' for Inactive)
REMARK    1  A    between atoms: N_1  and  C_2 
REMARK    2  A    between atoms: C_2  and  C_3 
REMARK    3  A    between atoms: C_8  and  O_9 
REMARK    4  A    between atoms: O_9  and  C_10 
ROOT
HETATM    1  C   UNL     1     -39.670 -45.401  13.004  1.00  0.00    -0.025 A 
HETATM    2  C   UNL     1     -39.717 -44.603  11.855  1.00  0.00     0.026 A 
HETATM    3  C   UNL     1     -39.836 -45.218  10.619  1.00  0.00     0.090 A 
HETATM    4  N   UNL     1     -39.926 -46.555  10.450  1.00  0.00    -0.347 N 
ATOM      5  HN  UNL     1     -40.014 -46.976   9.525  1.00  0.00     0.167 HD
HETATM    6  C   UNL     1     -39.893 -47.303  11.570  1.00  0.00     0.142 A 
HETATM    7  C   UNL     1     -39.741 -46.786  12.846  1.00  0.00     0.065 A 
ENDROOT
BRANCH   6   8
HETATM    8  O   UNL     1     -40.009 -48.673  11.470  1.00  0.00    -0.328 OA
BRANCH   8   9
HETATM    9  C   UNL     1     -39.076 -49.376  12.284  1.00  0.00     0.156 C 
HETATM   10  C   UNL     1     -37.816 -49.633  11.484  1.00  0.00     0.061 C 
HETATM   11  C   UNL     1     -37.254 -50.904  12.084  1.00  0.00     0.170 C 
HETATM   12  O   UNL     1     -38.300 -51.536  12.833  1.00  0.00    -0.389 OA
HETATM   13  C   UNL     1     -39.508 -50.791  12.627  1.00  0.00     0.200 C 
ENDBRANCH   8   9
ENDBRANCH   6   8
BRANCH   1  14
HETATM   14  C   UNL     1     -39.570 -44.774  14.367  1.00  0.00     0.305 C 
BRANCH  14  15
HETATM   15  N   UNL     1     -39.068 -45.732  15.345  1.00  0.00     0.082 N 
HETATM   16  H   UNL     1     -39.592 -46.603  15.260  1.00  0.00     0.313 HD
HETATM   17  H   UNL     1     -39.255 -45.379  16.282  1.00  0.00     0.313 HD
ENDBRANCH  14  15
ENDBRANCH   1  14
TORSDOF 4
ENDMDL
MODEL 8
REMARK VINA RESULT:      -4.3      3.023      5.883
REMARK  4 active torsions:
REMARK  status: ('A' for Active; 'I' for Inactive)
REMARK    1  A    between atoms: N_1  and  C_2 
REMARK    2  A    between atoms: C_2  and  C_3 
REMARK    3  A    between atoms: C_8  and  O_9 
REMARK    4  A    between atoms: O_9  and  C_10 
ROOT
HETATM    1  C   UNL     1     -43.484 -54.237  13.732  1.00  0.00    -0.025 A 
HETATM    2  C   UNL     1     -43.236 -54.871  14.954  1.00  0.00     0.026 A 
HETATM    3  C   UNL     1     -41.933 -54.931  15.423  1.00  0.00     0.090 A 
HETATM    4  N   UNL     1     -40.875 -54.397  14.774  1.00  0.00    -0.347 N 
ATOM      5  HN  UNL     1     -39.928 -54.458  15.148  1.00  0.00     0.167 HD
HETATM    6  C   UNL     1     -41.139 -53.780  13.606  1.00  0.00     0.142 A 
HETATM    7  C   UNL     1     -42.400 -53.697  13.038  1.00  0.00     0.065 A 
ENDROOT
BRANCH   6   8
HETATM    8  O   UNL     1     -40.108 -53.189  12.907  1.00  0.00    -0.328 OA
BRANCH   8   9
HETATM    9  C   UNL     1     -39.833 -51.858  13.332  1.00  0.00     0.156 C 
HETATM   10  C   UNL     1     -40.056 -50.912  12.170  1.00  0.00     0.061 C 
HETATM   11  C   UNL     1     -39.108 -49.764  12.446  1.00  0.00     0.170 C 
HETATM   12  O   UNL     1     -38.143 -50.212  13.407  1.00  0.00    -0.389 OA
HETATM   13  C   UNL     1     -38.368 -51.608  13.645  1.00  0.00     0.200 C 
ENDBRANCH   8   9
ENDBRANCH   6   8
BRANCH   1  14
HETATM   14  C   UNL     1     -44.886 -54.124  13.200  1.00  0.00     0.305 C 
BRANCH  14  15
HETATM   15  N   UNL     1     -45.737 -55.172  13.748  1.00  0.00     0.082 N 
HETATM   16  H   UNL     1     -46.214 -54.818  14.576  1.00  0.00     0.313 HD
HETATM   17  H   UNL     1     -45.152 -55.943  14.065  1.00  0.00     0.313 HD
ENDBRANCH  14  15
ENDBRANCH   1  14
TORSDOF 4
ENDMDL
MODEL 9
REMARK VINA RESULT:      -4.3      7.010      8.062
REMARK  4 active torsions:
REMARK  status: ('A' for Active; 'I' for Inactive)
REMARK    1  A    between atoms: N_1  and  C_2 
REMARK    2  A    between atoms: C_2  and  C_3 
REMARK    3  A    between atoms: C_8  and  O_9 
REMARK    4  A    between atoms: O_9  and  C_10 
ROOT
HETATM    1  C   UNL     1     -37.942 -49.726  12.627  1.00  0.00    -0.025 A 
HETATM    2  C   UNL     1     -37.655 -49.865  13.989  1.00  0.00     0.026 A 
HETATM    3  C   UNL     1     -38.307 -49.047  14.897  1.00  0.00     0.090 A 
HETATM    4  N   UNL     1     -39.226 -48.120  14.548  1.00  0.00    -0.347 N 
ATOM      5  HN  UNL     1     -39.689 -47.534  15.242  1.00  0.00     0.167 HD
HETATM    6  C   UNL     1     -39.498 -48.013  13.233  1.00  0.00     0.142 A 
HETATM    7  C   UNL     1     -38.875 -48.759  12.246  1.00  0.00     0.065 A 
ENDROOT
BRANCH   6   8
HETATM    8  O   UNL     1     -40.447 -47.106  12.812  1.00  0.00    -0.328 OA
BRANCH   8   9
HETATM    9  C   UNL     1     -40.067 -46.403  11.634  1.00  0.00     0.156 C 
HETATM   10  C   UNL     1     -39.716 -44.976  12.001  1.00  0.00     0.061 C 
HETATM   11  C   UNL     1     -40.040 -44.186  10.751  1.00  0.00     0.170 C 
HETATM   12  O   UNL     1     -40.889 -44.995   9.928  1.00  0.00    -0.389 OA
HETATM   13  C   UNL     1     -41.209 -46.188  10.655  1.00  0.00     0.200 C 
ENDBRANCH   8   9
ENDBRANCH   6   8
BRANCH   1  14
HETATM   14  C   UNL     1     -37.278 -50.613  11.610  1.00  0.00     0.305 C 
BRANCH  14  15
HETATM   15  N   UNL     1     -37.342 -50.019  10.280  1.00  0.00     0.082 N 
HETATM   16  H   UNL     1     -37.016 -50.699   9.594  1.00  0.00     0.313 HD
HETATM   17  H   UNL     1     -36.692 -49.236  10.235  1.00  0.00     0.313 HD
ENDBRANCH  14  15
ENDBRANCH   1  14
TORSDOF 4
ENDMDL
