MODEL 1
REMARK VINA RESULT:      -5.7      0.000      0.000
REMARK  3 active torsions:
REMARK  status: ('A' for Active; 'I' for Inactive)
REMARK    1  A    between atoms: O_2  and  C_3 
REMARK    2  A    between atoms: C_6  and  N_7 
REMARK       I    between atoms: N_7  and  C_8 
REMARK    3  A    between atoms: C_8  and  C_10 
ROOT
HETATM    1  C   UNL     1     -45.613 -48.343   8.042  1.00  0.00     0.141 A 
HETATM    2  C   UNL     1     -45.749 -47.851   9.326  1.00  0.00     0.058 A 
HETATM    3  C   UNL     1     -44.645 -47.255   9.931  1.00  0.00     0.035 A 
HETATM    4  C   UNL     1     -43.432 -47.164   9.248  1.00  0.00     0.050 A 
HETATM    5  C   UNL     1     -43.408 -47.683   7.953  1.00  0.00     0.119 A 
HETATM    6  N   UNL     1     -44.465 -48.273   7.334  1.00  0.00    -0.345 N 
ATOM      7  HN  UNL     1     -44.395 -48.644   6.387  1.00  0.00     0.167 HD
ENDROOT
BRANCH   4   8
HETATM    8  N   UNL     1     -42.270 -46.570   9.796  1.00  0.00    -0.324 N 
HETATM    9  C   UNL     1     -41.319 -47.218  10.562  1.00  0.00     0.251 C 
HETATM   10  O   UNL     1     -41.304 -48.422  10.816  1.00  0.00    -0.270 OA
HETATM   11  H   UNL     1     -42.066 -45.599   9.571  1.00  0.00     0.169 HD
BRANCH   9  12
HETATM   12  C   UNL     1     -40.203 -46.320  11.098  1.00  0.00     0.213 C 
HETATM   13  C   UNL     1     -39.894 -46.706  12.538  1.00  0.00     0.044 C 
HETATM   14  C   UNL     1     -39.315 -45.449  13.149  1.00  0.00     0.029 C 
HETATM   15  C   UNL     1     -39.415 -44.417  12.042  1.00  0.00     0.168 C 
HETATM   16  O   UNL     1     -40.420 -44.911  11.138  1.00  0.00    -0.376 OA
ENDBRANCH   9  12
ENDBRANCH   4   8
BRANCH   1  17
HETATM   17  O   UNL     1     -46.745 -48.911   7.493  1.00  0.00    -0.341 OA
HETATM   18  C   UNL     1     -46.471 -49.728   6.362  1.00  0.00     0.211 C 
ENDBRANCH   1  17
TORSDOF 3
ENDMDL
MODEL 2
REMARK VINA RESULT:      -5.2      3.924      6.369
REMARK  3 active torsions:
REMARK  status: ('A' for Active; 'I' for Inactive)
REMARK    1  A    between atoms: O_2  and  C_3 
REMARK    2  A    between atoms: C_6  and  N_7 
REMARK       I    between atoms: N_7  and  C_8 
REMARK    3  A    between atoms: C_8  and  C_10 
ROOT
HETATM    1  C   UNL     1     -41.034 -45.856  10.471  1.00  0.00     0.141 A 
HETATM    2  C   UNL     1     -40.055 -46.404  11.277  1.00  0.00     0.058 A 
HETATM    3  C   UNL     1     -40.066 -47.779  11.494  1.00  0.00     0.035 A 
HETATM    4  C   UNL     1     -41.049 -48.578  10.909  1.00  0.00     0.050 A 
HETATM    5  C   UNL     1     -41.981 -47.923  10.105  1.00  0.00     0.119 A 
HETATM    6  N   UNL     1     -42.003 -46.583   9.874  1.00  0.00    -0.345 N 
ATOM      7  HN  UNL     1     -42.711 -46.151   9.282  1.00  0.00     0.167 HD
ENDROOT
BRANCH   4   8
HETATM    8  N   UNL     1     -41.121 -49.981  11.081  1.00  0.00    -0.324 N 
HETATM    9  C   UNL     1     -41.639 -50.630  12.186  1.00  0.00     0.251 C 
HETATM   10  O   UNL     1     -42.181 -50.086  13.147  1.00  0.00    -0.270 OA
HETATM   11  H   UNL     1     -40.826 -50.582  10.315  1.00  0.00     0.169 HD
BRANCH   9  12
HETATM   12  C   UNL     1     -41.518 -52.155  12.151  1.00  0.00     0.213 C 
HETATM   13  C   UNL     1     -42.679 -52.769  12.921  1.00  0.00     0.044 C 
HETATM   14  C   UNL     1     -42.161 -54.117  13.369  1.00  0.00     0.029 C 
HETATM   15  C   UNL     1     -40.721 -54.139  12.897  1.00  0.00     0.168 C 
HETATM   16  O   UNL     1     -40.352 -52.761  12.705  1.00  0.00    -0.376 OA
ENDBRANCH   9  12
ENDBRANCH   4   8
BRANCH   1  17
HETATM   17  O   UNL     1     -40.964 -44.489  10.284  1.00  0.00    -0.341 OA
HETATM   18  C   UNL     1     -40.484 -43.791  11.426  1.00  0.00     0.211 C 
ENDBRANCH   1  17
TORSDOF 3
ENDMDL
MODEL 3
REMARK VINA RESULT:      -5.0      7.766     10.014
REMARK  3 active torsions:
REMARK  status: ('A' for Active; 'I' for Inactive)
REMARK    1  A    between atoms: O_2  and  C_3 
REMARK    2  A    between atoms: C_6  and  N_7 
REMARK       I    between atoms: N_7  and  C_8 
REMARK    3  A    between atoms: C_8  and  C_10 
ROOT
HETATM    1  C   UNL     1     -38.972 -55.313  15.303  1.00  0.00     0.141 A 
HETATM    2  C   UNL     1     -40.108 -55.317  16.089  1.00  0.00     0.058 A 
HETATM    3  C   UNL     1     -41.269 -54.739  15.581  1.00  0.00     0.035 A 
HETATM    4  C   UNL     1     -41.275 -54.170  14.307  1.00  0.00     0.050 A 
HETATM    5  C   UNL     1     -40.077 -54.232  13.595  1.00  0.00     0.119 A 
HETATM    6  N   UNL     1     -38.925 -54.784  14.061  1.00  0.00    -0.345 N 
ATOM      7  HN  UNL     1     -38.072 -54.799  13.503  1.00  0.00     0.167 HD
ENDROOT
BRANCH   4   8
HETATM    8  N   UNL     1     -42.416 -53.570  13.725  1.00  0.00    -0.324 N 
HETATM    9  C   UNL     1     -42.824 -52.262  13.915  1.00  0.00     0.251 C 
HETATM   10  O   UNL     1     -42.213 -51.408  14.557  1.00  0.00    -0.270 OA
HETATM   11  H   UNL     1     -42.966 -54.109  13.061  1.00  0.00     0.169 HD
BRANCH   9  12
HETATM   12  C   UNL     1     -44.142 -51.893  13.232  1.00  0.00     0.213 C 
HETATM   13  C   UNL     1     -45.075 -51.254  14.251  1.00  0.00     0.044 C 
HETATM   14  C   UNL     1     -46.461 -51.516  13.708  1.00  0.00     0.029 C 
HETATM   15  C   UNL     1     -46.224 -52.355  12.468  1.00  0.00     0.168 C 
HETATM   16  O   UNL     1     -44.915 -52.931  12.632  1.00  0.00    -0.376 OA
ENDBRANCH   9  12
ENDBRANCH   4   8
BRANCH   1  17
HETATM   17  O   UNL     1     -37.856 -55.911  15.856  1.00  0.00    -0.341 OA
HETATM   18  C   UNL     1     -38.014 -56.227  17.233  1.00  0.00     0.211 C 
ENDBRANCH   1  17
TORSDOF 3
ENDMDL
MODEL 4
REMARK VINA RESULT:      -5.0      6.275      6.817
REMARK  3 active torsions:
REMARK  status: ('A' for Active; 'I' for Inactive)
REMARK    1  A    between atoms: O_2  and  C_3 
REMARK    2  A    between atoms: C_6  and  N_7 
REMARK       I    between atoms: N_7  and  C_8 
REMARK    3  A    between atoms: C_8  and  C_10 
ROOT
HETATM    1  C   UNL     1     -43.902 -53.788  12.900  1.00  0.00     0.141 A 
HETATM    2  C   UNL     1     -43.420 -53.858  14.192  1.00  0.00     0.058 A 
HETATM    3  C   UNL     1     -42.284 -53.122  14.519  1.00  0.00     0.035 A 
HETATM    4  C   UNL     1     -41.653 -52.335  13.555  1.00  0.00     0.050 A 
HETATM    5  C   UNL     1     -42.231 -52.328  12.285  1.00  0.00     0.119 A 
HETATM    6  N   UNL     1     -43.336 -53.036  11.931  1.00  0.00    -0.345 N 
ATOM      7  HN  UNL     1     -43.716 -53.002  10.986  1.00  0.00     0.167 HD
ENDROOT
BRANCH   4   8
HETATM    8  N   UNL     1     -40.499 -51.558  13.814  1.00  0.00    -0.324 N 
HETATM    9  C   UNL     1     -39.200 -52.030  13.843  1.00  0.00     0.251 C 
HETATM   10  O   UNL     1     -38.850 -53.179  13.574  1.00  0.00    -0.270 OA
HETATM   11  H   UNL     1     -40.604 -50.553  13.934  1.00  0.00     0.169 HD
BRANCH   9  12
HETATM   12  C   UNL     1     -38.146 -50.992  14.230  1.00  0.00     0.213 C 
HETATM   13  C   UNL     1     -38.051 -50.912  15.748  1.00  0.00     0.044 C 
HETATM   14  C   UNL     1     -37.530 -49.519  16.020  1.00  0.00     0.029 C 
HETATM   15  C   UNL     1     -37.446 -48.878  14.649  1.00  0.00     0.168 C 
HETATM   16  O   UNL     1     -38.329 -49.642  13.807  1.00  0.00    -0.376 OA
ENDBRANCH   9  12
ENDBRANCH   4   8
BRANCH   1  17
HETATM   17  O   UNL     1     -45.038 -54.531  12.640  1.00  0.00    -0.341 OA
HETATM   18  C   UNL     1     -45.514 -55.242  13.776  1.00  0.00     0.211 C 
ENDBRANCH   1  17
TORSDOF 3
ENDMDL
MODEL 5
REMARK VINA RESULT:      -4.9      6.659      7.323
REMARK  3 active torsions:
REMARK  status: ('A' for Active; 'I' for Inactive)
REMARK    1  A    between atoms: O_2  and  C_3 
REMARK    2  A    between atoms: C_6  and  N_7 
REMARK       I    between atoms: N_7  and  C_8 
REMARK    3  A    between atoms: C_8  and  C_10 
ROOT
HETATM    1  C   UNL     1     -44.331 -54.669  13.838  1.00  0.00     0.141 A 
HETATM    2  C   UNL     1     -44.317 -53.761  12.797  1.00  0.00     0.058 A 
HETATM    3  C   UNL     1     -43.141 -53.059  12.542  1.00  0.00     0.035 A 
HETATM    4  C   UNL     1     -42.008 -53.275  13.326  1.00  0.00     0.050 A 
HETATM    5  C   UNL     1     -42.128 -54.223  14.343  1.00  0.00     0.119 A 
HETATM    6  N   UNL     1     -43.261 -54.922  14.622  1.00  0.00    -0.345 N 
ATOM      7  HN  UNL     1     -43.300 -55.600  15.382  1.00  0.00     0.167 HD
ENDROOT
BRANCH   4   8
HETATM    8  N   UNL     1     -40.778 -52.604  13.124  1.00  0.00    -0.324 N 
HETATM    9  C   UNL     1     -40.349 -51.486  13.814  1.00  0.00     0.251 C 
HETATM   10  O   UNL     1     -40.937 -50.956  14.756  1.00  0.00    -0.270 OA
HETATM   11  H   UNL     1     -40.113 -52.993  12.460  1.00  0.00     0.169 HD
BRANCH   9  12
HETATM   12  C   UNL     1     -39.014 -50.910  13.339  1.00  0.00     0.213 C 
HETATM   13  C   UNL     1     -39.256 -49.998  12.144  1.00  0.00     0.044 C 
HETATM   14  C   UNL     1     -37.945 -50.009  11.391  1.00  0.00     0.029 C 
HETATM   15  C   UNL     1     -37.081 -50.989  12.160  1.00  0.00     0.168 C 
HETATM   16  O   UNL     1     -37.995 -51.811  12.908  1.00  0.00    -0.376 OA
ENDBRANCH   9  12
ENDBRANCH   4   8
BRANCH   1  17
HETATM   17  O   UNL     1     -45.521 -55.341  14.034  1.00  0.00    -0.341 OA
HETATM   18  C   UNL     1     -46.483 -54.580  14.753  1.00  0.00     0.211 C 
ENDBRANCH   1  17
TORSDOF 3
ENDMDL
MODEL 6
REMARK VINA RESULT:      -4.9      5.880      8.443
REMARK  3 active torsions:
REMARK  status: ('A' for Active; 'I' for Inactive)
REMARK    1  A    between atoms: O_2  and  C_3 
REMARK    2  A    between atoms: C_6  and  N_7 
REMARK       I    between atoms: N_7  and  C_8 
REMARK    3  A    between atoms: C_8  and  C_10 
ROOT
HETATM    1  C   UNL     1     -38.990 -51.228  12.489  1.00  0.00     0.141 A 
HETATM    2  C   UNL     1     -39.260 -51.870  13.682  1.00  0.00     0.058 A 
HETATM    3  C   UNL     1     -40.591 -52.084  14.035  1.00  0.00     0.035 A 
HETATM    4  C   UNL     1     -41.620 -51.656  13.197  1.00  0.00     0.050 A 
HETATM    5  C   UNL     1     -41.235 -51.029  12.012  1.00  0.00     0.119 A 
HETATM    6  N   UNL     1     -39.948 -50.800  11.638  1.00  0.00    -0.345 N 
ATOM      7  HN  UNL     1     -39.717 -50.331  10.762  1.00  0.00     0.167 HD
ENDROOT
BRANCH   4   8
HETATM    8  N   UNL     1     -42.993 -51.842  13.487  1.00  0.00    -0.324 N 
HETATM    9  C   UNL     1     -43.714 -52.999  13.261  1.00  0.00     0.251 C 
HETATM   10  O   UNL     1     -43.251 -54.061  12.845  1.00  0.00    -0.270 OA
HETATM   11  H   UNL     1     -43.498 -51.094  13.956  1.00  0.00     0.169 HD
BRANCH   9  12
HETATM   12  C   UNL     1     -45.204 -52.904  13.590  1.00  0.00     0.213 C 
HETATM   13  C   UNL     1     -45.626 -51.441  13.594  1.00  0.00     0.044 C 
HETATM   14  C   UNL     1     -46.832 -51.400  14.505  1.00  0.00     0.029 C 
HETATM   15  C   UNL     1     -46.959 -52.820  15.020  1.00  0.00     0.168 C 
HETATM   16  O   UNL     1     -45.663 -53.418  14.839  1.00  0.00    -0.376 OA
ENDBRANCH   9  12
ENDBRANCH   4   8
BRANCH   1  17
HETATM   17  O   UNL     1     -37.653 -51.055  12.189  1.00  0.00    -0.341 OA
HETATM   18  C   UNL     1     -37.420 -50.012  11.251  1.00  0.00     0.211 C 
ENDBRANCH   1  17
TORSDOF 3
ENDMDL
MODEL 7
REMARK VINA RESULT:      -4.7      8.585      9.316
REMARK  3 active torsions:
REMARK  status: ('A' for Active; 'I' for Inactive)
REMARK    1  A    between atoms: O_2  and  C_3 
REMARK    2  A    between atoms: C_6  and  N_7 
REMARK       I    between atoms: N_7  and  C_8 
REMARK    3  A    between atoms: C_8  and  C_10 
ROOT
HETATM    1  C   UNL     1     -44.923 -53.260  12.643  1.00  0.00     0.141 A 
HETATM    2  C   UNL     1     -45.211 -53.719  13.914  1.00  0.00     0.058 A 
HETATM    3  C   UNL     1     -44.156 -54.119  14.731  1.00  0.00     0.035 A 
HETATM    4  C   UNL     1     -42.841 -54.053  14.268  1.00  0.00     0.050 A 
HETATM    5  C   UNL     1     -42.664 -53.562  12.974  1.00  0.00     0.119 A 
HETATM    6  N   UNL     1     -43.670 -53.168  12.149  1.00  0.00    -0.345 N 
ATOM      7  HN  UNL     1     -43.488 -52.821  11.207  1.00  0.00     0.167 HD
ENDROOT
BRANCH   4   8
HETATM    8  N   UNL     1     -41.720 -54.436  15.042  1.00  0.00    -0.324 N 
HETATM    9  C   UNL     1     -41.687 -55.479  15.949  1.00  0.00     0.251 C 
HETATM   10  O   UNL     1     -42.602 -56.273  16.160  1.00  0.00    -0.270 OA
HETATM   11  H   UNL     1     -40.836 -53.955  14.892  1.00  0.00     0.169 HD
BRANCH   9  12
HETATM   12  C   UNL     1     -40.370 -55.625  16.713  1.00  0.00     0.213 C 
HETATM   13  C   UNL     1     -39.233 -55.068  15.867  1.00  0.00     0.044 C 
HETATM   14  C   UNL     1     -38.004 -55.798  16.361  1.00  0.00     0.029 C 
HETATM   15  C   UNL     1     -38.539 -56.776  17.389  1.00  0.00     0.168 C 
HETATM   16  O   UNL     1     -39.938 -56.931  17.087  1.00  0.00    -0.376 OA
ENDBRANCH   9  12
ENDBRANCH   4   8
BRANCH   1  17
HETATM   17  O   UNL     1     -46.009 -52.868  11.885  1.00  0.00    -0.341 OA
HETATM   18  C   UNL     1     -46.651 -51.702  12.385  1.00  0.00     0.211 C 
ENDBRANCH   1  17
TORSDOF 3
ENDMDL
MODEL 8
REMARK VINA RESULT:      -4.7      7.995      8.663
REMARK  3 active torsions:
REMARK  status: ('A' for Active; 'I' for Inactive)
REMARK    1  A    between atoms: O_2  and  C_3 
REMARK    2  A    between atoms: C_6  and  N_7 
REMARK       I    between atoms: N_7  and  C_8 
REMARK    3  A    between atoms: C_8  and  C_10 
ROOT
HETATM    1  C   UNL     1     -44.621 -53.392  12.559  1.00  0.00     0.141 A 
HETATM    2  C   UNL     1     -44.710 -54.235  13.650  1.00  0.00     0.058 A 
HETATM    3  C   UNL     1     -43.539 -54.583  14.318  1.00  0.00     0.035 A 
HETATM    4  C   UNL     1     -42.308 -54.088  13.887  1.00  0.00     0.050 A 
HETATM    5  C   UNL     1     -42.335 -53.235  12.783  1.00  0.00     0.119 A 
HETATM    6  N   UNL     1     -43.458 -52.878  12.106  1.00  0.00    -0.345 N 
ATOM      7  HN  UNL     1     -43.424 -52.256  11.299  1.00  0.00     0.167 HD
ENDROOT
BRANCH   4   8
HETATM    8  N   UNL     1     -41.078 -54.394  14.518  1.00  0.00    -0.324 N 
HETATM    9  C   UNL     1     -40.501 -53.676  15.548  1.00  0.00     0.251 C 
HETATM   10  O   UNL     1     -41.007 -52.711  16.119  1.00  0.00    -0.270 OA
HETATM   11  H   UNL     1     -40.589 -55.244  14.245  1.00  0.00     0.169 HD
BRANCH   9  12
HETATM   12  C   UNL     1     -39.126 -54.178  15.991  1.00  0.00     0.213 C 
HETATM   13  C   UNL     1     -39.148 -55.698  16.075  1.00  0.00     0.044 C 
HETATM   14  C   UNL     1     -38.064 -56.035  17.074  1.00  0.00     0.029 C 
HETATM   15  C   UNL     1     -37.563 -54.686  17.550  1.00  0.00     0.168 C 
HETATM   16  O   UNL     1     -38.617 -53.752  17.253  1.00  0.00    -0.376 OA
ENDBRANCH   9  12
ENDBRANCH   4   8
BRANCH   1  17
HETATM   17  O   UNL     1     -45.817 -53.074  11.946  1.00  0.00    -0.341 OA
HETATM   18  C   UNL     1     -46.486 -51.977  12.555  1.00  0.00     0.211 C 
ENDBRANCH   1  17
TORSDOF 3
ENDMDL
MODEL 9
REMARK VINA RESULT:      -4.7      8.696     10.799
REMARK  3 active torsions:
REMARK  status: ('A' for Active; 'I' for Inactive)
REMARK    1  A    between atoms: O_2  and  C_3 
REMARK    2  A    between atoms: C_6  and  N_7 
REMARK       I    between atoms: N_7  and  C_8 
REMARK    3  A    between atoms: C_8  and  C_10 
ROOT
HETATM    1  C   UNL     1     -39.927 -55.763  16.074  1.00  0.00     0.141 A 
HETATM    2  C   UNL     1     -41.006 -56.172  16.833  1.00  0.00     0.058 A 
HETATM    3  C   UNL     1     -42.237 -55.554  16.627  1.00  0.00     0.035 A 
HETATM    4  C   UNL     1     -42.367 -54.543  15.674  1.00  0.00     0.050 A 
HETATM    5  C   UNL     1     -41.217 -54.217  14.956  1.00  0.00     0.119 A 
HETATM    6  N   UNL     1     -40.000 -54.797  15.134  1.00  0.00    -0.345 N 
ATOM      7  HN  UNL     1     -39.186 -54.517  14.586  1.00  0.00     0.167 HD
ENDROOT
BRANCH   4   8
HETATM    8  N   UNL     1     -43.585 -53.873  15.407  1.00  0.00    -0.324 N 
HETATM    9  C   UNL     1     -44.664 -54.405  14.726  1.00  0.00     0.251 C 
HETATM   10  O   UNL     1     -44.753 -55.562  14.319  1.00  0.00    -0.270 OA
HETATM   11  H   UNL     1     -43.723 -52.940  15.790  1.00  0.00     0.169 HD
BRANCH   9  12
HETATM   12  C   UNL     1     -45.825 -53.435  14.503  1.00  0.00     0.213 C 
HETATM   13  C   UNL     1     -45.773 -52.905  13.077  1.00  0.00     0.044 C 
HETATM   14  C   UNL     1     -46.481 -51.571  13.145  1.00  0.00     0.029 C 
HETATM   15  C   UNL     1     -46.811 -51.398  14.615  1.00  0.00     0.168 C 
HETATM   16  O   UNL     1     -45.909 -52.269  15.321  1.00  0.00    -0.376 OA
ENDBRANCH   9  12
ENDBRANCH   4   8
BRANCH   1  17
HETATM   17  O   UNL     1     -38.738 -56.421  16.316  1.00  0.00    -0.341 OA
HETATM   18  C   UNL     1     -37.743 -55.588  16.897  1.00  0.00     0.211 C 
ENDBRANCH   1  17
TORSDOF 3
ENDMDL
