MODEL 1
REMARK VINA RESULT:      -5.6      0.000      0.000
REMARK  4 active torsions:
REMARK  status: ('A' for Active; 'I' for Inactive)
REMARK    1  A    between atoms: C_3  and  C_4 
REMARK    2  A    between atoms: C_4  and  N_5 
REMARK       I    between atoms: N_5  and  C_6 
REMARK       I    between atoms: C_6  and  N_8 
REMARK    3  A    between atoms: N_8  and  C_9 
REMARK    4  A    between atoms: C_13  and  C_17 
ROOT
HETATM    1  C   UNL     1     -47.173 -47.510   9.140  1.00  0.00     0.112 C 
HETATM    2  C   UNL     1     -45.735 -47.248   9.049  1.00  0.00    -0.109 C 
HETATM    3  C   UNL     1     -44.548 -47.063   9.015  1.00  0.00    -0.087 C 
ENDROOT
BRANCH   3   4
HETATM    4  C   UNL     1     -43.093 -46.908   9.052  1.00  0.00     0.218 C 
BRANCH   4   5
HETATM    5  N   UNL     1     -42.434 -48.155   9.371  1.00  0.00    -0.332 N 
HETATM    6  C   UNL     1     -41.548 -48.134  10.425  1.00  0.00     0.321 C 
HETATM    7  O   UNL     1     -41.309 -47.108  11.051  1.00  0.00    -0.247 OA
HETATM    8  N   UNL     1     -40.955 -49.357  10.634  1.00  0.00    -0.306 N 
HETATM    9  H   UNL     1     -40.998 -50.008   9.860  1.00  0.00     0.171 HD
HETATM   10  H   UNL     1     -42.995 -48.989   9.283  1.00  0.00     0.165 HD
BRANCH   8  11
HETATM   11  C   UNL     1     -40.032 -49.626  11.672  1.00  0.00     0.067 A 
HETATM   12  C   UNL     1     -40.373 -50.007  12.953  1.00  0.00     0.120 A 
HETATM   13  N   UNL     1     -39.480 -50.230  13.943  1.00  0.00    -0.353 N 
HETATM   14  C   UNL     1     -38.175 -50.073  13.653  1.00  0.00     0.085 A 
ATOM     15  HN  UNL     1     -39.784 -50.506  14.876  1.00  0.00     0.166 HD
HETATM   16  N   UNL     1     -37.736 -49.732  12.422  1.00  0.00    -0.353 N 
HETATM   17  C   UNL     1     -38.672 -49.523  11.466  1.00  0.00     0.120 A 
ATOM     18  HN  UNL     1     -36.740 -49.636  12.221  1.00  0.00     0.166 HD
BRANCH  14  19
HETATM   19  C   UNL     1     -37.176 -50.257  14.769  1.00  0.00     0.053 A 
HETATM   20  C   UNL     1     -37.617 -50.237  16.213  1.00  0.00     0.013 A 
HETATM   21  C   UNL     1     -36.824 -49.088  15.666  1.00  0.00     0.013 A 
ENDBRANCH  14  19
ENDBRANCH   8  11
ENDBRANCH   4   5
ENDBRANCH   3   4
TORSDOF 4
ENDMDL
MODEL 2
REMARK VINA RESULT:      -5.6      2.153      2.543
REMARK  4 active torsions:
REMARK  status: ('A' for Active; 'I' for Inactive)
REMARK    1  A    between atoms: C_3  and  C_4 
REMARK    2  A    between atoms: C_4  and  N_5 
REMARK       I    between atoms: N_5  and  C_6 
REMARK       I    between atoms: C_6  and  N_8 
REMARK    3  A    between atoms: N_8  and  C_9 
REMARK    4  A    between atoms: C_13  and  C_17 
ROOT
HETATM    1  C   UNL     1     -46.785 -48.030   9.082  1.00  0.00     0.112 C 
HETATM    2  C   UNL     1     -45.412 -47.545   9.239  1.00  0.00    -0.109 C 
HETATM    3  C   UNL     1     -44.278 -47.185   9.401  1.00  0.00    -0.087 C 
ENDROOT
BRANCH   3   4
HETATM    4  C   UNL     1     -42.881 -46.830   9.659  1.00  0.00     0.218 C 
BRANCH   4   5
HETATM    5  N   UNL     1     -42.015 -47.985   9.573  1.00  0.00    -0.332 N 
HETATM    6  C   UNL     1     -41.708 -48.617  10.758  1.00  0.00     0.321 C 
HETATM    7  O   UNL     1     -42.127 -48.213  11.835  1.00  0.00    -0.247 OA
HETATM    8  N   UNL     1     -40.862 -49.686  10.576  1.00  0.00    -0.306 N 
HETATM    9  H   UNL     1     -40.351 -49.701   9.702  1.00  0.00     0.171 HD
HETATM   10  H   UNL     1     -42.155 -48.587   8.775  1.00  0.00     0.165 HD
BRANCH   8  11
HETATM   11  C   UNL     1     -40.414 -50.532  11.618  1.00  0.00     0.067 A 
HETATM   12  C   UNL     1     -39.291 -50.310  12.387  1.00  0.00     0.120 A 
HETATM   13  N   UNL     1     -38.858 -51.145  13.358  1.00  0.00    -0.353 N 
HETATM   14  C   UNL     1     -39.576 -52.260  13.588  1.00  0.00     0.085 A 
ATOM     15  HN  UNL     1     -38.018 -50.937  13.897  1.00  0.00     0.166 HD
HETATM   16  N   UNL     1     -40.707 -52.554  12.910  1.00  0.00    -0.353 N 
HETATM   17  C   UNL     1     -41.098 -51.682  11.950  1.00  0.00     0.120 A 
ATOM     18  HN  UNL     1     -41.244 -53.397  13.113  1.00  0.00     0.166 HD
BRANCH  14  19
HETATM   19  C   UNL     1     -39.064 -53.229  14.626  1.00  0.00     0.053 A 
HETATM   20  C   UNL     1     -39.718 -54.577  14.814  1.00  0.00     0.013 A 
HETATM   21  C   UNL     1     -39.894 -53.518  15.861  1.00  0.00     0.013 A 
ENDBRANCH  14  19
ENDBRANCH   8  11
ENDBRANCH   4   5
ENDBRANCH   3   4
TORSDOF 4
ENDMDL
MODEL 3
REMARK VINA RESULT:      -5.4      3.624      5.906
REMARK  4 active torsions:
REMARK  status: ('A' for Active; 'I' for Inactive)
REMARK    1  A    between atoms: C_3  and  C_4 
REMARK    2  A    between atoms: C_4  and  N_5 
REMARK       I    between atoms: N_5  and  C_6 
REMARK       I    between atoms: C_6  and  N_8 
REMARK    3  A    between atoms: N_8  and  C_9 
REMARK    4  A    between atoms: C_13  and  C_17 
ROOT
HETATM    1  C   UNL     1     -45.312 -54.908  13.720  1.00  0.00     0.112 C 
HETATM    2  C   UNL     1     -43.952 -54.434  13.457  1.00  0.00    -0.109 C 
HETATM    3  C   UNL     1     -42.821 -54.068  13.284  1.00  0.00    -0.087 C 
ENDROOT
BRANCH   3   4
HETATM    4  C   UNL     1     -41.415 -53.680  13.156  1.00  0.00     0.218 C 
BRANCH   4   5
HETATM    5  N   UNL     1     -41.199 -52.841  11.999  1.00  0.00    -0.332 N 
HETATM    6  C   UNL     1     -41.057 -51.491  12.231  1.00  0.00     0.321 C 
HETATM    7  O   UNL     1     -41.131 -51.016  13.358  1.00  0.00    -0.247 OA
HETATM    8  N   UNL     1     -40.881 -50.776  11.070  1.00  0.00    -0.306 N 
HETATM    9  H   UNL     1     -41.162 -51.243  10.216  1.00  0.00     0.171 HD
HETATM   10  H   UNL     1     -40.613 -53.228  11.273  1.00  0.00     0.165 HD
BRANCH   8  11
HETATM   11  C   UNL     1     -40.676 -49.377  11.020  1.00  0.00     0.067 A 
HETATM   12  C   UNL     1     -39.571 -48.723  11.524  1.00  0.00     0.120 A 
HETATM   13  N   UNL     1     -39.405 -47.382  11.497  1.00  0.00    -0.353 N 
HETATM   14  C   UNL     1     -40.381 -46.642  10.938  1.00  0.00     0.085 A 
ATOM     15  HN  UNL     1     -38.569 -46.946  11.887  1.00  0.00     0.166 HD
HETATM   16  N   UNL     1     -41.488 -47.189  10.391  1.00  0.00    -0.353 N 
HETATM   17  C   UNL     1     -41.604 -48.537  10.441  1.00  0.00     0.120 A 
ATOM     18  HN  UNL     1     -42.207 -46.609   9.957  1.00  0.00     0.166 HD
BRANCH  14  19
HETATM   19  C   UNL     1     -40.232 -45.141  10.962  1.00  0.00     0.053 A 
HETATM   20  C   UNL     1     -39.473 -44.457  12.075  1.00  0.00     0.013 A 
HETATM   21  C   UNL     1     -40.966 -44.328  12.010  1.00  0.00     0.013 A 
ENDBRANCH  14  19
ENDBRANCH   8  11
ENDBRANCH   4   5
ENDBRANCH   3   4
TORSDOF 4
ENDMDL
MODEL 4
REMARK VINA RESULT:      -5.2      4.923      5.631
REMARK  4 active torsions:
REMARK  status: ('A' for Active; 'I' for Inactive)
REMARK    1  A    between atoms: C_3  and  C_4 
REMARK    2  A    between atoms: C_4  and  N_5 
REMARK       I    between atoms: N_5  and  C_6 
REMARK       I    between atoms: C_6  and  N_8 
REMARK    3  A    between atoms: N_8  and  C_9 
REMARK    4  A    between atoms: C_13  and  C_17 
ROOT
HETATM    1  C   UNL     1     -48.180 -50.588  17.769  1.00  0.00     0.112 C 
HETATM    2  C   UNL     1     -47.617 -51.245  16.588  1.00  0.00    -0.109 C 
HETATM    3  C   UNL     1     -47.169 -51.830  15.639  1.00  0.00    -0.087 C 
ENDROOT
BRANCH   3   4
HETATM    4  C   UNL     1     -46.663 -52.631  14.523  1.00  0.00     0.218 C 
BRANCH   4   5
HETATM    5  N   UNL     1     -45.889 -51.829  13.602  1.00  0.00    -0.332 N 
HETATM    6  C   UNL     1     -44.518 -51.895  13.726  1.00  0.00     0.321 C 
HETATM    7  O   UNL     1     -43.978 -52.581  14.584  1.00  0.00    -0.247 OA
HETATM    8  N   UNL     1     -43.872 -51.081  12.825  1.00  0.00    -0.306 N 
HETATM    9  H   UNL     1     -44.433 -50.347  12.412  1.00  0.00     0.171 HD
HETATM   10  H   UNL     1     -46.244 -51.766  12.659  1.00  0.00     0.165 HD
BRANCH   8  11
HETATM   11  C   UNL     1     -42.465 -50.983  12.710  1.00  0.00     0.067 A 
HETATM   12  C   UNL     1     -41.668 -51.860  12.006  1.00  0.00     0.120 A 
HETATM   13  N   UNL     1     -40.321 -51.771  11.931  1.00  0.00    -0.353 N 
HETATM   14  C   UNL     1     -39.726 -50.755  12.584  1.00  0.00     0.085 A 
ATOM     15  HN  UNL     1     -39.776 -52.448  11.398  1.00  0.00     0.166 HD
HETATM   16  N   UNL     1     -40.419 -49.826  13.277  1.00  0.00    -0.353 N 
HETATM   17  C   UNL     1     -41.766 -49.961  13.317  1.00  0.00     0.120 A 
ATOM     18  HN  UNL     1     -39.948 -49.055  13.750  1.00  0.00     0.166 HD
BRANCH  14  19
HETATM   19  C   UNL     1     -38.218 -50.685  12.558  1.00  0.00     0.053 A 
HETATM   20  C   UNL     1     -37.502 -49.367  12.735  1.00  0.00     0.013 A 
HETATM   21  C   UNL     1     -37.514 -50.028  11.389  1.00  0.00     0.013 A 
ENDBRANCH  14  19
ENDBRANCH   8  11
ENDBRANCH   4   5
ENDBRANCH   3   4
TORSDOF 4
ENDMDL
MODEL 5
REMARK VINA RESULT:      -5.1      3.453      6.703
REMARK  4 active torsions:
REMARK  status: ('A' for Active; 'I' for Inactive)
REMARK    1  A    between atoms: C_3  and  C_4 
REMARK    2  A    between atoms: C_4  and  N_5 
REMARK       I    between atoms: N_5  and  C_6 
REMARK       I    between atoms: C_6  and  N_8 
REMARK    3  A    between atoms: N_8  and  C_9 
REMARK    4  A    between atoms: C_13  and  C_17 
ROOT
HETATM    1  C   UNL     1     -38.634 -55.088  15.503  1.00  0.00     0.112 C 
HETATM    2  C   UNL     1     -39.625 -54.565  14.560  1.00  0.00    -0.109 C 
HETATM    3  C   UNL     1     -40.441 -54.183  13.765  1.00  0.00    -0.087 C 
ENDROOT
BRANCH   3   4
HETATM    4  C   UNL     1     -41.444 -53.816  12.763  1.00  0.00     0.218 C 
BRANCH   4   5
HETATM    5  N   UNL     1     -40.909 -52.886  11.793  1.00  0.00    -0.332 N 
HETATM    6  C   UNL     1     -41.143 -51.549  12.024  1.00  0.00     0.321 C 
HETATM    7  O   UNL     1     -41.789 -51.161  12.990  1.00  0.00    -0.247 OA
HETATM    8  N   UNL     1     -40.619 -50.748  11.037  1.00  0.00    -0.306 N 
HETATM    9  H   UNL     1     -40.406 -51.208  10.161  1.00  0.00     0.171 HD
HETATM   10  H   UNL     1     -40.004 -53.116  11.409  1.00  0.00     0.165 HD
BRANCH   8  11
HETATM   11  C   UNL     1     -40.684 -49.334  11.041  1.00  0.00     0.067 A 
HETATM   12  C   UNL     1     -41.626 -48.585  10.369  1.00  0.00     0.120 A 
HETATM   13  N   UNL     1     -41.656 -47.234  10.357  1.00  0.00    -0.353 N 
HETATM   14  C   UNL     1     -40.705 -46.583  11.052  1.00  0.00     0.085 A 
ATOM     15  HN  UNL     1     -42.373 -46.726   9.841  1.00  0.00     0.166 HD
HETATM   16  N   UNL     1     -39.755 -47.224  11.767  1.00  0.00    -0.353 N 
HETATM   17  C   UNL     1     -39.772 -48.578  11.747  1.00  0.00     0.120 A 
ATOM     18  HN  UNL     1     -39.053 -46.709  12.300  1.00  0.00     0.166 HD
BRANCH  14  19
HETATM   19  C   UNL     1     -40.692 -45.075  10.991  1.00  0.00     0.053 A 
HETATM   20  C   UNL     1     -39.593 -44.340  10.261  1.00  0.00     0.013 A 
HETATM   21  C   UNL     1     -39.641 -44.299  11.759  1.00  0.00     0.013 A 
ENDBRANCH  14  19
ENDBRANCH   8  11
ENDBRANCH   4   5
ENDBRANCH   3   4
TORSDOF 4
ENDMDL
MODEL 6
REMARK VINA RESULT:      -4.9      4.341      6.049
REMARK  4 active torsions:
REMARK  status: ('A' for Active; 'I' for Inactive)
REMARK    1  A    between atoms: C_3  and  C_4 
REMARK    2  A    between atoms: C_4  and  N_5 
REMARK       I    between atoms: N_5  and  C_6 
REMARK       I    between atoms: C_6  and  N_8 
REMARK    3  A    between atoms: N_8  and  C_9 
REMARK    4  A    between atoms: C_13  and  C_17 
ROOT
HETATM    1  C   UNL     1     -47.888 -51.204  16.464  1.00  0.00     0.112 C 
HETATM    2  C   UNL     1     -46.693 -51.512  15.677  1.00  0.00    -0.109 C 
HETATM    3  C   UNL     1     -45.687 -51.728  15.057  1.00  0.00    -0.087 C 
ENDROOT
BRANCH   3   4
HETATM    4  C   UNL     1     -44.412 -51.920  14.362  1.00  0.00     0.218 C 
BRANCH   4   5
HETATM    5  N   UNL     1     -44.358 -51.161  13.132  1.00  0.00    -0.332 N 
HETATM    6  C   UNL     1     -43.565 -50.035  13.135  1.00  0.00     0.321 C 
HETATM    7  O   UNL     1     -42.951 -49.677  14.133  1.00  0.00    -0.247 OA
HETATM    8  N   UNL     1     -43.598 -49.369  11.932  1.00  0.00    -0.306 N 
HETATM    9  H   UNL     1     -44.379 -49.589  11.327  1.00  0.00     0.171 HD
HETATM   10  H   UNL     1     -44.357 -51.699  12.278  1.00  0.00     0.165 HD
BRANCH   8  11
HETATM   11  C   UNL     1     -42.850 -48.202  11.648  1.00  0.00     0.067 A 
HETATM   12  C   UNL     1     -43.037 -46.978  12.255  1.00  0.00     0.120 A 
HETATM   13  N   UNL     1     -42.336 -45.864  11.951  1.00  0.00    -0.353 N 
HETATM   14  C   UNL     1     -41.391 -45.962  10.997  1.00  0.00     0.085 A 
ATOM     15  HN  UNL     1     -42.515 -44.980  12.427  1.00  0.00     0.166 HD
HETATM   16  N   UNL     1     -41.111 -47.121  10.364  1.00  0.00    -0.353 N 
HETATM   17  C   UNL     1     -41.841 -48.209  10.709  1.00  0.00     0.120 A 
ATOM     18  HN  UNL     1     -40.379 -47.176   9.655  1.00  0.00     0.166 HD
BRANCH  14  19
HETATM   19  C   UNL     1     -40.648 -44.708  10.605  1.00  0.00     0.053 A 
HETATM   20  C   UNL     1     -39.303 -44.787   9.923  1.00  0.00     0.013 A 
HETATM   21  C   UNL     1     -39.384 -44.319  11.345  1.00  0.00     0.013 A 
ENDBRANCH  14  19
ENDBRANCH   8  11
ENDBRANCH   4   5
ENDBRANCH   3   4
TORSDOF 4
ENDMDL
MODEL 7
REMARK VINA RESULT:      -4.9      3.547      5.491
REMARK  4 active torsions:
REMARK  status: ('A' for Active; 'I' for Inactive)
REMARK    1  A    between atoms: C_3  and  C_4 
REMARK    2  A    between atoms: C_4  and  N_5 
REMARK       I    between atoms: N_5  and  C_6 
REMARK       I    between atoms: C_6  and  N_8 
REMARK    3  A    between atoms: N_8  and  C_9 
REMARK    4  A    between atoms: C_13  and  C_17 
ROOT
HETATM    1  C   UNL     1     -46.701 -51.831  13.264  1.00  0.00     0.112 C 
HETATM    2  C   UNL     1     -45.293 -52.227  13.185  1.00  0.00    -0.109 C 
HETATM    3  C   UNL     1     -44.126 -52.503  13.113  1.00  0.00    -0.087 C 
ENDROOT
BRANCH   3   4
HETATM    4  C   UNL     1     -42.684 -52.736  13.021  1.00  0.00     0.218 C 
BRANCH   4   5
HETATM    5  N   UNL     1     -42.090 -51.974  11.945  1.00  0.00    -0.332 N 
HETATM    6  C   UNL     1     -41.966 -50.616  12.144  1.00  0.00     0.321 C 
HETATM    7  O   UNL     1     -42.356 -50.074  13.171  1.00  0.00    -0.247 OA
HETATM    8  N   UNL     1     -41.415 -49.977  11.058  1.00  0.00    -0.306 N 
HETATM    9  H   UNL     1     -41.445 -50.485  10.184  1.00  0.00     0.171 HD
HETATM   10  H   UNL     1     -41.330 -52.418  11.452  1.00  0.00     0.165 HD
BRANCH   8  11
HETATM   11  C   UNL     1     -41.143 -48.589  11.007  1.00  0.00     0.067 A 
HETATM   12  C   UNL     1     -41.857 -47.672  10.264  1.00  0.00     0.120 A 
HETATM   13  N   UNL     1     -41.565 -46.354  10.200  1.00  0.00    -0.353 N 
HETATM   14  C   UNL     1     -40.512 -45.912  10.912  1.00  0.00     0.085 A 
ATOM     15  HN  UNL     1     -42.123 -45.716   9.633  1.00  0.00     0.166 HD
HETATM   16  N   UNL     1     -39.767 -46.724  11.694  1.00  0.00    -0.353 N 
HETATM   17  C   UNL     1     -40.104 -48.036  11.724  1.00  0.00     0.120 A 
ATOM     18  HN  UNL     1     -38.982 -46.365  12.238  1.00  0.00     0.166 HD
BRANCH  14  19
HETATM   19  C   UNL     1     -40.140 -44.455  10.796  1.00  0.00     0.053 A 
HETATM   20  C   UNL     1     -39.763 -43.652  12.019  1.00  0.00     0.013 A 
HETATM   21  C   UNL     1     -41.074 -43.393  11.340  1.00  0.00     0.013 A 
ENDBRANCH  14  19
ENDBRANCH   8  11
ENDBRANCH   4   5
ENDBRANCH   3   4
TORSDOF 4
ENDMDL
MODEL 8
REMARK VINA RESULT:      -4.8      3.478      4.213
REMARK  4 active torsions:
REMARK  status: ('A' for Active; 'I' for Inactive)
REMARK    1  A    between atoms: C_3  and  C_4 
REMARK    2  A    between atoms: C_4  and  N_5 
REMARK       I    between atoms: N_5  and  C_6 
REMARK       I    between atoms: C_6  and  N_8 
REMARK    3  A    between atoms: N_8  and  C_9 
REMARK    4  A    between atoms: C_13  and  C_17 
ROOT
HETATM    1  C   UNL     1     -42.753 -42.074  12.414  1.00  0.00     0.112 C 
HETATM    2  C   UNL     1     -41.789 -42.919  11.706  1.00  0.00    -0.109 C 
HETATM    3  C   UNL     1     -40.966 -43.608  11.165  1.00  0.00    -0.087 C 
ENDROOT
BRANCH   3   4
HETATM    4  C   UNL     1     -39.908 -44.444  10.595  1.00  0.00     0.218 C 
BRANCH   4   5
HETATM    5  N   UNL     1     -40.422 -45.722  10.153  1.00  0.00    -0.332 N 
HETATM    6  C   UNL     1     -40.372 -46.756  11.062  1.00  0.00     0.321 C 
HETATM    7  O   UNL     1     -39.898 -46.612  12.182  1.00  0.00    -0.247 OA
HETATM    8  N   UNL     1     -40.858 -47.933  10.543  1.00  0.00    -0.306 N 
HETATM    9  H   UNL     1     -40.908 -47.983   9.533  1.00  0.00     0.171 HD
HETATM   10  H   UNL     1     -41.240 -45.692   9.564  1.00  0.00     0.165 HD
BRANCH   8  11
HETATM   11  C   UNL     1     -40.956 -49.142  11.270  1.00  0.00     0.067 A 
HETATM   12  C   UNL     1     -42.080 -49.567  11.948  1.00  0.00     0.120 A 
HETATM   13  N   UNL     1     -42.148 -50.711  12.664  1.00  0.00    -0.353 N 
HETATM   14  C   UNL     1     -41.046 -51.484  12.712  1.00  0.00     0.085 A 
ATOM     15  HN  UNL     1     -43.003 -50.980  13.151  1.00  0.00     0.166 HD
HETATM   16  N   UNL     1     -39.906 -51.172  12.060  1.00  0.00    -0.353 N 
HETATM   17  C   UNL     1     -39.893 -50.016  11.354  1.00  0.00     0.120 A 
ATOM     18  HN  UNL     1     -39.089 -51.781  12.097  1.00  0.00     0.166 HD
BRANCH  14  19
HETATM   19  C   UNL     1     -41.093 -52.730  13.563  1.00  0.00     0.053 A 
HETATM   20  C   UNL     1     -39.924 -53.685  13.601  1.00  0.00     0.013 A 
HETATM   21  C   UNL     1     -41.187 -54.090  12.902  1.00  0.00     0.013 A 
ENDBRANCH  14  19
ENDBRANCH   8  11
ENDBRANCH   4   5
ENDBRANCH   3   4
TORSDOF 4
ENDMDL
MODEL 9
REMARK VINA RESULT:      -4.8      2.488      8.168
REMARK  4 active torsions:
REMARK  status: ('A' for Active; 'I' for Inactive)
REMARK    1  A    between atoms: C_3  and  C_4 
REMARK    2  A    between atoms: C_4  and  N_5 
REMARK       I    between atoms: N_5  and  C_6 
REMARK       I    between atoms: C_6  and  N_8 
REMARK    3  A    between atoms: N_8  and  C_9 
REMARK    4  A    between atoms: C_13  and  C_17 
ROOT
HETATM    1  C   UNL     1     -34.937 -47.137  18.051  1.00  0.00     0.112 C 
HETATM    2  C   UNL     1     -35.778 -47.609  16.949  1.00  0.00    -0.109 C 
HETATM    3  C   UNL     1     -36.463 -47.950  16.023  1.00  0.00    -0.087 C 
ENDROOT
BRANCH   3   4
HETATM    4  C   UNL     1     -37.275 -48.274  14.848  1.00  0.00     0.218 C 
BRANCH   4   5
HETATM    5  N   UNL     1     -38.146 -47.178  14.486  1.00  0.00    -0.332 N 
HETATM    6  C   UNL     1     -39.015 -47.400  13.441  1.00  0.00     0.321 C 
HETATM    7  O   UNL     1     -39.040 -48.462  12.831  1.00  0.00    -0.247 OA
HETATM    8  N   UNL     1     -39.782 -46.294  13.156  1.00  0.00    -0.306 N 
HETATM    9  H   UNL     1     -39.436 -45.412  13.512  1.00  0.00     0.171 HD
HETATM   10  H   UNL     1     -38.506 -46.626  15.250  1.00  0.00     0.165 HD
BRANCH   8  11
HETATM   11  C   UNL     1     -40.781 -46.255  12.154  1.00  0.00     0.067 A 
HETATM   12  C   UNL     1     -42.132 -46.417  12.379  1.00  0.00     0.120 A 
HETATM   13  N   UNL     1     -43.070 -46.409  11.407  1.00  0.00    -0.353 N 
HETATM   14  C   UNL     1     -42.655 -46.226  10.140  1.00  0.00     0.085 A 
ATOM     15  HN  UNL     1     -44.058 -46.536  11.626  1.00  0.00     0.166 HD
HETATM   16  N   UNL     1     -41.359 -46.030   9.818  1.00  0.00    -0.353 N 
HETATM   17  C   UNL     1     -40.459 -46.044  10.830  1.00  0.00     0.120 A 
ATOM     18  HN  UNL     1     -41.068 -45.876   8.851  1.00  0.00     0.166 HD
BRANCH  14  19
HETATM   19  C   UNL     1     -43.689 -46.281   9.042  1.00  0.00     0.053 A 
HETATM   20  C   UNL     1     -44.950 -47.097   9.206  1.00  0.00     0.013 A 
HETATM   21  C   UNL     1     -43.887 -47.561   8.255  1.00  0.00     0.013 A 
ENDBRANCH  14  19
ENDBRANCH   8  11
ENDBRANCH   4   5
ENDBRANCH   3   4
TORSDOF 4
ENDMDL
