MODEL 1
REMARK VINA RESULT:      -5.9      0.000      0.000
REMARK  5 active torsions:
REMARK  status: ('A' for Active; 'I' for Inactive)
REMARK    1  A    between atoms: C_2  and  S_3 
REMARK    2  A    between atoms: S_3  and  C_4 
REMARK    3  A    between atoms: C_9  and  N_10 
REMARK       I    between atoms: N_10  and  C_11 
REMARK       I    between atoms: C_11  and  N_13 
REMARK    4  A    between atoms: N_13  and  C_14 
REMARK    5  A    between atoms: N_18  and  C_19 
ROOT
HETATM    1  N   UNL     1     -39.864 -48.231  11.525  1.00  0.00    -0.337 N 
HETATM    2  C   UNL     1     -41.088 -48.513  10.953  1.00  0.00     0.321 C 
HETATM    3  O   UNL     1     -41.722 -49.523  11.236  1.00  0.00    -0.247 OA
HETATM    4  N   UNL     1     -41.515 -47.510  10.115  1.00  0.00    -0.306 N 
HETATM    5  H   UNL     1     -39.218 -47.640  11.018  1.00  0.00     0.164 HD
HETATM    6  H   UNL     1     -40.981 -46.657  10.073  1.00  0.00     0.171 HD
ENDROOT
BRANCH   1   7
HETATM    7  C   UNL     1     -39.289 -49.153  12.499  1.00  0.00     0.100 C 
HETATM    8  C   UNL     1     -39.330 -48.596  13.943  1.00  0.00     0.070 C 
HETATM    9  C   UNL     1     -38.836 -49.686  14.908  1.00  0.00     0.017 C 
HETATM   10  C   UNL     1     -37.482 -50.291  14.526  1.00  0.00     0.001 C 
HETATM   11  C   UNL     1     -37.403 -50.718  13.061  1.00  0.00     0.002 C 
HETATM   12  C   UNL     1     -37.882 -49.627  12.105  1.00  0.00     0.026 C 
BRANCH   8  13
HETATM   13  S   UNL     1     -38.382 -47.012  14.088  1.00  0.00    -0.163 SA
BRANCH  13  14
HETATM   14  C   UNL     1     -39.760 -45.820  14.139  1.00  0.00     0.070 C 
HETATM   15  C   UNL     1     -39.401 -44.575  13.345  1.00  0.00     0.016 C 
ENDBRANCH  13  14
ENDBRANCH   8  13
ENDBRANCH   1   7
BRANCH   4  16
HETATM   16  C   UNL     1     -42.747 -47.529   9.483  1.00  0.00     0.070 A 
HETATM   17  C   UNL     1     -43.098 -47.827   8.146  1.00  0.00     0.138 A 
HETATM   18  N   UNL     1     -44.415 -47.747   7.932  1.00  0.00    -0.308 N 
HETATM   19  N   UNL     1     -44.908 -47.413   9.135  1.00  0.00    -0.302 N 
ATOM     20  HN  UNL     1     -44.924 -47.903   7.062  1.00  0.00     0.186 HD
HETATM   21  C   UNL     1     -43.946 -47.253  10.096  1.00  0.00     0.141 A 
BRANCH  19  22
HETATM   22  C   UNL     1     -46.343 -47.283   9.306  1.00  0.00     0.143 C 
HETATM   23  C   UNL     1     -47.075 -48.572   8.984  1.00  0.00     0.028 C 
ENDBRANCH  19  22
ENDBRANCH   4  16
TORSDOF 5
ENDMDL
MODEL 2
REMARK VINA RESULT:      -5.8      5.004      7.350
REMARK  5 active torsions:
REMARK  status: ('A' for Active; 'I' for Inactive)
REMARK    1  A    between atoms: C_2  and  S_3 
REMARK    2  A    between atoms: S_3  and  C_4 
REMARK    3  A    between atoms: C_9  and  N_10 
REMARK       I    between atoms: N_10  and  C_11 
REMARK       I    between atoms: C_11  and  N_13 
REMARK    4  A    between atoms: N_13  and  C_14 
REMARK    5  A    between atoms: N_18  and  C_19 
ROOT
HETATM    1  N   UNL     1     -44.207 -51.000  13.089  1.00  0.00    -0.337 N 
HETATM    2  C   UNL     1     -42.976 -50.378  13.132  1.00  0.00     0.321 C 
HETATM    3  O   UNL     1     -42.467 -50.015  14.186  1.00  0.00    -0.247 OA
HETATM    4  N   UNL     1     -42.392 -50.292  11.891  1.00  0.00    -0.306 N 
HETATM    5  H   UNL     1     -44.752 -50.936  12.240  1.00  0.00     0.164 HD
HETATM    6  H   UNL     1     -42.836 -50.758  11.115  1.00  0.00     0.171 HD
ENDROOT
BRANCH   1   7
HETATM    7  C   UNL     1     -44.941 -51.243  14.327  1.00  0.00     0.100 C 
HETATM    8  C   UNL     1     -44.370 -52.434  15.136  1.00  0.00     0.070 C 
HETATM    9  C   UNL     1     -45.112 -52.523  16.478  1.00  0.00     0.017 C 
HETATM   10  C   UNL     1     -46.638 -52.551  16.347  1.00  0.00     0.001 C 
HETATM   11  C   UNL     1     -47.186 -51.451  15.439  1.00  0.00     0.002 C 
HETATM   12  C   UNL     1     -46.454 -51.376  14.101  1.00  0.00     0.026 C 
BRANCH   8  13
HETATM   13  S   UNL     1     -44.434 -54.008  14.163  1.00  0.00    -0.163 SA
BRANCH  13  14
HETATM   14  C   UNL     1     -42.701 -54.551  14.320  1.00  0.00     0.070 C 
HETATM   15  C   UNL     1     -41.861 -53.939  13.211  1.00  0.00     0.016 C 
ENDBRANCH  13  14
ENDBRANCH   8  13
ENDBRANCH   1   7
BRANCH   4  16
HETATM   16  C   UNL     1     -41.124 -49.775  11.689  1.00  0.00     0.070 A 
HETATM   17  C   UNL     1     -40.693 -48.457  11.411  1.00  0.00     0.138 A 
HETATM   18  N   UNL     1     -39.364 -48.365  11.298  1.00  0.00    -0.308 N 
HETATM   19  N   UNL     1     -38.944 -49.621  11.518  1.00  0.00    -0.302 N 
ATOM     20  HN  UNL     1     -38.804 -47.538  11.094  1.00  0.00     0.186 HD
HETATM   21  C   UNL     1     -39.961 -50.509  11.740  1.00  0.00     0.141 A 
BRANCH  19  22
HETATM   22  C   UNL     1     -37.521 -49.904  11.524  1.00  0.00     0.143 C 
HETATM   23  C   UNL     1     -37.155 -50.963  12.547  1.00  0.00     0.028 C 
ENDBRANCH  19  22
ENDBRANCH   4  16
TORSDOF 5
ENDMDL
MODEL 3
REMARK VINA RESULT:      -5.7      4.863      6.685
REMARK  5 active torsions:
REMARK  status: ('A' for Active; 'I' for Inactive)
REMARK    1  A    between atoms: C_2  and  S_3 
REMARK    2  A    between atoms: S_3  and  C_4 
REMARK    3  A    between atoms: C_9  and  N_10 
REMARK       I    between atoms: N_10  and  C_11 
REMARK       I    between atoms: C_11  and  N_13 
REMARK    4  A    between atoms: N_13  and  C_14 
REMARK    5  A    between atoms: N_18  and  C_19 
ROOT
HETATM    1  N   UNL     1     -44.052 -50.865  12.895  1.00  0.00    -0.337 N 
HETATM    2  C   UNL     1     -43.189 -49.789  12.882  1.00  0.00     0.321 C 
HETATM    3  O   UNL     1     -43.018 -49.079  13.866  1.00  0.00    -0.247 OA
HETATM    4  N   UNL     1     -42.519 -49.673  11.686  1.00  0.00    -0.306 N 
HETATM    5  H   UNL     1     -44.453 -51.175  12.020  1.00  0.00     0.164 HD
HETATM    6  H   UNL     1     -42.629 -50.402  11.000  1.00  0.00     0.171 HD
ENDROOT
BRANCH   1   7
HETATM    7  C   UNL     1     -44.795 -51.185  14.110  1.00  0.00     0.100 C 
HETATM    8  C   UNL     1     -44.172 -52.364  14.898  1.00  0.00     0.070 C 
HETATM    9  C   UNL     1     -44.934 -52.533  16.221  1.00  0.00     0.017 C 
HETATM   10  C   UNL     1     -46.453 -52.643  16.057  1.00  0.00     0.001 C 
HETATM   11  C   UNL     1     -47.046 -51.551  15.169  1.00  0.00     0.002 C 
HETATM   12  C   UNL     1     -46.293 -51.396  13.849  1.00  0.00     0.026 C 
BRANCH   8  13
HETATM   13  S   UNL     1     -44.128 -53.911  13.881  1.00  0.00    -0.163 SA
BRANCH  13  14
HETATM   14  C   UNL     1     -42.371 -54.361  14.063  1.00  0.00     0.070 C 
HETATM   15  C   UNL     1     -41.543 -53.669  12.993  1.00  0.00     0.016 C 
ENDBRANCH  13  14
ENDBRANCH   8  13
ENDBRANCH   1   7
BRANCH   4  16
HETATM   16  C   UNL     1     -41.545 -48.716  11.458  1.00  0.00     0.070 A 
HETATM   17  C   UNL     1     -40.137 -48.780  11.570  1.00  0.00     0.138 A 
HETATM   18  N   UNL     1     -39.543 -47.629  11.241  1.00  0.00    -0.308 N 
HETATM   19  N   UNL     1     -40.569 -46.833  10.903  1.00  0.00    -0.302 N 
ATOM     20  HN  UNL     1     -38.547 -47.409  11.244  1.00  0.00     0.186 HD
HETATM   21  C   UNL     1     -41.793 -47.432  11.033  1.00  0.00     0.141 A 
BRANCH  19  22
HETATM   22  C   UNL     1     -40.302 -45.487  10.432  1.00  0.00     0.143 C 
HETATM   23  C   UNL     1     -39.826 -44.576  11.547  1.00  0.00     0.028 C 
ENDBRANCH  19  22
ENDBRANCH   4  16
TORSDOF 5
ENDMDL
MODEL 4
REMARK VINA RESULT:      -5.7      4.387      5.973
REMARK  5 active torsions:
REMARK  status: ('A' for Active; 'I' for Inactive)
REMARK    1  A    between atoms: C_2  and  S_3 
REMARK    2  A    between atoms: S_3  and  C_4 
REMARK    3  A    between atoms: C_9  and  N_10 
REMARK       I    between atoms: N_10  and  C_11 
REMARK       I    between atoms: C_11  and  N_13 
REMARK    4  A    between atoms: N_13  and  C_14 
REMARK    5  A    between atoms: N_18  and  C_19 
ROOT
HETATM    1  N   UNL     1     -42.467 -51.968  12.031  1.00  0.00    -0.337 N 
HETATM    2  C   UNL     1     -42.106 -50.660  12.280  1.00  0.00     0.321 C 
HETATM    3  O   UNL     1     -42.295 -50.128  13.368  1.00  0.00    -0.247 OA
HETATM    4  N   UNL     1     -41.465 -50.082  11.209  1.00  0.00    -0.306 N 
HETATM    5  H   UNL     1     -42.655 -52.244  11.076  1.00  0.00     0.164 HD
HETATM    6  H   UNL     1     -41.231 -50.661  10.418  1.00  0.00     0.171 HD
ENDROOT
BRANCH   1   7
HETATM    7  C   UNL     1     -43.094 -52.760  13.083  1.00  0.00     0.100 C 
HETATM    8  C   UNL     1     -42.072 -53.302  14.112  1.00  0.00     0.070 C 
HETATM    9  C   UNL     1     -42.835 -53.999  15.249  1.00  0.00     0.017 C 
HETATM   10  C   UNL     1     -43.838 -55.054  14.772  1.00  0.00     0.001 C 
HETATM   11  C   UNL     1     -44.759 -54.554  13.661  1.00  0.00     0.002 C 
HETATM   12  C   UNL     1     -43.994 -53.874  12.527  1.00  0.00     0.026 C 
BRANCH   8  13
HETATM   13  S   UNL     1     -40.810 -54.392  13.307  1.00  0.00    -0.163 SA
BRANCH  13  14
HETATM   14  C   UNL     1     -39.297 -53.783  14.119  1.00  0.00     0.070 C 
HETATM   15  C   UNL     1     -39.249 -52.265  14.058  1.00  0.00     0.016 C 
ENDBRANCH  13  14
ENDBRANCH   8  13
ENDBRANCH   1   7
BRANCH   4  16
HETATM   16  C   UNL     1     -40.942 -48.801  11.245  1.00  0.00     0.070 A 
HETATM   17  C   UNL     1     -39.762 -48.297  11.840  1.00  0.00     0.138 A 
HETATM   18  N   UNL     1     -39.604 -46.986  11.633  1.00  0.00    -0.308 N 
HETATM   19  N   UNL     1     -40.673 -46.654  10.893  1.00  0.00    -0.302 N 
ATOM     20  HN  UNL     1     -38.849 -46.382  11.959  1.00  0.00     0.186 HD
HETATM   21  C   UNL     1     -41.517 -47.703  10.647  1.00  0.00     0.141 A 
BRANCH  19  22
HETATM   22  C   UNL     1     -40.819 -45.289  10.425  1.00  0.00     0.143 C 
HETATM   23  C   UNL     1     -39.494 -44.688   9.996  1.00  0.00     0.028 C 
ENDBRANCH  19  22
ENDBRANCH   4  16
TORSDOF 5
ENDMDL
MODEL 5
REMARK VINA RESULT:      -5.4      4.520      5.944
REMARK  5 active torsions:
REMARK  status: ('A' for Active; 'I' for Inactive)
REMARK    1  A    between atoms: C_2  and  S_3 
REMARK    2  A    between atoms: S_3  and  C_4 
REMARK    3  A    between atoms: C_9  and  N_10 
REMARK       I    between atoms: N_10  and  C_11 
REMARK       I    between atoms: C_11  and  N_13 
REMARK    4  A    between atoms: N_13  and  C_14 
REMARK    5  A    between atoms: N_18  and  C_19 
ROOT
HETATM    1  N   UNL     1     -43.051 -50.719  13.610  1.00  0.00    -0.337 N 
HETATM    2  C   UNL     1     -42.356 -50.051  12.622  1.00  0.00     0.321 C 
HETATM    3  O   UNL     1     -41.638 -50.639  11.821  1.00  0.00    -0.247 OA
HETATM    4  N   UNL     1     -42.625 -48.703  12.614  1.00  0.00    -0.306 N 
HETATM    5  H   UNL     1     -43.302 -50.214  14.449  1.00  0.00     0.164 HD
HETATM    6  H   UNL     1     -43.346 -48.352  13.225  1.00  0.00     0.171 HD
ENDROOT
BRANCH   1   7
HETATM    7  C   UNL     1     -42.942 -52.169  13.720  1.00  0.00     0.100 C 
HETATM    8  C   UNL     1     -44.320 -52.864  13.837  1.00  0.00     0.070 C 
HETATM    9  C   UNL     1     -44.112 -54.386  13.806  1.00  0.00     0.017 C 
HETATM   10  C   UNL     1     -43.084 -54.896  14.820  1.00  0.00     0.001 C 
HETATM   11  C   UNL     1     -41.769 -54.119  14.791  1.00  0.00     0.002 C 
HETATM   12  C   UNL     1     -41.981 -52.607  14.836  1.00  0.00     0.026 C 
BRANCH   8  13
HETATM   13  S   UNL     1     -45.247 -52.287  15.332  1.00  0.00    -0.163 SA
BRANCH  13  14
HETATM   14  C   UNL     1     -46.672 -51.479  14.532  1.00  0.00     0.070 C 
HETATM   15  C   UNL     1     -46.544 -51.577  13.021  1.00  0.00     0.016 C 
ENDBRANCH  13  14
ENDBRANCH   8  13
ENDBRANCH   1   7
BRANCH   4  16
HETATM   16  C   UNL     1     -42.105 -47.835  11.669  1.00  0.00     0.070 A 
HETATM   17  C   UNL     1     -42.535 -47.527  10.357  1.00  0.00     0.138 A 
HETATM   18  N   UNL     1     -41.759 -46.613   9.766  1.00  0.00    -0.308 N 
HETATM   19  N   UNL     1     -40.843 -46.325  10.704  1.00  0.00    -0.302 N 
ATOM     20  HN  UNL     1     -41.844 -46.226   8.826  1.00  0.00     0.186 HD
HETATM   21  C   UNL     1     -40.996 -47.045  11.858  1.00  0.00     0.141 A 
BRANCH  19  22
HETATM   22  C   UNL     1     -39.841 -45.312  10.432  1.00  0.00     0.143 C 
HETATM   23  C   UNL     1     -40.196 -43.976  11.056  1.00  0.00     0.028 C 
ENDBRANCH  19  22
ENDBRANCH   4  16
TORSDOF 5
ENDMDL
MODEL 6
REMARK VINA RESULT:      -5.1      3.842      4.728
REMARK  5 active torsions:
REMARK  status: ('A' for Active; 'I' for Inactive)
REMARK    1  A    between atoms: C_2  and  S_3 
REMARK    2  A    between atoms: S_3  and  C_4 
REMARK    3  A    between atoms: C_9  and  N_10 
REMARK       I    between atoms: N_10  and  C_11 
REMARK       I    between atoms: C_11  and  N_13 
REMARK    4  A    between atoms: N_13  and  C_14 
REMARK    5  A    between atoms: N_18  and  C_19 
ROOT
HETATM    1  N   UNL     1     -41.555 -50.641  13.272  1.00  0.00    -0.337 N 
HETATM    2  C   UNL     1     -41.463 -49.800  12.181  1.00  0.00     0.321 C 
HETATM    3  O   UNL     1     -40.787 -50.080  11.199  1.00  0.00    -0.247 OA
HETATM    4  N   UNL     1     -42.261 -48.688  12.312  1.00  0.00    -0.306 N 
HETATM    5  H   UNL     1     -41.780 -50.241  14.173  1.00  0.00     0.164 HD
HETATM    6  H   UNL     1     -42.889 -48.634  13.098  1.00  0.00     0.171 HD
ENDROOT
BRANCH   1   7
HETATM    7  C   UNL     1     -40.831 -51.908  13.274  1.00  0.00     0.100 C 
HETATM    8  C   UNL     1     -41.776 -53.135  13.278  1.00  0.00     0.070 C 
HETATM    9  C   UNL     1     -40.931 -54.411  13.139  1.00  0.00     0.017 C 
HETATM   10  C   UNL     1     -39.789 -54.517  14.153  1.00  0.00     0.001 C 
HETATM   11  C   UNL     1     -38.938 -53.251  14.240  1.00  0.00     0.002 C 
HETATM   12  C   UNL     1     -39.781 -51.987  14.392  1.00  0.00     0.026 C 
BRANCH   8  13
HETATM   13  S   UNL     1     -42.869 -53.146  14.773  1.00  0.00    -0.163 SA
BRANCH  13  14
HETATM   14  C   UNL     1     -44.505 -53.180  13.972  1.00  0.00     0.070 C 
HETATM   15  C   UNL     1     -44.813 -54.583  13.477  1.00  0.00     0.016 C 
ENDBRANCH  13  14
ENDBRANCH   8  13
ENDBRANCH   1   7
BRANCH   4  16
HETATM   16  C   UNL     1     -42.395 -47.735  11.317  1.00  0.00     0.070 A 
HETATM   17  C   UNL     1     -41.442 -46.875  10.722  1.00  0.00     0.138 A 
HETATM   18  N   UNL     1     -41.974 -46.102   9.770  1.00  0.00    -0.308 N 
HETATM   19  N   UNL     1     -43.263 -46.476   9.746  1.00  0.00    -0.302 N 
ATOM     20  HN  UNL     1     -41.511 -45.395   9.199  1.00  0.00     0.186 HD
HETATM   21  C   UNL     1     -43.571 -47.441  10.667  1.00  0.00     0.141 A 
BRANCH  19  22
HETATM   22  C   UNL     1     -44.161 -45.874   8.780  1.00  0.00     0.143 C 
HETATM   23  C   UNL     1     -45.585 -46.375   8.934  1.00  0.00     0.028 C 
ENDBRANCH  19  22
ENDBRANCH   4  16
TORSDOF 5
ENDMDL
MODEL 7
REMARK VINA RESULT:      -4.7      7.138     10.360
REMARK  5 active torsions:
REMARK  status: ('A' for Active; 'I' for Inactive)
REMARK    1  A    between atoms: C_2  and  S_3 
REMARK    2  A    between atoms: S_3  and  C_4 
REMARK    3  A    between atoms: C_9  and  N_10 
REMARK       I    between atoms: N_10  and  C_11 
REMARK       I    between atoms: C_11  and  N_13 
REMARK    4  A    between atoms: N_13  and  C_14 
REMARK    5  A    between atoms: N_18  and  C_19 
ROOT
HETATM    1  N   UNL     1     -43.571 -52.722  15.922  1.00  0.00    -0.337 N 
HETATM    2  C   UNL     1     -43.155 -53.964  16.358  1.00  0.00     0.321 C 
HETATM    3  O   UNL     1     -43.688 -55.000  15.977  1.00  0.00    -0.247 OA
HETATM    4  N   UNL     1     -42.059 -53.886  17.185  1.00  0.00    -0.306 N 
HETATM    5  H   UNL     1     -43.395 -51.919  16.511  1.00  0.00     0.164 HD
HETATM    6  H   UNL     1     -41.613 -52.992  17.311  1.00  0.00     0.171 HD
ENDROOT
BRANCH   1   7
HETATM    7  C   UNL     1     -44.678 -52.619  14.977  1.00  0.00     0.100 C 
HETATM    8  C   UNL     1     -44.221 -52.758  13.504  1.00  0.00     0.070 C 
HETATM    9  C   UNL     1     -45.463 -52.776  12.600  1.00  0.00     0.017 C 
HETATM   10  C   UNL     1     -46.423 -51.605  12.833  1.00  0.00     0.001 C 
HETATM   11  C   UNL     1     -46.766 -51.390  14.306  1.00  0.00     0.002 C 
HETATM   12  C   UNL     1     -45.528 -51.359  15.199  1.00  0.00     0.026 C 
BRANCH   8  13
HETATM   13  S   UNL     1     -43.005 -51.439  13.044  1.00  0.00    -0.163 SA
BRANCH  13  14
HETATM   14  C   UNL     1     -41.724 -52.455  12.237  1.00  0.00     0.070 C 
HETATM   15  C   UNL     1     -41.541 -53.759  12.995  1.00  0.00     0.016 C 
ENDBRANCH  13  14
ENDBRANCH   8  13
ENDBRANCH   1   7
BRANCH   4  16
HETATM   16  C   UNL     1     -41.415 -55.002  17.690  1.00  0.00     0.070 A 
HETATM   17  C   UNL     1     -41.862 -56.010  18.576  1.00  0.00     0.138 A 
HETATM   18  N   UNL     1     -40.930 -56.938  18.809  1.00  0.00    -0.308 N 
HETATM   19  N   UNL     1     -39.891 -56.534  18.062  1.00  0.00    -0.302 N 
ATOM     20  HN  UNL     1     -40.993 -57.759  19.412  1.00  0.00     0.186 HD
HETATM   21  C   UNL     1     -40.125 -55.368  17.384  1.00  0.00     0.141 A 
BRANCH  19  22
HETATM   22  C   UNL     1     -38.686 -57.341  18.021  1.00  0.00     0.143 C 
HETATM   23  C   UNL     1     -37.446 -56.502  17.778  1.00  0.00     0.028 C 
ENDBRANCH  19  22
ENDBRANCH   4  16
TORSDOF 5
ENDMDL
MODEL 8
REMARK VINA RESULT:      -4.7      4.755      6.427
REMARK  5 active torsions:
REMARK  status: ('A' for Active; 'I' for Inactive)
REMARK    1  A    between atoms: C_2  and  S_3 
REMARK    2  A    between atoms: S_3  and  C_4 
REMARK    3  A    between atoms: C_9  and  N_10 
REMARK       I    between atoms: N_10  and  C_11 
REMARK       I    between atoms: C_11  and  N_13 
REMARK    4  A    between atoms: N_13  and  C_14 
REMARK    5  A    between atoms: N_18  and  C_19 
ROOT
HETATM    1  N   UNL     1     -42.679 -52.627  11.995  1.00  0.00    -0.337 N 
HETATM    2  C   UNL     1     -41.883 -51.565  12.370  1.00  0.00     0.321 C 
HETATM    3  O   UNL     1     -41.457 -51.442  13.512  1.00  0.00    -0.247 OA
HETATM    4  N   UNL     1     -41.585 -50.737  11.312  1.00  0.00    -0.306 N 
HETATM    5  H   UNL     1     -43.305 -52.509  11.209  1.00  0.00     0.164 HD
HETATM    6  H   UNL     1     -41.868 -51.018  10.387  1.00  0.00     0.171 HD
ENDROOT
BRANCH   1   7
HETATM    7  C   UNL     1     -43.036 -53.648  12.975  1.00  0.00     0.100 C 
HETATM    8  C   UNL     1     -44.496 -53.514  13.472  1.00  0.00     0.070 C 
HETATM    9  C   UNL     1     -44.819 -54.706  14.387  1.00  0.00     0.017 C 
HETATM   10  C   UNL     1     -43.807 -54.919  15.516  1.00  0.00     0.001 C 
HETATM   11  C   UNL     1     -42.356 -54.917  15.036  1.00  0.00     0.002 C 
HETATM   12  C   UNL     1     -42.036 -53.724  14.139  1.00  0.00     0.026 C 
BRANCH   8  13
HETATM   13  S   UNL     1     -44.789 -51.875  14.282  1.00  0.00    -0.163 SA
BRANCH  13  14
HETATM   14  C   UNL     1     -46.431 -51.472  13.600  1.00  0.00     0.070 C 
HETATM   15  C   UNL     1     -46.581 -52.075  12.213  1.00  0.00     0.016 C 
ENDBRANCH  13  14
ENDBRANCH   8  13
ENDBRANCH   1   7
BRANCH   4  16
HETATM   16  C   UNL     1     -40.742 -49.645  11.424  1.00  0.00     0.070 A 
HETATM   17  C   UNL     1     -39.344 -49.569  11.626  1.00  0.00     0.138 A 
HETATM   18  N   UNL     1     -38.899 -48.309  11.662  1.00  0.00    -0.308 N 
HETATM   19  N   UNL     1     -40.009 -47.579  11.468  1.00  0.00    -0.302 N 
ATOM     20  HN  UNL     1     -37.944 -47.982  11.803  1.00  0.00     0.186 HD
HETATM   21  C   UNL     1     -41.144 -48.333  11.337  1.00  0.00     0.141 A 
BRANCH  19  22
HETATM   22  C   UNL     1     -39.906 -46.135  11.393  1.00  0.00     0.143 C 
HETATM   23  C   UNL     1     -40.993 -45.529  10.525  1.00  0.00     0.028 C 
ENDBRANCH  19  22
ENDBRANCH   4  16
TORSDOF 5
ENDMDL
MODEL 9
REMARK VINA RESULT:      -4.7      3.740      5.372
REMARK  5 active torsions:
REMARK  status: ('A' for Active; 'I' for Inactive)
REMARK    1  A    between atoms: C_2  and  S_3 
REMARK    2  A    between atoms: S_3  and  C_4 
REMARK    3  A    between atoms: C_9  and  N_10 
REMARK       I    between atoms: N_10  and  C_11 
REMARK       I    between atoms: C_11  and  N_13 
REMARK    4  A    between atoms: N_13  and  C_14 
REMARK    5  A    between atoms: N_18  and  C_19 
ROOT
HETATM    1  N   UNL     1     -41.454 -50.657  13.158  1.00  0.00    -0.337 N 
HETATM    2  C   UNL     1     -40.978 -49.631  12.368  1.00  0.00     0.321 C 
HETATM    3  O   UNL     1     -39.969 -49.751  11.683  1.00  0.00    -0.247 OA
HETATM    4  N   UNL     1     -41.798 -48.527  12.396  1.00  0.00    -0.306 N 
HETATM    5  H   UNL     1     -42.018 -50.425  13.964  1.00  0.00     0.164 HD
HETATM    6  H   UNL     1     -42.680 -48.595  12.878  1.00  0.00     0.171 HD
ENDROOT
BRANCH   1   7
HETATM    7  C   UNL     1     -40.748 -51.933  13.192  1.00  0.00     0.100 C 
HETATM    8  C   UNL     1     -41.709 -53.147  13.224  1.00  0.00     0.070 C 
HETATM    9  C   UNL     1     -40.882 -54.437  13.118  1.00  0.00     0.017 C 
HETATM   10  C   UNL     1     -39.743 -54.535  14.137  1.00  0.00     0.001 C 
HETATM   11  C   UNL     1     -38.875 -53.279  14.195  1.00  0.00     0.002 C 
HETATM   12  C   UNL     1     -39.702 -52.000  14.315  1.00  0.00     0.026 C 
BRANCH   8  13
HETATM   13  S   UNL     1     -42.805 -53.106  14.716  1.00  0.00    -0.163 SA
BRANCH  13  14
HETATM   14  C   UNL     1     -44.434 -53.296  13.920  1.00  0.00     0.070 C 
HETATM   15  C   UNL     1     -44.280 -53.274  12.408  1.00  0.00     0.016 C 
ENDBRANCH  13  14
ENDBRANCH   8  13
ENDBRANCH   1   7
BRANCH   4  16
HETATM   16  C   UNL     1     -41.570 -47.399  11.627  1.00  0.00     0.070 A 
HETATM   17  C   UNL     1     -41.942 -47.092  10.297  1.00  0.00     0.138 A 
HETATM   18  N   UNL     1     -41.540 -45.874   9.921  1.00  0.00    -0.308 N 
HETATM   19  N   UNL     1     -40.924 -45.396  11.013  1.00  0.00    -0.302 N 
ATOM     20  HN  UNL     1     -41.670 -45.418   9.018  1.00  0.00     0.186 HD
HETATM   21  C   UNL     1     -40.899 -46.279  12.059  1.00  0.00     0.141 A 
BRANCH  19  22
HETATM   22  C   UNL     1     -40.389 -44.048  10.996  1.00  0.00     0.143 C 
HETATM   23  C   UNL     1     -39.726 -43.680  12.310  1.00  0.00     0.028 C 
ENDBRANCH  19  22
ENDBRANCH   4  16
TORSDOF 5
ENDMDL
