MODEL 1
REMARK VINA RESULT:      -6.0      0.000      0.000
REMARK  5 active torsions:
REMARK  status: ('A' for Active; 'I' for Inactive)
REMARK    1  A    between atoms: N_1  and  C_2 
REMARK    2  A    between atoms: C_5  and  N_6 
REMARK    3  A    between atoms: C_9  and  S_10 
REMARK    4  A    between atoms: S_10  and  C_11 
REMARK    5  A    between atoms: C_11  and  C_12 
ROOT
HETATM    1  C   UNL     1     -43.510 -48.039   7.985  1.00  0.00     0.159 A 
HETATM    2  N   UNL     1     -44.800 -47.792   7.834  1.00  0.00    -0.309 N 
ATOM      3  HN  UNL     1     -45.294 -47.979   6.961  1.00  0.00     0.171 HD
HETATM    4  C   UNL     1     -45.404 -47.285   8.896  1.00  0.00     0.159 A 
HETATM    5  N   UNL     1     -44.825 -47.028  10.056  1.00  0.00    -0.313 N 
ATOM      6  HN  UNL     1     -45.329 -46.643  10.854  1.00  0.00     0.170 HD
HETATM    7  C   UNL     1     -43.527 -47.316  10.090  1.00  0.00     0.148 A 
HETATM    8  N   UNL     1     -42.812 -47.800   9.077  1.00  0.00    -0.313 N 
ATOM      9  HN  UNL     1     -41.808 -47.972   9.141  1.00  0.00     0.170 HD
ENDROOT
BRANCH   7  10
HETATM   10  S   UNL     1     -42.620 -46.919  11.564  1.00  0.00    -0.091 SA
BRANCH  10  11
HETATM   11  C   UNL     1     -40.933 -46.799  10.873  1.00  0.00     0.114 C 
BRANCH  11  12
HETATM   12  C   UNL     1     -40.237 -45.436  10.974  1.00  0.00     0.131 C 
HETATM   13  C   UNL     1     -39.642 -45.059  12.322  1.00  0.00     0.035 C 
HETATM   14  C   UNL     1     -39.815 -43.556  12.408  1.00  0.00     0.029 C 
HETATM   15  C   UNL     1     -40.552 -43.166  11.144  1.00  0.00     0.168 C 
HETATM   16  O   UNL     1     -41.120 -44.365  10.613  1.00  0.00    -0.385 OA
ENDBRANCH  11  12
ENDBRANCH  10  11
ENDBRANCH   7  10
BRANCH   4  17
HETATM   17  N   UNL     1     -46.756 -47.015   8.780  1.00  0.00    -0.274 NA
HETATM   18  H   UNL     1     -46.905 -46.015   8.771  1.00  0.00     0.127 HD
HETATM   19  H   UNL     1     -47.152 -47.545   8.016  1.00  0.00     0.127 HD
ENDBRANCH   4  17
BRANCH   1  20
HETATM   20  N   UNL     1     -42.825 -48.537   6.892  1.00  0.00    -0.274 NA
HETATM   21  H   UNL     1     -42.020 -49.063   7.204  1.00  0.00     0.127 HD
HETATM   22  H   UNL     1     -43.470 -49.012   6.275  1.00  0.00     0.127 HD
ENDBRANCH   1  20
TORSDOF 5
ENDMDL
MODEL 2
REMARK VINA RESULT:      -6.0      1.920      2.847
REMARK  5 active torsions:
REMARK  status: ('A' for Active; 'I' for Inactive)
REMARK    1  A    between atoms: N_1  and  C_2 
REMARK    2  A    between atoms: C_5  and  N_6 
REMARK    3  A    between atoms: C_9  and  S_10 
REMARK    4  A    between atoms: S_10  and  C_11 
REMARK    5  A    between atoms: C_11  and  C_12 
ROOT
HETATM    1  C   UNL     1     -43.508 -47.870   7.919  1.00  0.00     0.159 A 
HETATM    2  N   UNL     1     -44.830 -47.852   7.880  1.00  0.00    -0.309 N 
ATOM      3  HN  UNL     1     -45.363 -48.374   7.184  1.00  0.00     0.171 HD
HETATM    4  C   UNL     1     -45.410 -47.108   8.807  1.00  0.00     0.159 A 
HETATM    5  N   UNL     1     -44.778 -46.416   9.739  1.00  0.00    -0.313 N 
ATOM      6  HN  UNL     1     -45.264 -45.860  10.442  1.00  0.00     0.170 HD
HETATM    7  C   UNL     1     -43.453 -46.510   9.680  1.00  0.00     0.148 A 
HETATM    8  N   UNL     1     -42.763 -47.202   8.777  1.00  0.00    -0.313 N 
ATOM      9  HN  UNL     1     -41.743 -47.214   8.750  1.00  0.00     0.170 HD
ENDROOT
BRANCH   7  10
HETATM   10  S   UNL     1     -42.494 -45.543  10.819  1.00  0.00    -0.091 SA
BRANCH  10  11
HETATM   11  C   UNL     1     -40.892 -46.413  10.701  1.00  0.00     0.114 C 
BRANCH  11  12
HETATM   12  C   UNL     1     -40.744 -47.708  11.509  1.00  0.00     0.131 C 
HETATM   13  C   UNL     1     -39.379 -47.996  12.115  1.00  0.00     0.035 C 
HETATM   14  C   UNL     1     -39.253 -49.505  12.069  1.00  0.00     0.029 C 
HETATM   15  C   UNL     1     -40.514 -49.991  11.387  1.00  0.00     0.168 C 
HETATM   16  O   UNL     1     -41.085 -48.860  10.726  1.00  0.00    -0.385 OA
ENDBRANCH  11  12
ENDBRANCH  10  11
ENDBRANCH   7  10
BRANCH   4  17
HETATM   17  N   UNL     1     -46.793 -47.065   8.802  1.00  0.00    -0.274 NA
HETATM   18  H   UNL     1     -47.121 -46.738   7.903  1.00  0.00     0.127 HD
HETATM   19  H   UNL     1     -47.169 -47.940   9.139  1.00  0.00     0.127 HD
ENDBRANCH   4  17
BRANCH   1  20
HETATM   20  N   UNL     1     -42.853 -48.604   6.948  1.00  0.00    -0.274 NA
HETATM   21  H   UNL     1     -42.929 -48.136   6.056  1.00  0.00     0.127 HD
HETATM   22  H   UNL     1     -41.920 -48.831   7.267  1.00  0.00     0.127 HD
ENDBRANCH   1  20
TORSDOF 5
ENDMDL
MODEL 3
REMARK VINA RESULT:      -5.9      0.340      2.091
REMARK  5 active torsions:
REMARK  status: ('A' for Active; 'I' for Inactive)
REMARK    1  A    between atoms: N_1  and  C_2 
REMARK    2  A    between atoms: C_5  and  N_6 
REMARK    3  A    between atoms: C_9  and  S_10 
REMARK    4  A    between atoms: S_10  and  C_11 
REMARK    5  A    between atoms: C_11  and  C_12 
ROOT
HETATM    1  C   UNL     1     -45.426 -47.334   8.864  1.00  0.00     0.159 A 
HETATM    2  N   UNL     1     -44.816 -47.851   7.810  1.00  0.00    -0.309 N 
ATOM      3  HN  UNL     1     -45.314 -48.086   6.950  1.00  0.00     0.171 HD
HETATM    4  C   UNL     1     -43.514 -48.041   7.950  1.00  0.00     0.159 A 
HETATM    5  N   UNL     1     -42.810 -47.751   9.030  1.00  0.00    -0.313 N 
ATOM      6  HN  UNL     1     -41.805 -47.907   9.096  1.00  0.00     0.170 HD
HETATM    7  C   UNL     1     -43.529 -47.238  10.024  1.00  0.00     0.148 A 
HETATM    8  N   UNL     1     -44.843 -47.031  10.006  1.00  0.00    -0.313 N 
ATOM      9  HN  UNL     1     -45.357 -46.667  10.810  1.00  0.00     0.170 HD
ENDROOT
BRANCH   7  10
HETATM   10  S   UNL     1     -42.709 -46.903  11.564  1.00  0.00    -0.091 SA
BRANCH  10  11
HETATM   11  C   UNL     1     -41.011 -46.606  10.959  1.00  0.00     0.114 C 
BRANCH  11  12
HETATM   12  C   UNL     1     -40.556 -45.145  10.858  1.00  0.00     0.131 C 
HETATM   13  C   UNL     1     -39.677 -44.612  11.979  1.00  0.00     0.035 C 
HETATM   14  C   UNL     1     -40.070 -43.155  12.112  1.00  0.00     0.029 C 
HETATM   15  C   UNL     1     -41.189 -42.951  11.112  1.00  0.00     0.168 C 
HETATM   16  O   UNL     1     -41.673 -44.250  10.766  1.00  0.00    -0.385 OA
ENDBRANCH  11  12
ENDBRANCH  10  11
ENDBRANCH   7  10
BRANCH   4  17
HETATM   17  N   UNL     1     -42.839 -48.578   6.869  1.00  0.00    -0.274 NA
HETATM   18  H   UNL     1     -43.255 -49.463   6.610  1.00  0.00     0.127 HD
HETATM   19  H   UNL     1     -42.743 -47.885   6.140  1.00  0.00     0.127 HD
ENDBRANCH   4  17
BRANCH   1  20
HETATM   20  N   UNL     1     -46.793 -47.149   8.780  1.00  0.00    -0.274 NA
HETATM   21  H   UNL     1     -47.214 -47.928   8.292  1.00  0.00     0.127 HD
HETATM   22  H   UNL     1     -47.161 -46.931   9.696  1.00  0.00     0.127 HD
ENDBRANCH   1  20
TORSDOF 5
ENDMDL
MODEL 4
REMARK VINA RESULT:      -5.8      3.302      4.472
REMARK  5 active torsions:
REMARK  status: ('A' for Active; 'I' for Inactive)
REMARK    1  A    between atoms: N_1  and  C_2 
REMARK    2  A    between atoms: C_5  and  N_6 
REMARK    3  A    between atoms: C_9  and  S_10 
REMARK    4  A    between atoms: S_10  and  C_11 
REMARK    5  A    between atoms: C_11  and  C_12 
ROOT
HETATM    1  C   UNL     1     -43.665 -45.823   9.304  1.00  0.00     0.159 A 
HETATM    2  N   UNL     1     -43.675 -46.494   8.164  1.00  0.00    -0.309 N 
ATOM      3  HN  UNL     1     -44.093 -46.118   7.312  1.00  0.00     0.171 HD
HETATM    4  C   UNL     1     -43.105 -47.687   8.208  1.00  0.00     0.159 A 
HETATM    5  N   UNL     1     -42.541 -48.226   9.273  1.00  0.00    -0.313 N 
ATOM      6  HN  UNL     1     -42.105 -49.148   9.264  1.00  0.00     0.170 HD
HETATM    7  C   UNL     1     -42.591 -47.462  10.360  1.00  0.00     0.148 A 
HETATM    8  N   UNL     1     -43.162 -46.262  10.440  1.00  0.00    -0.313 N 
ATOM      9  HN  UNL     1     -43.206 -45.727  11.308  1.00  0.00     0.170 HD
ENDROOT
BRANCH   7  10
HETATM   10  S   UNL     1     -41.954 -48.123  11.880  1.00  0.00    -0.091 SA
BRANCH  10  11
HETATM   11  C   UNL     1     -40.631 -49.201  11.226  1.00  0.00     0.114 C 
BRANCH  11  12
HETATM   12  C   UNL     1     -39.464 -49.516  12.168  1.00  0.00     0.131 C 
HETATM   13  C   UNL     1     -38.096 -49.724  11.534  1.00  0.00     0.035 C 
HETATM   14  C   UNL     1     -37.425 -50.763  12.408  1.00  0.00     0.029 C 
HETATM   15  C   UNL     1     -38.459 -51.138  13.449  1.00  0.00     0.168 C 
HETATM   16  O   UNL     1     -39.722 -50.687  12.955  1.00  0.00    -0.385 OA
ENDBRANCH  11  12
ENDBRANCH  10  11
ENDBRANCH   7  10
BRANCH   4  17
HETATM   17  N   UNL     1     -43.094 -48.419   7.034  1.00  0.00    -0.274 NA
HETATM   18  H   UNL     1     -43.476 -49.340   7.202  1.00  0.00     0.127 HD
HETATM   19  H   UNL     1     -43.503 -47.881   6.284  1.00  0.00     0.127 HD
ENDBRANCH   4  17
BRANCH   1  20
HETATM   20  N   UNL     1     -44.280 -44.585   9.319  1.00  0.00    -0.274 NA
HETATM   21  H   UNL     1     -44.592 -44.347   8.387  1.00  0.00     0.127 HD
HETATM   22  H   UNL     1     -44.974 -44.561  10.054  1.00  0.00     0.127 HD
ENDBRANCH   1  20
TORSDOF 5
ENDMDL
MODEL 5
REMARK VINA RESULT:      -5.8      1.576      1.761
REMARK  5 active torsions:
REMARK  status: ('A' for Active; 'I' for Inactive)
REMARK    1  A    between atoms: N_1  and  C_2 
REMARK    2  A    between atoms: C_5  and  N_6 
REMARK    3  A    between atoms: C_9  and  S_10 
REMARK    4  A    between atoms: S_10  and  C_11 
REMARK    5  A    between atoms: C_11  and  C_12 
ROOT
HETATM    1  C   UNL     1     -43.188 -47.593   8.388  1.00  0.00     0.159 A 
HETATM    2  N   UNL     1     -43.615 -46.346   8.284  1.00  0.00    -0.309 N 
ATOM      3  HN  UNL     1     -43.848 -45.921   7.386  1.00  0.00     0.171 HD
HETATM    4  C   UNL     1     -43.718 -45.689   9.428  1.00  0.00     0.159 A 
HETATM    5  N   UNL     1     -43.441 -46.182  10.621  1.00  0.00    -0.313 N 
ATOM      6  HN  UNL     1     -43.541 -45.643  11.481  1.00  0.00     0.170 HD
HETATM    7  C   UNL     1     -43.021 -47.443  10.603  1.00  0.00     0.148 A 
HETATM    8  N   UNL     1     -42.851 -48.190   9.515  1.00  0.00    -0.313 N 
ATOM      9  HN  UNL     1     -42.491 -49.144   9.548  1.00  0.00     0.170 HD
ENDROOT
BRANCH   7  10
HETATM   10  S   UNL     1     -42.521 -48.182  12.139  1.00  0.00    -0.091 SA
BRANCH  10  11
HETATM   11  C   UNL     1     -40.713 -48.244  11.887  1.00  0.00     0.114 C 
BRANCH  11  12
HETATM   12  C   UNL     1     -39.989 -46.903  11.720  1.00  0.00     0.131 C 
HETATM   13  C   UNL     1     -40.268 -45.830  12.762  1.00  0.00     0.035 C 
HETATM   14  C   UNL     1     -40.188 -44.525  11.996  1.00  0.00     0.029 C 
HETATM   15  C   UNL     1     -39.933 -44.922  10.557  1.00  0.00     0.168 C 
HETATM   16  O   UNL     1     -40.270 -46.306  10.447  1.00  0.00    -0.385 OA
ENDBRANCH  11  12
ENDBRANCH  10  11
ENDBRANCH   7  10
BRANCH   4  17
HETATM   17  N   UNL     1     -44.164 -44.381   9.361  1.00  0.00    -0.274 NA
HETATM   18  H   UNL     1     -43.875 -43.965   8.486  1.00  0.00     0.127 HD
HETATM   19  H   UNL     1     -45.148 -44.337   9.588  1.00  0.00     0.127 HD
ENDBRANCH   4  17
BRANCH   1  20
HETATM   20  N   UNL     1     -43.029 -48.312   7.218  1.00  0.00    -0.274 NA
HETATM   21  H   UNL     1     -42.461 -47.785   6.569  1.00  0.00     0.127 HD
HETATM   22  H   UNL     1     -42.723 -49.250   7.436  1.00  0.00     0.127 HD
ENDBRANCH   1  20
TORSDOF 5
ENDMDL
MODEL 6
REMARK VINA RESULT:      -5.7      3.319      4.161
REMARK  5 active torsions:
REMARK  status: ('A' for Active; 'I' for Inactive)
REMARK    1  A    between atoms: N_1  and  C_2 
REMARK    2  A    between atoms: C_5  and  N_6 
REMARK    3  A    between atoms: C_9  and  S_10 
REMARK    4  A    between atoms: S_10  and  C_11 
REMARK    5  A    between atoms: C_11  and  C_12 
ROOT
HETATM    1  C   UNL     1     -43.053 -47.628   8.359  1.00  0.00     0.159 A 
HETATM    2  N   UNL     1     -43.566 -46.410   8.300  1.00  0.00    -0.309 N 
ATOM      3  HN  UNL     1     -43.931 -46.012   7.435  1.00  0.00     0.171 HD
HETATM    4  C   UNL     1     -43.572 -45.746   9.445  1.00  0.00     0.159 A 
HETATM    5  N   UNL     1     -43.124 -46.206  10.599  1.00  0.00    -0.313 N 
ATOM      6  HN  UNL     1     -43.153 -45.663  11.462  1.00  0.00     0.170 HD
HETATM    7  C   UNL     1     -42.632 -47.439  10.537  1.00  0.00     0.148 A 
HETATM    8  N   UNL     1     -42.548 -48.188   9.440  1.00  0.00    -0.313 N 
ATOM      9  HN  UNL     1     -42.127 -49.118   9.435  1.00  0.00     0.170 HD
ENDROOT
BRANCH   7  10
HETATM   10  S   UNL     1     -41.907 -48.127  12.005  1.00  0.00    -0.091 SA
BRANCH  10  11
HETATM   11  C   UNL     1     -40.575 -49.131  11.261  1.00  0.00     0.114 C 
BRANCH  11  12
HETATM   12  C   UNL     1     -39.383 -49.480  12.160  1.00  0.00     0.131 C 
HETATM   13  C   UNL     1     -38.052 -49.749  11.475  1.00  0.00     0.035 C 
HETATM   14  C   UNL     1     -37.386 -50.804  12.336  1.00  0.00     0.029 C 
HETATM   15  C   UNL     1     -38.392 -51.126  13.421  1.00  0.00     0.168 C 
HETATM   16  O   UNL     1     -39.655 -50.631  12.971  1.00  0.00    -0.385 OA
ENDBRANCH  11  12
ENDBRANCH  10  11
ENDBRANCH   7  10
BRANCH   4  17
HETATM   17  N   UNL     1     -44.103 -44.468   9.425  1.00  0.00    -0.274 NA
HETATM   18  H   UNL     1     -44.685 -44.352   8.606  1.00  0.00     0.127 HD
HETATM   19  H   UNL     1     -44.520 -44.252  10.319  1.00  0.00     0.127 HD
ENDBRANCH   4  17
BRANCH   1  20
HETATM   20  N   UNL     1     -42.992 -48.350   7.183  1.00  0.00    -0.274 NA
HETATM   21  H   UNL     1     -42.048 -48.331   6.819  1.00  0.00     0.127 HD
HETATM   22  H   UNL     1     -43.409 -49.260   7.322  1.00  0.00     0.127 HD
ENDBRANCH   1  20
TORSDOF 5
ENDMDL
MODEL 7
REMARK VINA RESULT:      -5.6      6.391      8.265
REMARK  5 active torsions:
REMARK  status: ('A' for Active; 'I' for Inactive)
REMARK    1  A    between atoms: N_1  and  C_2 
REMARK    2  A    between atoms: C_5  and  N_6 
REMARK    3  A    between atoms: C_9  and  S_10 
REMARK    4  A    between atoms: S_10  and  C_11 
REMARK    5  A    between atoms: C_11  and  C_12 
ROOT
HETATM    1  C   UNL     1     -41.386 -50.100  11.420  1.00  0.00     0.159 A 
HETATM    2  N   UNL     1     -40.783 -51.256  11.199  1.00  0.00    -0.309 N 
ATOM      3  HN  UNL     1     -40.020 -51.355  10.528  1.00  0.00     0.171 HD
HETATM    4  C   UNL     1     -41.238 -52.274  11.910  1.00  0.00     0.159 A 
HETATM    5  N   UNL     1     -42.214 -52.211  12.799  1.00  0.00    -0.313 N 
ATOM      6  HN  UNL     1     -42.531 -53.020  13.333  1.00  0.00     0.170 HD
HETATM    7  C   UNL     1     -42.745 -51.000  12.937  1.00  0.00     0.148 A 
HETATM    8  N   UNL     1     -42.388 -49.913  12.257  1.00  0.00    -0.313 N 
ATOM      9  HN  UNL     1     -42.851 -49.011  12.372  1.00  0.00     0.170 HD
ENDROOT
BRANCH   7  10
HETATM   10  S   UNL     1     -44.132 -50.813  14.030  1.00  0.00    -0.091 SA
BRANCH  10  11
HETATM   11  C   UNL     1     -45.476 -51.396  12.938  1.00  0.00     0.114 C 
BRANCH  11  12
HETATM   12  C   UNL     1     -45.975 -52.829  13.157  1.00  0.00     0.131 C 
HETATM   13  C   UNL     1     -46.725 -53.113  14.450  1.00  0.00     0.035 C 
HETATM   14  C   UNL     1     -46.353 -54.540  14.799  1.00  0.00     0.029 C 
HETATM   15  C   UNL     1     -45.369 -54.970  13.732  1.00  0.00     0.168 C 
HETATM   16  O   UNL     1     -44.900 -53.776  13.102  1.00  0.00    -0.385 OA
ENDBRANCH  11  12
ENDBRANCH  10  11
ENDBRANCH   7  10
BRANCH   4  17
HETATM   17  N   UNL     1     -40.631 -53.501  11.709  1.00  0.00    -0.274 NA
HETATM   18  H   UNL     1     -39.628 -53.403  11.790  1.00  0.00     0.127 HD
HETATM   19  H   UNL     1     -41.073 -54.205  12.283  1.00  0.00     0.127 HD
ENDBRANCH   4  17
BRANCH   1  20
HETATM   20  N   UNL     1     -40.971 -49.012  10.676  1.00  0.00    -0.274 NA
HETATM   21  H   UNL     1     -39.984 -49.095  10.472  1.00  0.00     0.127 HD
HETATM   22  H   UNL     1     -41.591 -48.884   9.888  1.00  0.00     0.127 HD
ENDBRANCH   1  20
TORSDOF 5
ENDMDL
MODEL 8
REMARK VINA RESULT:      -5.4      1.558      2.077
REMARK  5 active torsions:
REMARK  status: ('A' for Active; 'I' for Inactive)
REMARK    1  A    between atoms: N_1  and  C_2 
REMARK    2  A    between atoms: C_5  and  N_6 
REMARK    3  A    between atoms: C_9  and  S_10 
REMARK    4  A    between atoms: S_10  and  C_11 
REMARK    5  A    between atoms: C_11  and  C_12 
ROOT
HETATM    1  C   UNL     1     -44.192 -45.471   9.417  1.00  0.00     0.159 A 
HETATM    2  N   UNL     1     -45.226 -46.036   8.816  1.00  0.00    -0.309 N 
ATOM      3  HN  UNL     1     -45.969 -45.491   8.378  1.00  0.00     0.171 HD
HETATM    4  C   UNL     1     -45.228 -47.359   8.825  1.00  0.00     0.159 A 
HETATM    5  N   UNL     1     -44.295 -48.123   9.366  1.00  0.00    -0.313 N 
ATOM      6  HN  UNL     1     -44.330 -49.141   9.345  1.00  0.00     0.170 HD
HETATM    7  C   UNL     1     -43.306 -47.445   9.941  1.00  0.00     0.148 A 
HETATM    8  N   UNL     1     -43.215 -46.120  10.019  1.00  0.00    -0.313 N 
ATOM      9  HN  UNL     1     -42.452 -45.645  10.504  1.00  0.00     0.170 HD
ENDROOT
BRANCH   7  10
HETATM   10  S   UNL     1     -42.046 -48.363  10.791  1.00  0.00    -0.091 SA
BRANCH  10  11
HETATM   11  C   UNL     1     -41.707 -47.225  12.179  1.00  0.00     0.114 C 
BRANCH  11  12
HETATM   12  C   UNL     1     -40.524 -46.263  12.016  1.00  0.00     0.131 C 
HETATM   13  C   UNL     1     -40.587 -44.949  12.781  1.00  0.00     0.035 C 
HETATM   14  C   UNL     1     -39.886 -43.951  11.882  1.00  0.00     0.029 C 
HETATM   15  C   UNL     1     -39.520 -44.726  10.633  1.00  0.00     0.168 C 
HETATM   16  O   UNL     1     -40.313 -45.915  10.641  1.00  0.00    -0.385 OA
ENDBRANCH  11  12
ENDBRANCH  10  11
ENDBRANCH   7  10
BRANCH   4  17
HETATM   17  N   UNL     1     -46.292 -47.989   8.203  1.00  0.00    -0.274 NA
HETATM   18  H   UNL     1     -45.961 -48.798   7.696  1.00  0.00     0.127 HD
HETATM   19  H   UNL     1     -47.043 -48.135   8.863  1.00  0.00     0.127 HD
ENDBRANCH   4  17
BRANCH   1  20
HETATM   20  N   UNL     1     -44.161 -44.090   9.467  1.00  0.00    -0.274 NA
HETATM   21  H   UNL     1     -43.708 -43.729   8.639  1.00  0.00     0.127 HD
HETATM   22  H   UNL     1     -45.087 -43.738   9.672  1.00  0.00     0.127 HD
ENDBRANCH   1  20
TORSDOF 5
ENDMDL
MODEL 9
REMARK VINA RESULT:      -5.3      6.731      8.327
REMARK  5 active torsions:
REMARK  status: ('A' for Active; 'I' for Inactive)
REMARK    1  A    between atoms: N_1  and  C_2 
REMARK    2  A    between atoms: C_5  and  N_6 
REMARK    3  A    between atoms: C_9  and  S_10 
REMARK    4  A    between atoms: S_10  and  C_11 
REMARK    5  A    between atoms: C_11  and  C_12 
ROOT
HETATM    1  C   UNL     1     -41.168 -52.232  11.894  1.00  0.00     0.159 A 
HETATM    2  N   UNL     1     -40.751 -51.189  11.197  1.00  0.00    -0.309 N 
ATOM      3  HN  UNL     1     -39.977 -51.248  10.535  1.00  0.00     0.171 HD
HETATM    4  C   UNL     1     -41.409 -50.063  11.421  1.00  0.00     0.159 A 
HETATM    5  N   UNL     1     -42.423 -49.922  12.257  1.00  0.00    -0.313 N 
ATOM      6  HN  UNL     1     -42.909 -49.037  12.395  1.00  0.00     0.170 HD
HETATM    7  C   UNL     1     -42.753 -51.037  12.901  1.00  0.00     0.148 A 
HETATM    8  N   UNL     1     -42.146 -52.215  12.778  1.00  0.00    -0.313 N 
ATOM      9  HN  UNL     1     -42.414 -53.035  13.323  1.00  0.00     0.170 HD
ENDROOT
BRANCH   7  10
HETATM   10  S   UNL     1     -44.036 -50.948  14.126  1.00  0.00    -0.091 SA
BRANCH  10  11
HETATM   11  C   UNL     1     -43.534 -52.329  15.211  1.00  0.00     0.114 C 
BRANCH  11  12
HETATM   12  C   UNL     1     -44.460 -53.551  15.251  1.00  0.00     0.131 C 
HETATM   13  C   UNL     1     -44.145 -54.692  14.294  1.00  0.00     0.035 C 
HETATM   14  C   UNL     1     -45.499 -55.263  13.924  1.00  0.00     0.029 C 
HETATM   15  C   UNL     1     -46.510 -54.385  14.632  1.00  0.00     0.168 C 
HETATM   16  O   UNL     1     -45.825 -53.188  15.004  1.00  0.00    -0.385 OA
ENDBRANCH  11  12
ENDBRANCH  10  11
ENDBRANCH   7  10
BRANCH   4  17
HETATM   17  N   UNL     1     -41.004 -48.948  10.709  1.00  0.00    -0.274 NA
HETATM   18  H   UNL     1     -40.109 -48.628  11.054  1.00  0.00     0.127 HD
HETATM   19  H   UNL     1     -41.078 -49.123   9.717  1.00  0.00     0.127 HD
ENDBRANCH   4  17
BRANCH   1  20
HETATM   20  N   UNL     1     -40.490 -53.424  11.723  1.00  0.00    -0.274 NA
HETATM   21  H   UNL     1     -41.076 -54.196  12.013  1.00  0.00     0.127 HD
HETATM   22  H   UNL     1     -40.110 -53.466  10.787  1.00  0.00     0.127 HD
ENDBRANCH   1  20
TORSDOF 5
ENDMDL
