MODEL 1
REMARK VINA RESULT:      -6.4      0.000      0.000
REMARK  5 active torsions:
REMARK  status: ('A' for Active; 'I' for Inactive)
REMARK    1  A    between atoms: C_2  and  C_3 
REMARK    2  A    between atoms: C_2  and  N_10 
REMARK    3  A    between atoms: C_3  and  N_4 
REMARK       I    between atoms: N_10  and  C_11 
REMARK    4  A    between atoms: C_11  and  C_13 
REMARK    5  A    between atoms: C_13  and  N_14 
ROOT
HETATM    1  N   UNL     1     -40.904 -50.413  11.413  1.00  0.00    -0.354 N 
HETATM    2  C   UNL     1     -40.816 -51.306  12.467  1.00  0.00     0.237 C 
HETATM    3  O   UNL     1     -40.566 -50.971  13.625  1.00  0.00    -0.272 OA
HETATM    4  H   UNL     1     -41.421 -50.722  10.595  1.00  0.00     0.162 HD
ENDROOT
BRANCH   2   5
HETATM    5  C   UNL     1     -40.987 -52.780  12.087  1.00  0.00     0.255 C 
BRANCH   5   6
HETATM    6  N   UNL     1     -42.190 -53.312  12.712  1.00  0.00    -0.246 N 
HETATM    7  N   UNL     1     -43.411 -52.971  12.111  1.00  0.00    -0.261 N 
HETATM    8  C   UNL     1     -44.615 -53.411  12.590  1.00  0.00     0.260 A 
HETATM    9  H   UNL     1     -43.413 -52.498  11.214  1.00  0.00     0.190 HD
HETATM   10  O   UNL     1     -45.685 -53.125  12.070  1.00  0.00    -0.267 OA
HETATM   11  C   UNL     1     -44.567 -54.272  13.788  1.00  0.00     0.081 A 
HETATM   12  C   UNL     1     -43.403 -54.632  14.336  1.00  0.00     0.081 A 
HETATM   13  C   UNL     1     -42.112 -54.159  13.794  1.00  0.00     0.262 A 
HETATM   14  O   UNL     1     -41.063 -54.511  14.321  1.00  0.00    -0.267 OA
ENDBRANCH   5   6
ENDBRANCH   2   5
BRANCH   1  15
HETATM   15  C   UNL     1     -40.934 -48.958  11.612  1.00  0.00     0.108 C 
HETATM   16  C   UNL     1     -39.540 -48.320  11.622  1.00  0.00     0.034 C 
BRANCH  15  17
HETATM   17  C   UNL     1     -41.770 -48.259  10.498  1.00  0.00     0.297 C 
BRANCH  17  18
HETATM   18  N   UNL     1     -43.041 -47.628  10.922  1.00  0.00     0.094 N 
HETATM   19  C   UNL     1     -43.904 -47.369   9.733  1.00  0.00     0.298 C 
HETATM   20  C   UNL     1     -43.406 -46.225   8.826  1.00  0.00     0.198 C 
HETATM   21  O   UNL     1     -43.244 -45.007   9.562  1.00  0.00    -0.388 OA
HETATM   22  C   UNL     1     -42.361 -45.191  10.675  1.00  0.00     0.198 C 
HETATM   23  C   UNL     1     -42.848 -46.323  11.601  1.00  0.00     0.298 C 
ENDBRANCH  17  18
ENDBRANCH  15  17
ENDBRANCH   1  15
TORSDOF 5
ENDMDL
MODEL 2
REMARK VINA RESULT:      -6.1      2.086      2.700
REMARK  5 active torsions:
REMARK  status: ('A' for Active; 'I' for Inactive)
REMARK    1  A    between atoms: C_2  and  C_3 
REMARK    2  A    between atoms: C_2  and  N_10 
REMARK    3  A    between atoms: C_3  and  N_4 
REMARK       I    between atoms: N_10  and  C_11 
REMARK    4  A    between atoms: C_11  and  C_13 
REMARK    5  A    between atoms: C_13  and  N_14 
ROOT
HETATM    1  N   UNL     1     -42.028 -50.636  11.771  1.00  0.00    -0.354 N 
HETATM    2  C   UNL     1     -42.150 -51.404  12.916  1.00  0.00     0.237 C 
HETATM    3  O   UNL     1     -41.449 -51.251  13.917  1.00  0.00    -0.272 OA
HETATM    4  H   UNL     1     -42.833 -50.610  11.151  1.00  0.00     0.162 HD
ENDROOT
BRANCH   2   5
HETATM    5  C   UNL     1     -43.189 -52.526  12.839  1.00  0.00     0.255 C 
BRANCH   5   6
HETATM    6  N   UNL     1     -44.391 -52.133  13.562  1.00  0.00    -0.246 N 
HETATM    7  N   UNL     1     -44.199 -51.437  14.765  1.00  0.00    -0.261 N 
HETATM    8  C   UNL     1     -45.240 -51.000  15.537  1.00  0.00     0.260 A 
HETATM    9  H   UNL     1     -43.269 -51.120  15.017  1.00  0.00     0.190 HD
HETATM   10  O   UNL     1     -45.083 -50.387  16.585  1.00  0.00    -0.267 OA
HETATM   11  C   UNL     1     -46.596 -51.302  15.038  1.00  0.00     0.081 A 
HETATM   12  C   UNL     1     -46.781 -51.926  13.871  1.00  0.00     0.081 A 
HETATM   13  C   UNL     1     -45.643 -52.377  13.044  1.00  0.00     0.262 A 
HETATM   14  O   UNL     1     -45.850 -52.946  11.978  1.00  0.00    -0.267 OA
ENDBRANCH   5   6
ENDBRANCH   2   5
BRANCH   1  15
HETATM   15  C   UNL     1     -41.210 -49.417  11.721  1.00  0.00     0.108 C 
HETATM   16  C   UNL     1     -39.749 -49.686  11.337  1.00  0.00     0.034 C 
BRANCH  15  17
HETATM   17  C   UNL     1     -41.791 -48.394  10.701  1.00  0.00     0.297 C 
BRANCH  17  18
HETATM   18  N   UNL     1     -43.004 -47.656  11.121  1.00  0.00     0.094 N 
HETATM   19  C   UNL     1     -43.888 -47.414   9.944  1.00  0.00     0.298 C 
HETATM   20  C   UNL     1     -43.349 -46.363   8.951  1.00  0.00     0.198 C 
HETATM   21  O   UNL     1     -43.085 -45.116   9.604  1.00  0.00    -0.388 OA
HETATM   22  C   UNL     1     -42.178 -45.289  10.700  1.00  0.00     0.198 C 
HETATM   23  C   UNL     1     -42.705 -46.327  11.709  1.00  0.00     0.298 C 
ENDBRANCH  17  18
ENDBRANCH  15  17
ENDBRANCH   1  15
TORSDOF 5
ENDMDL
MODEL 3
REMARK VINA RESULT:      -5.8      0.867      2.101
REMARK  5 active torsions:
REMARK  status: ('A' for Active; 'I' for Inactive)
REMARK    1  A    between atoms: C_2  and  C_3 
REMARK    2  A    between atoms: C_2  and  N_10 
REMARK    3  A    between atoms: C_3  and  N_4 
REMARK       I    between atoms: N_10  and  C_11 
REMARK    4  A    between atoms: C_11  and  C_13 
REMARK    5  A    between atoms: C_13  and  N_14 
ROOT
HETATM    1  N   UNL     1     -41.174 -50.488  11.418  1.00  0.00    -0.354 N 
HETATM    2  C   UNL     1     -41.498 -51.389  12.418  1.00  0.00     0.237 C 
HETATM    3  O   UNL     1     -41.575 -51.086  13.609  1.00  0.00    -0.272 OA
HETATM    4  H   UNL     1     -41.450 -50.738  10.472  1.00  0.00     0.162 HD
ENDROOT
BRANCH   2   5
HETATM    5  C   UNL     1     -41.694 -52.835  11.953  1.00  0.00     0.255 C 
BRANCH   5   6
HETATM    6  N   UNL     1     -42.272 -53.623  13.033  1.00  0.00    -0.246 N 
HETATM    7  N   UNL     1     -41.408 -53.983  14.078  1.00  0.00    -0.261 N 
HETATM    8  C   UNL     1     -41.824 -54.713  15.158  1.00  0.00     0.260 A 
HETATM    9  H   UNL     1     -40.477 -53.583  14.118  1.00  0.00     0.190 HD
HETATM   10  O   UNL     1     -41.079 -55.027  16.078  1.00  0.00    -0.267 OA
HETATM   11  C   UNL     1     -43.245 -55.112  15.170  1.00  0.00     0.081 A 
HETATM   12  C   UNL     1     -44.078 -54.733  14.197  1.00  0.00     0.081 A 
HETATM   13  C   UNL     1     -43.614 -53.931  13.047  1.00  0.00     0.262 A 
HETATM   14  O   UNL     1     -44.407 -53.601  12.173  1.00  0.00    -0.267 OA
ENDBRANCH   5   6
ENDBRANCH   2   5
BRANCH   1  15
HETATM   15  C   UNL     1     -41.117 -49.039  11.649  1.00  0.00     0.108 C 
HETATM   16  C   UNL     1     -39.685 -48.493  11.703  1.00  0.00     0.034 C 
BRANCH  15  17
HETATM   17  C   UNL     1     -41.881 -48.264  10.534  1.00  0.00     0.297 C 
BRANCH  17  18
HETATM   18  N   UNL     1     -43.130 -47.580  10.940  1.00  0.00     0.094 N 
HETATM   19  C   UNL     1     -43.986 -47.328   9.745  1.00  0.00     0.298 C 
HETATM   20  C   UNL     1     -43.453 -46.227   8.804  1.00  0.00     0.198 C 
HETATM   21  O   UNL     1     -43.250 -44.995   9.504  1.00  0.00    -0.388 OA
HETATM   22  C   UNL     1     -42.371 -45.175  10.621  1.00  0.00     0.198 C 
HETATM   23  C   UNL     1     -42.892 -46.262  11.580  1.00  0.00     0.298 C 
ENDBRANCH  17  18
ENDBRANCH  15  17
ENDBRANCH   1  15
TORSDOF 5
ENDMDL
MODEL 4
REMARK VINA RESULT:      -5.8      1.868      7.261
REMARK  5 active torsions:
REMARK  status: ('A' for Active; 'I' for Inactive)
REMARK    1  A    between atoms: C_2  and  C_3 
REMARK    2  A    between atoms: C_2  and  N_10 
REMARK    3  A    between atoms: C_3  and  N_4 
REMARK       I    between atoms: N_10  and  C_11 
REMARK    4  A    between atoms: C_11  and  C_13 
REMARK    5  A    between atoms: C_13  and  N_14 
ROOT
HETATM    1  N   UNL     1     -42.371 -50.499  12.465  1.00  0.00    -0.354 N 
HETATM    2  C   UNL     1     -41.995 -49.337  11.815  1.00  0.00     0.237 C 
HETATM    3  O   UNL     1     -41.076 -49.280  10.997  1.00  0.00    -0.272 OA
HETATM    4  H   UNL     1     -43.311 -50.522  12.851  1.00  0.00     0.162 HD
ENDROOT
BRANCH   2   5
HETATM    5  C   UNL     1     -42.765 -48.080  12.231  1.00  0.00     0.255 C 
BRANCH   5   6
HETATM    6  N   UNL     1     -43.319 -47.431  11.050  1.00  0.00    -0.246 N 
HETATM    7  N   UNL     1     -44.428 -48.053  10.456  1.00  0.00    -0.261 N 
HETATM    8  C   UNL     1     -45.051 -47.544   9.349  1.00  0.00     0.260 A 
HETATM    9  H   UNL     1     -44.878 -48.830  10.927  1.00  0.00     0.190 HD
HETATM   10  O   UNL     1     -46.022 -48.076   8.826  1.00  0.00    -0.267 OA
HETATM   11  C   UNL     1     -44.492 -46.293   8.801  1.00  0.00     0.081 A 
HETATM   12  C   UNL     1     -43.465 -45.676   9.391  1.00  0.00     0.081 A 
HETATM   13  C   UNL     1     -42.815 -46.234  10.596  1.00  0.00     0.262 A 
HETATM   14  O   UNL     1     -41.874 -45.640  11.112  1.00  0.00    -0.267 OA
ENDBRANCH   5   6
ENDBRANCH   2   5
BRANCH   1  15
HETATM   15  C   UNL     1     -41.864 -51.821  12.076  1.00  0.00     0.108 C 
HETATM   16  C   UNL     1     -40.505 -52.155  12.703  1.00  0.00     0.034 C 
BRANCH  15  17
HETATM   17  C   UNL     1     -42.864 -52.945  12.480  1.00  0.00     0.297 C 
BRANCH  17  18
HETATM   18  N   UNL     1     -43.713 -52.683  13.665  1.00  0.00     0.094 N 
HETATM   19  C   UNL     1     -43.128 -53.343  14.868  1.00  0.00     0.298 C 
HETATM   20  C   UNL     1     -43.251 -54.881  14.871  1.00  0.00     0.198 C 
HETATM   21  O   UNL     1     -44.613 -55.296  14.725  1.00  0.00    -0.388 OA
HETATM   22  C   UNL     1     -45.196 -54.744  13.537  1.00  0.00     0.198 C 
HETATM   23  C   UNL     1     -45.094 -53.207  13.521  1.00  0.00     0.298 C 
ENDBRANCH  17  18
ENDBRANCH  15  17
ENDBRANCH   1  15
TORSDOF 5
ENDMDL
MODEL 5
REMARK VINA RESULT:      -5.8      3.197      6.480
REMARK  5 active torsions:
REMARK  status: ('A' for Active; 'I' for Inactive)
REMARK    1  A    between atoms: C_2  and  C_3 
REMARK    2  A    between atoms: C_2  and  N_10 
REMARK    3  A    between atoms: C_3  and  N_4 
REMARK       I    between atoms: N_10  and  C_11 
REMARK    4  A    between atoms: C_11  and  C_13 
REMARK    5  A    between atoms: C_13  and  N_14 
ROOT
HETATM    1  N   UNL     1     -41.193 -53.507  14.574  1.00  0.00    -0.354 N 
HETATM    2  C   UNL     1     -40.325 -53.149  13.556  1.00  0.00     0.237 C 
HETATM    3  O   UNL     1     -40.499 -53.451  12.376  1.00  0.00    -0.272 OA
HETATM    4  H   UNL     1     -41.149 -52.955  15.426  1.00  0.00     0.162 HD
ENDROOT
BRANCH   2   5
HETATM    5  C   UNL     1     -39.071 -52.394  14.006  1.00  0.00     0.255 C 
BRANCH   5   6
HETATM    6  N   UNL     1     -38.918 -51.182  13.213  1.00  0.00    -0.246 N 
HETATM    7  N   UNL     1     -39.970 -50.256  13.275  1.00  0.00    -0.261 N 
HETATM    8  C   UNL     1     -39.950 -49.073  12.588  1.00  0.00     0.260 A 
HETATM    9  H   UNL     1     -40.715 -50.389  13.950  1.00  0.00     0.190 HD
HETATM   10  O   UNL     1     -40.860 -48.255  12.639  1.00  0.00    -0.267 OA
HETATM   11  C   UNL     1     -38.751 -48.814  11.765  1.00  0.00     0.081 A 
HETATM   12  C   UNL     1     -37.730 -49.675  11.740  1.00  0.00     0.081 A 
HETATM   13  C   UNL     1     -37.764 -50.941  12.501  1.00  0.00     0.262 A 
HETATM   14  O   UNL     1     -36.808 -51.707  12.456  1.00  0.00    -0.267 OA
ENDBRANCH   5   6
ENDBRANCH   2   5
BRANCH   1  15
HETATM   15  C   UNL     1     -42.519 -54.082  14.315  1.00  0.00     0.108 C 
HETATM   16  C   UNL     1     -42.834 -55.295  15.199  1.00  0.00     0.034 C 
BRANCH  15  17
HETATM   17  C   UNL     1     -43.641 -53.025  14.539  1.00  0.00     0.297 C 
BRANCH  17  18
HETATM   18  N   UNL     1     -45.031 -53.533  14.580  1.00  0.00     0.094 N 
HETATM   19  C   UNL     1     -45.720 -53.244  13.289  1.00  0.00     0.298 C 
HETATM   20  C   UNL     1     -46.058 -51.754  13.070  1.00  0.00     0.198 C 
HETATM   21  O   UNL     1     -46.844 -51.234  14.148  1.00  0.00    -0.388 OA
HETATM   22  C   UNL     1     -46.185 -51.424  15.406  1.00  0.00     0.198 C 
HETATM   23  C   UNL     1     -45.850 -52.908  15.649  1.00  0.00     0.298 C 
ENDBRANCH  17  18
ENDBRANCH  15  17
ENDBRANCH   1  15
TORSDOF 5
ENDMDL
MODEL 6
REMARK VINA RESULT:      -5.8      3.026      5.214
REMARK  5 active torsions:
REMARK  status: ('A' for Active; 'I' for Inactive)
REMARK    1  A    between atoms: C_2  and  C_3 
REMARK    2  A    between atoms: C_2  and  N_10 
REMARK    3  A    between atoms: C_3  and  N_4 
REMARK       I    between atoms: N_10  and  C_11 
REMARK    4  A    between atoms: C_11  and  C_13 
REMARK    5  A    between atoms: C_13  and  N_14 
ROOT
HETATM    1  N   UNL     1     -42.691 -54.099  13.850  1.00  0.00    -0.354 N 
HETATM    2  C   UNL     1     -43.512 -54.949  14.572  1.00  0.00     0.237 C 
HETATM    3  O   UNL     1     -43.122 -55.628  15.522  1.00  0.00    -0.272 OA
HETATM    4  H   UNL     1     -43.150 -53.360  13.323  1.00  0.00     0.162 HD
ENDROOT
BRANCH   2   5
HETATM    5  C   UNL     1     -44.954 -55.046  14.066  1.00  0.00     0.255 C 
BRANCH   5   6
HETATM    6  N   UNL     1     -45.641 -53.783  14.297  1.00  0.00    -0.246 N 
HETATM    7  N   UNL     1     -46.037 -53.517  15.617  1.00  0.00    -0.261 N 
HETATM    8  C   UNL     1     -46.681 -52.364  15.973  1.00  0.00     0.260 A 
HETATM    9  H   UNL     1     -45.723 -54.125  16.365  1.00  0.00     0.190 HD
HETATM   10  O   UNL     1     -47.025 -52.120  17.123  1.00  0.00    -0.267 OA
HETATM   11  C   UNL     1     -46.947 -51.400  14.888  1.00  0.00     0.081 A 
HETATM   12  C   UNL     1     -46.533 -51.633  13.639  1.00  0.00     0.081 A 
HETATM   13  C   UNL     1     -45.824 -52.877  13.276  1.00  0.00     0.262 A 
HETATM   14  O   UNL     1     -45.458 -53.057  12.120  1.00  0.00    -0.267 OA
ENDBRANCH   5   6
ENDBRANCH   2   5
BRANCH   1  15
HETATM   15  C   UNL     1     -41.333 -53.752  14.288  1.00  0.00     0.108 C 
HETATM   16  C   UNL     1     -40.238 -54.446  13.468  1.00  0.00     0.034 C 
BRANCH  15  17
HETATM   17  C   UNL     1     -41.092 -52.216  14.201  1.00  0.00     0.297 C 
BRANCH  17  18
HETATM   18  N   UNL     1     -40.297 -51.734  13.048  1.00  0.00     0.094 N 
HETATM   19  C   UNL     1     -39.226 -50.809  13.517  1.00  0.00     0.298 C 
HETATM   20  C   UNL     1     -39.739 -49.434  13.994  1.00  0.00     0.198 C 
HETATM   21  O   UNL     1     -40.508 -48.783  12.978  1.00  0.00    -0.388 OA
HETATM   22  C   UNL     1     -41.598 -49.608  12.547  1.00  0.00     0.198 C 
HETATM   23  C   UNL     1     -41.105 -50.982  12.055  1.00  0.00     0.298 C 
ENDBRANCH  17  18
ENDBRANCH  15  17
ENDBRANCH   1  15
TORSDOF 5
ENDMDL
MODEL 7
REMARK VINA RESULT:      -5.7      1.767      2.109
REMARK  5 active torsions:
REMARK  status: ('A' for Active; 'I' for Inactive)
REMARK    1  A    between atoms: C_2  and  C_3 
REMARK    2  A    between atoms: C_2  and  N_10 
REMARK    3  A    between atoms: C_3  and  N_4 
REMARK       I    between atoms: N_10  and  C_11 
REMARK    4  A    between atoms: C_11  and  C_13 
REMARK    5  A    between atoms: C_13  and  N_14 
ROOT
HETATM    1  N   UNL     1     -39.570 -50.525  12.521  1.00  0.00    -0.354 N 
HETATM    2  C   UNL     1     -40.819 -51.092  12.708  1.00  0.00     0.237 C 
HETATM    3  O   UNL     1     -41.707 -50.575  13.386  1.00  0.00    -0.272 OA
HETATM    4  H   UNL     1     -39.042 -50.840  11.712  1.00  0.00     0.162 HD
ENDROOT
BRANCH   2   5
HETATM    5  C   UNL     1     -41.013 -52.466  12.059  1.00  0.00     0.255 C 
BRANCH   5   6
HETATM    6  N   UNL     1     -42.143 -53.144  12.678  1.00  0.00    -0.246 N 
HETATM    7  N   UNL     1     -43.409 -52.876  12.135  1.00  0.00    -0.261 N 
HETATM    8  C   UNL     1     -44.553 -53.454  12.615  1.00  0.00     0.260 A 
HETATM    9  H   UNL     1     -43.482 -52.346  11.274  1.00  0.00     0.190 HD
HETATM   10  O   UNL     1     -45.661 -53.231  12.144  1.00  0.00    -0.267 OA
HETATM   11  C   UNL     1     -44.390 -54.385  13.748  1.00  0.00     0.081 A 
HETATM   12  C   UNL     1     -43.181 -54.675  14.238  1.00  0.00     0.081 A 
HETATM   13  C   UNL     1     -41.956 -54.052  13.696  1.00  0.00     0.262 A 
HETATM   14  O   UNL     1     -40.863 -54.342  14.170  1.00  0.00    -0.267 OA
ENDBRANCH   5   6
ENDBRANCH   2   5
BRANCH   1  15
HETATM   15  C   UNL     1     -39.260 -49.147  12.923  1.00  0.00     0.108 C 
HETATM   16  C   UNL     1     -37.807 -48.962  13.378  1.00  0.00     0.034 C 
BRANCH  15  17
HETATM   17  C   UNL     1     -39.524 -48.150  11.755  1.00  0.00     0.297 C 
BRANCH  17  18
HETATM   18  N   UNL     1     -40.791 -47.385  11.810  1.00  0.00     0.094 N 
HETATM   19  C   UNL     1     -40.821 -46.367  10.721  1.00  0.00     0.298 C 
HETATM   20  C   UNL     1     -39.861 -45.179  10.937  1.00  0.00     0.198 C 
HETATM   21  O   UNL     1     -40.106 -44.532  12.190  1.00  0.00    -0.388 OA
HETATM   22  C   UNL     1     -40.013 -45.460  13.277  1.00  0.00     0.198 C 
HETATM   23  C   UNL     1     -40.974 -46.650  13.086  1.00  0.00     0.298 C 
ENDBRANCH  17  18
ENDBRANCH  15  17
ENDBRANCH   1  15
TORSDOF 5
ENDMDL
MODEL 8
REMARK VINA RESULT:      -5.5      1.599      2.123
REMARK  5 active torsions:
REMARK  status: ('A' for Active; 'I' for Inactive)
REMARK    1  A    between atoms: C_2  and  C_3 
REMARK    2  A    between atoms: C_2  and  N_10 
REMARK    3  A    between atoms: C_3  and  N_4 
REMARK       I    between atoms: N_10  and  C_11 
REMARK    4  A    between atoms: C_11  and  C_13 
REMARK    5  A    between atoms: C_13  and  N_14 
ROOT
HETATM    1  N   UNL     1     -39.634 -51.387  12.557  1.00  0.00    -0.354 N 
HETATM    2  C   UNL     1     -40.265 -52.172  13.507  1.00  0.00     0.237 C 
HETATM    3  O   UNL     1     -40.483 -51.803  14.661  1.00  0.00    -0.272 OA
HETATM    4  H   UNL     1     -39.790 -51.635  11.584  1.00  0.00     0.162 HD
ENDROOT
BRANCH   2   5
HETATM    5  C   UNL     1     -40.625 -53.588  13.046  1.00  0.00     0.255 C 
BRANCH   5   6
HETATM    6  N   UNL     1     -41.992 -53.900  13.441  1.00  0.00    -0.246 N 
HETATM    7  N   UNL     1     -43.009 -53.459  12.581  1.00  0.00    -0.261 N 
HETATM    8  C   UNL     1     -44.334 -53.694  12.829  1.00  0.00     0.260 A 
HETATM    9  H   UNL     1     -42.767 -53.073  11.676  1.00  0.00     0.190 HD
HETATM   10  O   UNL     1     -45.229 -53.319  12.082  1.00  0.00    -0.267 OA
HETATM   11  C   UNL     1     -44.647 -54.441  14.062  1.00  0.00     0.081 A 
HETATM   12  C   UNL     1     -43.678 -54.899  14.859  1.00  0.00     0.081 A 
HETATM   13  C   UNL     1     -42.251 -54.649  14.567  1.00  0.00     0.262 A 
HETATM   14  O   UNL     1     -41.388 -55.084  15.320  1.00  0.00    -0.267 OA
ENDBRANCH   5   6
ENDBRANCH   2   5
BRANCH   1  15
HETATM   15  C   UNL     1     -39.370 -49.958  12.764  1.00  0.00     0.108 C 
HETATM   16  C   UNL     1     -37.878 -49.636  12.922  1.00  0.00     0.034 C 
BRANCH  15  17
HETATM   17  C   UNL     1     -39.917 -49.110  11.578  1.00  0.00     0.297 C 
BRANCH  17  18
HETATM   18  N   UNL     1     -40.565 -47.824  11.925  1.00  0.00     0.094 N 
HETATM   19  C   UNL     1     -41.678 -48.058  12.890  1.00  0.00     0.298 C 
HETATM   20  C   UNL     1     -42.916 -48.745  12.276  1.00  0.00     0.198 C 
HETATM   21  O   UNL     1     -43.415 -48.013  11.152  1.00  0.00    -0.388 OA
HETATM   22  C   UNL     1     -42.396 -47.829  10.162  1.00  0.00     0.198 C 
HETATM   23  C   UNL     1     -41.155 -47.132  10.752  1.00  0.00     0.298 C 
ENDBRANCH  17  18
ENDBRANCH  15  17
ENDBRANCH   1  15
TORSDOF 5
ENDMDL
MODEL 9
REMARK VINA RESULT:      -5.4      2.993      4.618
REMARK  5 active torsions:
REMARK  status: ('A' for Active; 'I' for Inactive)
REMARK    1  A    between atoms: C_2  and  C_3 
REMARK    2  A    between atoms: C_2  and  N_10 
REMARK    3  A    between atoms: C_3  and  N_4 
REMARK       I    between atoms: N_10  and  C_11 
REMARK    4  A    between atoms: C_11  and  C_13 
REMARK    5  A    between atoms: C_13  and  N_14 
ROOT
HETATM    1  N   UNL     1     -41.921 -54.177  13.791  1.00  0.00    -0.354 N 
HETATM    2  C   UNL     1     -42.759 -54.523  14.837  1.00  0.00     0.237 C 
HETATM    3  O   UNL     1     -42.409 -54.530  16.017  1.00  0.00    -0.272 OA
HETATM    4  H   UNL     1     -42.367 -53.888  12.925  1.00  0.00     0.162 HD
ENDROOT
BRANCH   2   5
HETATM    5  C   UNL     1     -44.165 -54.972  14.424  1.00  0.00     0.255 C 
BRANCH   5   6
HETATM    6  N   UNL     1     -45.095 -53.860  14.564  1.00  0.00    -0.246 N 
HETATM    7  N   UNL     1     -45.251 -53.028  13.445  1.00  0.00    -0.261 N 
HETATM    8  C   UNL     1     -46.100 -51.956  13.438  1.00  0.00     0.260 A 
HETATM    9  H   UNL     1     -44.832 -53.295  12.561  1.00  0.00     0.190 HD
HETATM   10  O   UNL     1     -46.247 -51.227  12.465  1.00  0.00    -0.267 OA
HETATM   11  C   UNL     1     -46.854 -51.710  14.683  1.00  0.00     0.081 A 
HETATM   12  C   UNL     1     -46.739 -52.526  15.734  1.00  0.00     0.081 A 
HETATM   13  C   UNL     1     -45.828 -53.689  15.717  1.00  0.00     0.262 A 
HETATM   14  O   UNL     1     -45.749 -54.418  16.699  1.00  0.00    -0.267 OA
ENDBRANCH   5   6
ENDBRANCH   2   5
BRANCH   1  15
HETATM   15  C   UNL     1     -40.603 -53.565  14.005  1.00  0.00     0.108 C 
HETATM   16  C   UNL     1     -39.450 -54.575  13.936  1.00  0.00     0.034 C 
BRANCH  15  17
HETATM   17  C   UNL     1     -40.326 -52.452  12.952  1.00  0.00     0.297 C 
BRANCH  17  18
HETATM   18  N   UNL     1     -40.218 -51.067  13.465  1.00  0.00     0.094 N 
HETATM   19  C   UNL     1     -41.565 -50.560  13.853  1.00  0.00     0.298 C 
HETATM   20  C   UNL     1     -42.498 -50.259  12.662  1.00  0.00     0.198 C 
HETATM   21  O   UNL     1     -41.896 -49.336  11.748  1.00  0.00    -0.388 OA
HETATM   22  C   UNL     1     -40.627 -49.819  11.288  1.00  0.00     0.198 C 
HETATM   23  C   UNL     1     -39.676 -50.114  12.463  1.00  0.00     0.298 C 
ENDBRANCH  17  18
ENDBRANCH  15  17
ENDBRANCH   1  15
TORSDOF 5
ENDMDL
