MODEL 1
REMARK VINA RESULT:      -5.0      0.000      0.000
REMARK  7 active torsions:
REMARK  status: ('A' for Active; 'I' for Inactive)
REMARK    1  A    between atoms: C_2  and  C_4 
REMARK    2  A    between atoms: C_4  and  C_5 
REMARK    3  A    between atoms: C_4  and  N_7 
REMARK    4  A    between atoms: C_5  and  O_6 
REMARK    5  A    between atoms: N_7  and  S_8 
REMARK    6  A    between atoms: S_8  and  C_11 
REMARK    7  A    between atoms: C_11  and  C_12 
ROOT
HETATM    1  S   UNL     1     -44.647 -54.409  14.303  1.00  0.00     0.215 S 
HETATM    2  O   UNL     1     -45.678 -54.769  15.254  1.00  0.00    -0.211 OA
HETATM    3  O   UNL     1     -44.809 -54.640  12.882  1.00  0.00    -0.211 OA
ENDROOT
BRANCH   1   4
HETATM    4  N   UNL     1     -44.425 -52.729  14.511  1.00  0.00    -0.213 NA
HETATM    5  H   UNL     1     -45.125 -52.400  15.181  1.00  0.00     0.140 HD
BRANCH   4   6
HETATM    6  C   UNL     1     -44.543 -51.892  13.234  1.00  0.00     0.098 C 
BRANCH   6   7
HETATM    7  C   UNL     1     -45.965 -51.232  13.177  1.00  0.00    -0.002 C 
HETATM    8  C   UNL     1     -46.850 -51.811  12.061  1.00  0.00     0.011 C 
HETATM    9  C   UNL     1     -46.741 -51.385  14.494  1.00  0.00     0.011 C 
ENDBRANCH   6   7
BRANCH   6  10
HETATM   10  C   UNL     1     -43.403 -50.846  13.119  1.00  0.00     0.184 C 
BRANCH  10  11
HETATM   11  O   UNL     1     -42.510 -51.101  12.039  1.00  0.00    -0.399 OA
HETATM   12  H   UNL     1     -42.858 -51.870  11.553  1.00  0.00     0.209 HD
ENDBRANCH  10  11
ENDBRANCH   6  10
ENDBRANCH   4   6
ENDBRANCH   1   4
BRANCH   1  13
HETATM   13  C   UNL     1     -43.074 -55.137  14.794  1.00  0.00     0.216 C 
BRANCH  13  14
HETATM   14  C   UNL     1     -41.966 -54.381  14.146  1.00  0.00     0.049 A 
HETATM   15  C   UNL     1     -40.839 -53.766  14.751  1.00  0.00     0.054 A 
HETATM   16  C   UNL     1     -40.210 -53.123  13.720  1.00  0.00     0.169 A 
HETATM   17  O   UNL     1     -40.866 -53.377  12.563  1.00  0.00    -0.250 OA
HETATM   18  N   UNL     1     -41.963 -54.184  12.820  1.00  0.00    -0.265 N 
ATOM     19  HN  UNL     1     -42.630 -54.551  12.141  1.00  0.00     0.194 HD
ENDBRANCH  13  14
ENDBRANCH   1  13
TORSDOF 7
ENDMDL
MODEL 2
REMARK VINA RESULT:      -4.9      6.349      7.600
REMARK  7 active torsions:
REMARK  status: ('A' for Active; 'I' for Inactive)
REMARK    1  A    between atoms: C_2  and  C_4 
REMARK    2  A    between atoms: C_4  and  C_5 
REMARK    3  A    between atoms: C_4  and  N_7 
REMARK    4  A    between atoms: C_5  and  O_6 
REMARK    5  A    between atoms: N_7  and  S_8 
REMARK    6  A    between atoms: S_8  and  C_11 
REMARK    7  A    between atoms: C_11  and  C_12 
ROOT
HETATM    1  S   UNL     1     -42.458 -48.071  11.479  1.00  0.00     0.215 S 
HETATM    2  O   UNL     1     -43.314 -48.859  12.340  1.00  0.00    -0.211 OA
HETATM    3  O   UNL     1     -41.613 -48.687  10.477  1.00  0.00    -0.211 OA
ENDROOT
BRANCH   1   4
HETATM    4  N   UNL     1     -43.517 -47.014  10.655  1.00  0.00    -0.213 NA
HETATM    5  H   UNL     1     -44.269 -46.758  11.299  1.00  0.00     0.140 HD
BRANCH   4   6
HETATM    6  C   UNL     1     -44.142 -47.582   9.378  1.00  0.00     0.098 C 
BRANCH   6   7
HETATM    7  C   UNL     1     -45.700 -47.413   9.445  1.00  0.00    -0.002 C 
HETATM    8  C   UNL     1     -46.186 -46.090   8.829  1.00  0.00     0.011 C 
HETATM    9  C   UNL     1     -46.449 -48.547   8.729  1.00  0.00     0.011 C 
ENDBRANCH   6   7
BRANCH   6  10
HETATM   10  C   UNL     1     -43.534 -46.942   8.101  1.00  0.00     0.184 C 
BRANCH  10  11
HETATM   11  O   UNL     1     -42.586 -45.916   8.381  1.00  0.00    -0.399 OA
HETATM   12  H   UNL     1     -42.648 -45.263   7.662  1.00  0.00     0.209 HD
ENDBRANCH  10  11
ENDBRANCH   6  10
ENDBRANCH   4   6
ENDBRANCH   1   4
BRANCH   1  13
HETATM   13  C   UNL     1     -41.417 -46.985  12.471  1.00  0.00     0.216 C 
BRANCH  13  14
HETATM   14  C   UNL     1     -40.904 -45.884  11.609  1.00  0.00     0.049 A 
HETATM   15  C   UNL     1     -40.831 -44.496  11.892  1.00  0.00     0.054 A 
HETATM   16  C   UNL     1     -40.388 -43.934  10.726  1.00  0.00     0.169 A 
HETATM   17  O   UNL     1     -40.146 -44.911   9.819  1.00  0.00    -0.250 OA
HETATM   18  N   UNL     1     -40.452 -46.144  10.373  1.00  0.00    -0.265 N 
ATOM     19  HN  UNL     1     -40.353 -47.059   9.933  1.00  0.00     0.194 HD
ENDBRANCH  13  14
ENDBRANCH   1  13
TORSDOF 7
ENDMDL
MODEL 3
REMARK VINA RESULT:      -4.8      2.930      5.460
REMARK  7 active torsions:
REMARK  status: ('A' for Active; 'I' for Inactive)
REMARK    1  A    between atoms: C_2  and  C_4 
REMARK    2  A    between atoms: C_4  and  C_5 
REMARK    3  A    between atoms: C_4  and  N_7 
REMARK    4  A    between atoms: C_5  and  O_6 
REMARK    5  A    between atoms: N_7  and  S_8 
REMARK    6  A    between atoms: S_8  and  C_11 
REMARK    7  A    between atoms: C_11  and  C_12 
ROOT
HETATM    1  S   UNL     1     -41.025 -52.998  13.027  1.00  0.00     0.215 S 
HETATM    2  O   UNL     1     -40.672 -54.379  12.772  1.00  0.00    -0.211 OA
HETATM    3  O   UNL     1     -40.789 -52.378  14.315  1.00  0.00    -0.211 OA
ENDROOT
BRANCH   1   4
HETATM    4  N   UNL     1     -40.144 -52.099  11.873  1.00  0.00    -0.213 NA
HETATM    5  H   UNL     1     -39.347 -52.666  11.575  1.00  0.00     0.140 HD
BRANCH   4   6
HETATM    6  C   UNL     1     -39.622 -50.745  12.362  1.00  0.00     0.098 C 
BRANCH   6   7
HETATM    7  C   UNL     1     -38.057 -50.795  12.448  1.00  0.00    -0.002 C 
HETATM    8  C   UNL     1     -37.371 -49.898  11.403  1.00  0.00     0.011 C 
HETATM    9  C   UNL     1     -37.526 -50.370  13.826  1.00  0.00     0.011 C 
ENDBRANCH   6   7
BRANCH   6  10
HETATM   10  C   UNL     1     -40.127 -49.575  11.476  1.00  0.00     0.184 C 
BRANCH  10  11
HETATM   11  O   UNL     1     -40.531 -49.987  10.175  1.00  0.00    -0.399 OA
HETATM   12  H   UNL     1     -40.022 -49.460   9.535  1.00  0.00     0.209 HD
ENDBRANCH  10  11
ENDBRANCH   6  10
ENDBRANCH   4   6
ENDBRANCH   1   4
BRANCH   1  13
HETATM   13  C   UNL     1     -42.752 -52.714  12.598  1.00  0.00     0.216 C 
BRANCH  13  14
HETATM   14  C   UNL     1     -43.591 -53.762  13.243  1.00  0.00     0.049 A 
HETATM   15  C   UNL     1     -44.934 -54.121  12.959  1.00  0.00     0.054 A 
HETATM   16  C   UNL     1     -45.243 -55.055  13.910  1.00  0.00     0.169 A 
HETATM   17  O   UNL     1     -44.153 -55.295  14.677  1.00  0.00    -0.250 OA
HETATM   18  N   UNL     1     -43.103 -54.497  14.252  1.00  0.00    -0.265 N 
ATOM     19  HN  UNL     1     -42.155 -54.475  14.628  1.00  0.00     0.194 HD
ENDBRANCH  13  14
ENDBRANCH   1  13
TORSDOF 7
ENDMDL
MODEL 4
REMARK VINA RESULT:      -4.8      1.367      2.076
REMARK  7 active torsions:
REMARK  status: ('A' for Active; 'I' for Inactive)
REMARK    1  A    between atoms: C_2  and  C_4 
REMARK    2  A    between atoms: C_4  and  C_5 
REMARK    3  A    between atoms: C_4  and  N_7 
REMARK    4  A    between atoms: C_5  and  O_6 
REMARK    5  A    between atoms: N_7  and  S_8 
REMARK    6  A    between atoms: S_8  and  C_11 
REMARK    7  A    between atoms: C_11  and  C_12 
ROOT
HETATM    1  S   UNL     1     -44.418 -54.326  13.765  1.00  0.00     0.215 S 
HETATM    2  O   UNL     1     -45.406 -55.086  14.503  1.00  0.00    -0.211 OA
HETATM    3  O   UNL     1     -44.344 -54.378  12.320  1.00  0.00    -0.211 OA
ENDROOT
BRANCH   1   4
HETATM    4  N   UNL     1     -44.709 -52.698  14.190  1.00  0.00    -0.213 NA
HETATM    5  H   UNL     1     -44.413 -52.569  15.161  1.00  0.00     0.140 HD
BRANCH   4   6
HETATM    6  C   UNL     1     -46.165 -52.241  14.062  1.00  0.00     0.098 C 
BRANCH   6   7
HETATM    7  C   UNL     1     -46.488 -51.215  15.204  1.00  0.00    -0.002 C 
HETATM    8  C   UNL     1     -47.507 -51.753  16.222  1.00  0.00     0.011 C 
HETATM    9  C   UNL     1     -45.238 -50.797  15.993  1.00  0.00     0.011 C 
ENDBRANCH   6   7
BRANCH   6  10
HETATM   10  C   UNL     1     -46.471 -51.669  12.652  1.00  0.00     0.184 C 
BRANCH  10  11
HETATM   11  O   UNL     1     -46.771 -52.674  11.689  1.00  0.00    -0.399 OA
HETATM   12  H   UNL     1     -45.923 -53.017  11.357  1.00  0.00     0.209 HD
ENDBRANCH  10  11
ENDBRANCH   6  10
ENDBRANCH   4   6
ENDBRANCH   1   4
BRANCH   1  13
HETATM   13  C   UNL     1     -42.770 -54.673  14.405  1.00  0.00     0.216 C 
BRANCH  13  14
HETATM   14  C   UNL     1     -41.777 -53.851  13.659  1.00  0.00     0.049 A 
HETATM   15  C   UNL     1     -41.230 -52.589  14.008  1.00  0.00     0.054 A 
HETATM   16  C   UNL     1     -40.463 -52.242  12.929  1.00  0.00     0.169 A 
HETATM   17  O   UNL     1     -40.488 -53.244  12.018  1.00  0.00    -0.250 OA
HETATM   18  N   UNL     1     -41.299 -54.269  12.478  1.00  0.00    -0.265 N 
ATOM     19  HN  UNL     1     -41.492 -55.157  12.015  1.00  0.00     0.194 HD
ENDBRANCH  13  14
ENDBRANCH   1  13
TORSDOF 7
ENDMDL
MODEL 5
REMARK VINA RESULT:      -4.7      3.126      5.468
REMARK  7 active torsions:
REMARK  status: ('A' for Active; 'I' for Inactive)
REMARK    1  A    between atoms: C_2  and  C_4 
REMARK    2  A    between atoms: C_4  and  C_5 
REMARK    3  A    between atoms: C_4  and  N_7 
REMARK    4  A    between atoms: C_5  and  O_6 
REMARK    5  A    between atoms: N_7  and  S_8 
REMARK    6  A    between atoms: S_8  and  C_11 
REMARK    7  A    between atoms: C_11  and  C_12 
ROOT
HETATM    1  S   UNL     1     -40.069 -52.893  13.475  1.00  0.00     0.215 S 
HETATM    2  O   UNL     1     -38.729 -53.380  13.729  1.00  0.00    -0.211 OA
HETATM    3  O   UNL     1     -40.822 -52.178  14.484  1.00  0.00    -0.211 OA
ENDROOT
BRANCH   1   4
HETATM    4  N   UNL     1     -39.908 -51.843  12.137  1.00  0.00    -0.213 NA
HETATM    5  H   UNL     1     -39.135 -52.184  11.561  1.00  0.00     0.140 HD
BRANCH   4   6
HETATM    6  C   UNL     1     -39.643 -50.376  12.488  1.00  0.00     0.098 C 
BRANCH   6   7
HETATM    7  C   UNL     1     -38.100 -50.156  12.662  1.00  0.00    -0.002 C 
HETATM    8  C   UNL     1     -37.353 -50.066  11.321  1.00  0.00     0.011 C 
HETATM    9  C   UNL     1     -37.770 -48.878  13.450  1.00  0.00     0.011 C 
ENDBRANCH   6   7
BRANCH   6  10
HETATM   10  C   UNL     1     -40.262 -49.410  11.443  1.00  0.00     0.184 C 
BRANCH  10  11
HETATM   11  O   UNL     1     -40.518 -50.028  10.186  1.00  0.00    -0.399 OA
HETATM   12  H   UNL     1     -41.284 -49.575   9.793  1.00  0.00     0.209 HD
ENDBRANCH  10  11
ENDBRANCH   6  10
ENDBRANCH   4   6
ENDBRANCH   1   4
BRANCH   1  13
HETATM   13  C   UNL     1     -41.109 -54.235  12.873  1.00  0.00     0.216 C 
BRANCH  13  14
HETATM   14  C   UNL     1     -42.536 -53.813  12.945  1.00  0.00     0.049 A 
HETATM   15  C   UNL     1     -43.565 -54.309  13.786  1.00  0.00     0.054 A 
HETATM   16  C   UNL     1     -44.691 -53.656  13.365  1.00  0.00     0.169 A 
HETATM   17  O   UNL     1     -44.364 -52.780  12.384  1.00  0.00    -0.250 OA
HETATM   18  N   UNL     1     -43.005 -52.861  12.126  1.00  0.00    -0.265 N 
ATOM     19  HN  UNL     1     -42.472 -52.309  11.454  1.00  0.00     0.194 HD
ENDBRANCH  13  14
ENDBRANCH   1  13
TORSDOF 7
ENDMDL
MODEL 6
REMARK VINA RESULT:      -4.7      7.496      8.807
REMARK  7 active torsions:
REMARK  status: ('A' for Active; 'I' for Inactive)
REMARK    1  A    between atoms: C_2  and  C_4 
REMARK    2  A    between atoms: C_4  and  C_5 
REMARK    3  A    between atoms: C_4  and  N_7 
REMARK    4  A    between atoms: C_5  and  O_6 
REMARK    5  A    between atoms: N_7  and  S_8 
REMARK    6  A    between atoms: S_8  and  C_11 
REMARK    7  A    between atoms: C_11  and  C_12 
ROOT
HETATM    1  S   UNL     1     -43.280 -46.758   9.532  1.00  0.00     0.215 S 
HETATM    2  O   UNL     1     -43.110 -45.771   8.486  1.00  0.00    -0.211 OA
HETATM    3  O   UNL     1     -42.531 -47.997   9.536  1.00  0.00    -0.211 OA
ENDROOT
BRANCH   1   4
HETATM    4  N   UNL     1     -42.893 -45.938  10.978  1.00  0.00    -0.213 NA
HETATM    5  H   UNL     1     -43.736 -45.457  11.302  1.00  0.00     0.140 HD
BRANCH   4   6
HETATM    6  C   UNL     1     -41.762 -44.911  10.864  1.00  0.00     0.098 C 
BRANCH   6   7
HETATM    7  C   UNL     1     -42.101 -43.666  11.755  1.00  0.00    -0.002 C 
HETATM    8  C   UNL     1     -43.112 -42.714  11.095  1.00  0.00     0.011 C 
HETATM    9  C   UNL     1     -42.676 -44.058  13.125  1.00  0.00     0.011 C 
ENDBRANCH   6   7
BRANCH   6  10
HETATM   10  C   UNL     1     -40.382 -45.529  11.213  1.00  0.00     0.184 C 
BRANCH  10  11
HETATM   11  O   UNL     1     -39.659 -45.976  10.071  1.00  0.00    -0.399 OA
HETATM   12  H   UNL     1     -39.148 -46.759  10.342  1.00  0.00     0.209 HD
ENDBRANCH  10  11
ENDBRANCH   6  10
ENDBRANCH   4   6
ENDBRANCH   1   4
BRANCH   1  13
HETATM   13  C   UNL     1     -45.024 -47.179   9.704  1.00  0.00     0.216 C 
BRANCH  13  14
HETATM   14  C   UNL     1     -45.440 -48.007   8.539  1.00  0.00     0.049 A 
HETATM   15  C   UNL     1     -46.640 -48.742   8.356  1.00  0.00     0.054 A 
HETATM   16  C   UNL     1     -46.458 -49.401   7.172  1.00  0.00     0.169 A 
HETATM   17  O   UNL     1     -45.264 -49.047   6.638  1.00  0.00    -0.250 OA
HETATM   18  N   UNL     1     -44.625 -48.155   7.484  1.00  0.00    -0.265 N 
ATOM     19  HN  UNL     1     -43.722 -47.705   7.336  1.00  0.00     0.194 HD
ENDBRANCH  13  14
ENDBRANCH   1  13
TORSDOF 7
ENDMDL
MODEL 7
REMARK VINA RESULT:      -4.6      2.615      3.653
REMARK  7 active torsions:
REMARK  status: ('A' for Active; 'I' for Inactive)
REMARK    1  A    between atoms: C_2  and  C_4 
REMARK    2  A    between atoms: C_4  and  C_5 
REMARK    3  A    between atoms: C_4  and  N_7 
REMARK    4  A    between atoms: C_5  and  O_6 
REMARK    5  A    between atoms: N_7  and  S_8 
REMARK    6  A    between atoms: S_8  and  C_11 
REMARK    7  A    between atoms: C_11  and  C_12 
ROOT
HETATM    1  S   UNL     1     -41.931 -51.843  12.952  1.00  0.00     0.215 S 
HETATM    2  O   UNL     1     -41.925 -51.545  14.369  1.00  0.00    -0.211 OA
HETATM    3  O   UNL     1     -41.466 -53.116  12.441  1.00  0.00    -0.211 OA
ENDROOT
BRANCH   1   4
HETATM    4  N   UNL     1     -43.563 -51.682  12.476  1.00  0.00    -0.213 NA
HETATM    5  H   UNL     1     -43.749 -50.688  12.321  1.00  0.00     0.140 HD
BRANCH   4   6
HETATM    6  C   UNL     1     -44.590 -52.218  13.478  1.00  0.00     0.098 C 
BRANCH   6   7
HETATM    7  C   UNL     1     -45.899 -51.359  13.387  1.00  0.00    -0.002 C 
HETATM    8  C   UNL     1     -46.800 -51.763  12.209  1.00  0.00     0.011 C 
HETATM    9  C   UNL     1     -46.754 -51.447  14.661  1.00  0.00     0.011 C 
ENDBRANCH   6   7
BRANCH   6  10
HETATM   10  C   UNL     1     -44.864 -53.732  13.273  1.00  0.00     0.184 C 
BRANCH  10  11
HETATM   11  O   UNL     1     -44.233 -54.267  12.113  1.00  0.00    -0.399 OA
HETATM   12  H   UNL     1     -43.445 -53.724  11.938  1.00  0.00     0.209 HD
ENDBRANCH  10  11
ENDBRANCH   6  10
ENDBRANCH   4   6
ENDBRANCH   1   4
BRANCH   1  13
HETATM   13  C   UNL     1     -41.067 -50.548  12.045  1.00  0.00     0.216 C 
BRANCH  13  14
HETATM   14  C   UNL     1     -39.600 -50.711  12.245  1.00  0.00     0.049 A 
HETATM   15  C   UNL     1     -38.536 -50.019  11.611  1.00  0.00     0.054 A 
HETATM   16  C   UNL     1     -37.406 -50.634  12.077  1.00  0.00     0.169 A 
HETATM   17  O   UNL     1     -37.750 -51.587  12.977  1.00  0.00    -0.250 OA
HETATM   18  N   UNL     1     -39.130 -51.629  13.101  1.00  0.00    -0.265 N 
ATOM     19  HN  UNL     1     -39.674 -52.234  13.717  1.00  0.00     0.194 HD
ENDBRANCH  13  14
ENDBRANCH   1  13
TORSDOF 7
ENDMDL
MODEL 8
REMARK VINA RESULT:      -4.4      5.960      8.029
REMARK  7 active torsions:
REMARK  status: ('A' for Active; 'I' for Inactive)
REMARK    1  A    between atoms: C_2  and  C_4 
REMARK    2  A    between atoms: C_4  and  C_5 
REMARK    3  A    between atoms: C_4  and  N_7 
REMARK    4  A    between atoms: C_5  and  O_6 
REMARK    5  A    between atoms: N_7  and  S_8 
REMARK    6  A    between atoms: S_8  and  C_11 
REMARK    7  A    between atoms: C_11  and  C_12 
ROOT
HETATM    1  S   UNL     1     -40.935 -46.726  12.203  1.00  0.00     0.215 S 
HETATM    2  O   UNL     1     -40.656 -45.682  13.167  1.00  0.00    -0.211 OA
HETATM    3  O   UNL     1     -40.277 -46.765  10.914  1.00  0.00    -0.211 OA
ENDROOT
BRANCH   1   4
HETATM    4  N   UNL     1     -40.541 -48.181  13.006  1.00  0.00    -0.213 NA
HETATM    5  H   UNL     1     -40.156 -47.940  13.923  1.00  0.00     0.140 HD
BRANCH   4   6
HETATM    6  C   UNL     1     -39.536 -49.078  12.277  1.00  0.00     0.098 C 
BRANCH   6   7
HETATM    7  C   UNL     1     -38.491 -49.628  13.308  1.00  0.00    -0.002 C 
HETATM    8  C   UNL     1     -37.515 -50.642  12.687  1.00  0.00     0.011 C 
HETATM    9  C   UNL     1     -37.643 -48.515  13.942  1.00  0.00     0.011 C 
ENDBRANCH   6   7
BRANCH   6  10
HETATM   10  C   UNL     1     -40.240 -50.213  11.487  1.00  0.00     0.184 C 
BRANCH  10  11
HETATM   11  O   UNL     1     -40.504 -49.876  10.129  1.00  0.00    -0.399 OA
HETATM   12  H   UNL     1     -40.821 -50.683   9.688  1.00  0.00     0.209 HD
ENDBRANCH  10  11
ENDBRANCH   6  10
ENDBRANCH   4   6
ENDBRANCH   1   4
BRANCH   1  13
HETATM   13  C   UNL     1     -42.709 -46.838  11.910  1.00  0.00     0.216 C 
BRANCH  13  14
HETATM   14  C   UNL     1     -42.953 -46.947  10.445  1.00  0.00     0.049 A 
HETATM   15  C   UNL     1     -43.411 -45.951   9.545  1.00  0.00     0.054 A 
HETATM   16  C   UNL     1     -43.562 -46.611   8.356  1.00  0.00     0.169 A 
HETATM   17  O   UNL     1     -43.165 -47.898   8.502  1.00  0.00    -0.250 OA
HETATM   18  N   UNL     1     -42.762 -48.113   9.810  1.00  0.00    -0.265 N 
ATOM     19  HN  UNL     1     -42.397 -48.979  10.208  1.00  0.00     0.194 HD
ENDBRANCH  13  14
ENDBRANCH   1  13
TORSDOF 7
ENDMDL
MODEL 9
REMARK VINA RESULT:      -4.3      1.834      3.049
REMARK  7 active torsions:
REMARK  status: ('A' for Active; 'I' for Inactive)
REMARK    1  A    between atoms: C_2  and  C_4 
REMARK    2  A    between atoms: C_4  and  C_5 
REMARK    3  A    between atoms: C_4  and  N_7 
REMARK    4  A    between atoms: C_5  and  O_6 
REMARK    5  A    between atoms: N_7  and  S_8 
REMARK    6  A    between atoms: S_8  and  C_11 
REMARK    7  A    between atoms: C_11  and  C_12 
ROOT
HETATM    1  S   UNL     1     -45.376 -54.622  13.808  1.00  0.00     0.215 S 
HETATM    2  O   UNL     1     -45.716 -56.029  13.843  1.00  0.00    -0.211 OA
HETATM    3  O   UNL     1     -45.455 -53.852  12.584  1.00  0.00    -0.211 OA
ENDROOT
BRANCH   1   4
HETATM    4  N   UNL     1     -46.432 -53.886  14.929  1.00  0.00    -0.213 NA
HETATM    5  H   UNL     1     -47.106 -53.324  14.404  1.00  0.00     0.140 HD
BRANCH   4   6
HETATM    6  C   UNL     1     -45.756 -52.987  15.969  1.00  0.00     0.098 C 
BRANCH   6   7
HETATM    7  C   UNL     1     -46.203 -51.502  15.738  1.00  0.00    -0.002 C 
HETATM    8  C   UNL     1     -46.838 -51.276  14.355  1.00  0.00     0.011 C 
HETATM    9  C   UNL     1     -47.218 -51.020  16.785  1.00  0.00     0.011 C 
ENDBRANCH   6   7
BRANCH   6  10
HETATM   10  C   UNL     1     -46.034 -53.468  17.418  1.00  0.00     0.184 C 
BRANCH  10  11
HETATM   11  O   UNL     1     -45.882 -54.874  17.585  1.00  0.00    -0.399 OA
HETATM   12  H   UNL     1     -44.957 -55.090  17.373  1.00  0.00     0.209 HD
ENDBRANCH  10  11
ENDBRANCH   6  10
ENDBRANCH   4   6
ENDBRANCH   1   4
BRANCH   1  13
HETATM   13  C   UNL     1     -43.732 -54.368  14.501  1.00  0.00     0.216 C 
BRANCH  13  14
HETATM   14  C   UNL     1     -43.002 -53.373  13.668  1.00  0.00     0.049 A 
HETATM   15  C   UNL     1     -42.784 -51.994  13.921  1.00  0.00     0.054 A 
HETATM   16  C   UNL     1     -42.161 -51.536  12.792  1.00  0.00     0.169 A 
HETATM   17  O   UNL     1     -41.956 -52.569  11.940  1.00  0.00    -0.250 OA
HETATM   18  N   UNL     1     -42.467 -53.733  12.492  1.00  0.00    -0.265 N 
ATOM     19  HN  UNL     1     -42.441 -54.670  12.089  1.00  0.00     0.194 HD
ENDBRANCH  13  14
ENDBRANCH   1  13
TORSDOF 7
ENDMDL
