MODEL 1
REMARK VINA RESULT:      -5.9      0.000      0.000
REMARK  6 active torsions:
REMARK  status: ('A' for Active; 'I' for Inactive)
REMARK    1  A    between atoms: C_2  and  C_3 
REMARK    2  A    between atoms: C_3  and  C_4 
REMARK    3  A    between atoms: C_4  and  N_5 
REMARK       I    between atoms: N_5  and  C_6 
REMARK    4  A    between atoms: C_6  and  C_8 
REMARK    5  A    between atoms: C_8  and  C_9 
REMARK    6  A    between atoms: C_12  and  C_15 
ROOT
HETATM    1  C   UNL     1     -39.939 -49.547  11.068  1.00  0.00     0.160 C 
ENDROOT
BRANCH   1   2
HETATM    2  C   UNL     1     -40.034 -50.798  11.912  1.00  0.00     0.223 C 
HETATM    3  N   UNL     1     -40.925 -51.755  11.459  1.00  0.00    -0.360 N 
HETATM    4  H   UNL     1     -41.284 -51.685  10.515  1.00  0.00     0.162 HD
HETATM    5  O   UNL     1     -39.353 -50.948  12.926  1.00  0.00    -0.273 OA
BRANCH   3   6
HETATM    6  C   UNL     1     -40.999 -53.005  12.174  1.00  0.00     0.132 C 
BRANCH   6   7
HETATM    7  C   UNL     1     -42.067 -53.111  13.246  1.00  0.00    -0.025 A 
HETATM    8  C   UNL     1     -42.224 -54.369  14.082  1.00  0.00     0.012 A 
HETATM    9  C   UNL     1     -41.668 -53.122  14.712  1.00  0.00     0.012 A 
BRANCH   7  10
HETATM   10  C   UNL     1     -43.332 -52.333  12.901  1.00  0.00     0.006 C 
HETATM   11  C   UNL     1     -44.475 -53.229  12.441  1.00  0.00     0.006 C 
ENDBRANCH   7  10
ENDBRANCH   6   7
ENDBRANCH   3   6
ENDBRANCH   1   2
BRANCH   1  12
HETATM   12  C   UNL     1     -41.215 -48.782  11.082  1.00  0.00     0.025 A 
HETATM   13  C   UNL     1     -41.948 -48.412  12.194  1.00  0.00     0.077 A 
HETATM   14  S   UNL     1     -43.361 -47.576  11.719  1.00  0.00    -0.086 SA
HETATM   15  C   UNL     1     -42.927 -47.787  10.060  1.00  0.00     0.058 A 
HETATM   16  N   UNL     1     -41.779 -48.412   9.873  1.00  0.00    -0.356 N 
ATOM     17  HN  UNL     1     -41.363 -48.596   8.959  1.00  0.00     0.166 HD
BRANCH  15  18
HETATM   18  C   UNL     1     -43.827 -47.296   8.929  1.00  0.00    -0.002 C 
HETATM   19  C   UNL     1     -43.392 -47.898   7.581  1.00  0.00     0.021 C 
HETATM   20  C   UNL     1     -45.286 -47.729   9.197  1.00  0.00     0.021 C 
HETATM   21  C   UNL     1     -43.800 -45.759   8.845  1.00  0.00     0.021 C 
ENDBRANCH  15  18
ENDBRANCH   1  12
TORSDOF 6
ENDMDL
MODEL 2
REMARK VINA RESULT:      -5.8      1.998      2.643
REMARK  6 active torsions:
REMARK  status: ('A' for Active; 'I' for Inactive)
REMARK    1  A    between atoms: C_2  and  C_3 
REMARK    2  A    between atoms: C_3  and  C_4 
REMARK    3  A    between atoms: C_4  and  N_5 
REMARK       I    between atoms: N_5  and  C_6 
REMARK    4  A    between atoms: C_6  and  C_8 
REMARK    5  A    between atoms: C_8  and  C_9 
REMARK    6  A    between atoms: C_12  and  C_15 
ROOT
HETATM    1  C   UNL     1     -41.470 -49.988  12.450  1.00  0.00     0.160 C 
ENDROOT
BRANCH   1   2
HETATM    2  C   UNL     1     -42.756 -50.438  13.107  1.00  0.00     0.223 C 
HETATM    3  N   UNL     1     -42.736 -51.714  13.643  1.00  0.00    -0.360 N 
HETATM    4  H   UNL     1     -41.845 -52.178  13.772  1.00  0.00     0.162 HD
HETATM    5  O   UNL     1     -43.744 -49.707  13.164  1.00  0.00    -0.273 OA
BRANCH   3   6
HETATM    6  C   UNL     1     -43.903 -52.169  14.357  1.00  0.00     0.132 C 
BRANCH   6   7
HETATM    7  C   UNL     1     -44.853 -53.075  13.596  1.00  0.00    -0.025 A 
HETATM    8  C   UNL     1     -44.338 -54.092  12.593  1.00  0.00     0.012 A 
HETATM    9  C   UNL     1     -44.894 -54.561  13.909  1.00  0.00     0.012 A 
BRANCH   7  10
HETATM   10  C   UNL     1     -46.194 -52.414  13.303  1.00  0.00     0.006 C 
HETATM   11  C   UNL     1     -46.610 -51.411  14.371  1.00  0.00     0.006 C 
ENDBRANCH   7  10
ENDBRANCH   6   7
ENDBRANCH   3   6
ENDBRANCH   1   2
BRANCH   1  12
HETATM   12  C   UNL     1     -41.672 -48.752  11.647  1.00  0.00     0.025 A 
HETATM   13  C   UNL     1     -40.932 -47.587  11.717  1.00  0.00     0.077 A 
HETATM   14  S   UNL     1     -41.554 -46.426  10.629  1.00  0.00    -0.086 SA
HETATM   15  C   UNL     1     -42.791 -47.534  10.156  1.00  0.00     0.058 A 
HETATM   16  N   UNL     1     -42.723 -48.712  10.746  1.00  0.00    -0.356 N 
ATOM     17  HN  UNL     1     -43.360 -49.489  10.563  1.00  0.00     0.166 HD
BRANCH  15  18
HETATM   18  C   UNL     1     -43.870 -47.144   9.147  1.00  0.00    -0.002 C 
HETATM   19  C   UNL     1     -43.911 -45.619   8.949  1.00  0.00     0.021 C 
HETATM   20  C   UNL     1     -43.564 -47.795   7.779  1.00  0.00     0.021 C 
HETATM   21  C   UNL     1     -45.250 -47.647   9.610  1.00  0.00     0.021 C 
ENDBRANCH  15  18
ENDBRANCH   1  12
TORSDOF 6
ENDMDL
MODEL 3
REMARK VINA RESULT:      -5.6      1.713      2.576
REMARK  6 active torsions:
REMARK  status: ('A' for Active; 'I' for Inactive)
REMARK    1  A    between atoms: C_2  and  C_3 
REMARK    2  A    between atoms: C_3  and  C_4 
REMARK    3  A    between atoms: C_4  and  N_5 
REMARK       I    between atoms: N_5  and  C_6 
REMARK    4  A    between atoms: C_6  and  C_8 
REMARK    5  A    between atoms: C_8  and  C_9 
REMARK    6  A    between atoms: C_12  and  C_15 
ROOT
HETATM    1  C   UNL     1     -43.063 -49.231  13.397  1.00  0.00     0.160 C 
ENDROOT
BRANCH   1   2
HETATM    2  C   UNL     1     -42.732 -50.681  13.121  1.00  0.00     0.223 C 
HETATM    3  N   UNL     1     -43.821 -51.516  12.943  1.00  0.00    -0.360 N 
HETATM    4  H   UNL     1     -44.734 -51.106  12.784  1.00  0.00     0.162 HD
HETATM    5  O   UNL     1     -41.569 -51.078  13.053  1.00  0.00    -0.273 OA
BRANCH   3   6
HETATM    6  C   UNL     1     -43.571 -52.892  12.594  1.00  0.00     0.132 C 
BRANCH   6   7
HETATM    7  C   UNL     1     -43.777 -53.919  13.692  1.00  0.00    -0.025 A 
HETATM    8  C   UNL     1     -44.918 -53.792  14.686  1.00  0.00     0.012 A 
HETATM    9  C   UNL     1     -44.966 -54.863  13.631  1.00  0.00     0.012 A 
BRANCH   7  10
HETATM   10  C   UNL     1     -42.469 -54.519  14.194  1.00  0.00     0.006 C 
HETATM   11  C   UNL     1     -41.318 -54.344  13.212  1.00  0.00     0.006 C 
ENDBRANCH   7  10
ENDBRANCH   6   7
ENDBRANCH   3   6
ENDBRANCH   1   2
BRANCH   1  12
HETATM   12  C   UNL     1     -42.780 -48.373  12.216  1.00  0.00     0.025 A 
HETATM   13  C   UNL     1     -41.673 -47.570  12.019  1.00  0.00     0.077 A 
HETATM   14  S   UNL     1     -41.800 -46.742  10.530  1.00  0.00    -0.086 SA
HETATM   15  C   UNL     1     -43.337 -47.479  10.253  1.00  0.00     0.058 A 
HETATM   16  N   UNL     1     -43.717 -48.319  11.197  1.00  0.00    -0.356 N 
ATOM     17  HN  UNL     1     -44.584 -48.857  11.178  1.00  0.00     0.166 HD
BRANCH  15  18
HETATM   18  C   UNL     1     -44.170 -47.150   9.017  1.00  0.00    -0.002 C 
HETATM   19  C   UNL     1     -45.616 -47.653   9.179  1.00  0.00     0.021 C 
HETATM   20  C   UNL     1     -44.219 -45.619   8.811  1.00  0.00     0.021 C 
HETATM   21  C   UNL     1     -43.541 -47.774   7.758  1.00  0.00     0.021 C 
ENDBRANCH  15  18
ENDBRANCH   1  12
TORSDOF 6
ENDMDL
MODEL 4
REMARK VINA RESULT:      -5.6      2.330      6.442
REMARK  6 active torsions:
REMARK  status: ('A' for Active; 'I' for Inactive)
REMARK    1  A    between atoms: C_2  and  C_3 
REMARK    2  A    between atoms: C_3  and  C_4 
REMARK    3  A    between atoms: C_4  and  N_5 
REMARK       I    between atoms: N_5  and  C_6 
REMARK    4  A    between atoms: C_6  and  C_8 
REMARK    5  A    between atoms: C_8  and  C_9 
REMARK    6  A    between atoms: C_12  and  C_15 
ROOT
HETATM    1  C   UNL     1     -41.507 -50.207  11.935  1.00  0.00     0.160 C 
ENDROOT
BRANCH   1   2
HETATM    2  C   UNL     1     -42.307 -48.923  11.957  1.00  0.00     0.223 C 
HETATM    3  N   UNL     1     -42.786 -48.499  10.729  1.00  0.00    -0.360 N 
HETATM    4  H   UNL     1     -42.781 -49.147   9.950  1.00  0.00     0.162 HD
HETATM    5  O   UNL     1     -42.518 -48.311  13.003  1.00  0.00    -0.273 OA
BRANCH   3   6
HETATM    6  C   UNL     1     -43.625 -47.328  10.696  1.00  0.00     0.132 C 
BRANCH   6   7
HETATM    7  C   UNL     1     -44.102 -46.873   9.329  1.00  0.00    -0.025 A 
HETATM    8  C   UNL     1     -44.305 -45.402   9.014  1.00  0.00     0.012 A 
HETATM    9  C   UNL     1     -43.148 -46.141   8.401  1.00  0.00     0.012 A 
BRANCH   7  10
HETATM   10  C   UNL     1     -45.045 -47.872   8.669  1.00  0.00     0.006 C 
HETATM   11  C   UNL     1     -46.494 -47.703   9.109  1.00  0.00     0.006 C 
ENDBRANCH   7  10
ENDBRANCH   6   7
ENDBRANCH   3   6
ENDBRANCH   1   2
BRANCH   1  12
HETATM   12  C   UNL     1     -42.281 -51.341  12.509  1.00  0.00     0.025 A 
HETATM   13  C   UNL     1     -41.810 -52.610  12.786  1.00  0.00     0.077 A 
HETATM   14  S   UNL     1     -43.070 -53.585  13.405  1.00  0.00    -0.086 SA
HETATM   15  C   UNL     1     -44.173 -52.267  13.233  1.00  0.00     0.058 A 
HETATM   16  N   UNL     1     -43.627 -51.155  12.777  1.00  0.00    -0.356 N 
ATOM     17  HN  UNL     1     -44.129 -50.277  12.641  1.00  0.00     0.166 HD
BRANCH  15  18
HETATM   18  C   UNL     1     -45.653 -52.414  13.575  1.00  0.00    -0.002 C 
HETATM   19  C   UNL     1     -45.964 -53.838  14.070  1.00  0.00     0.021 C 
HETATM   20  C   UNL     1     -46.031 -51.425  14.700  1.00  0.00     0.021 C 
HETATM   21  C   UNL     1     -46.526 -52.089  12.349  1.00  0.00     0.021 C 
ENDBRANCH  15  18
ENDBRANCH   1  12
TORSDOF 6
ENDMDL
MODEL 5
REMARK VINA RESULT:      -5.6      2.289      3.658
REMARK  6 active torsions:
REMARK  status: ('A' for Active; 'I' for Inactive)
REMARK    1  A    between atoms: C_2  and  C_3 
REMARK    2  A    between atoms: C_3  and  C_4 
REMARK    3  A    between atoms: C_4  and  N_5 
REMARK       I    between atoms: N_5  and  C_6 
REMARK    4  A    between atoms: C_6  and  C_8 
REMARK    5  A    between atoms: C_8  and  C_9 
REMARK    6  A    between atoms: C_12  and  C_15 
ROOT
HETATM    1  C   UNL     1     -41.418 -52.521  11.847  1.00  0.00     0.160 C 
ENDROOT
BRANCH   1   2
HETATM    2  C   UNL     1     -42.612 -52.763  12.744  1.00  0.00     0.223 C 
HETATM    3  N   UNL     1     -43.822 -52.930  12.092  1.00  0.00    -0.360 N 
HETATM    4  H   UNL     1     -43.821 -53.105  11.094  1.00  0.00     0.162 HD
HETATM    5  O   UNL     1     -42.502 -52.814  13.968  1.00  0.00    -0.273 OA
BRANCH   3   6
HETATM    6  C   UNL     1     -44.983 -53.246  12.886  1.00  0.00     0.132 C 
BRANCH   6   7
HETATM    7  C   UNL     1     -45.881 -52.084  13.267  1.00  0.00    -0.025 A 
HETATM    8  C   UNL     1     -46.845 -52.183  14.435  1.00  0.00     0.012 A 
HETATM    9  C   UNL     1     -45.621 -51.318  14.553  1.00  0.00     0.012 A 
BRANCH   7  10
HETATM   10  C   UNL     1     -46.313 -51.251  12.066  1.00  0.00     0.006 C 
HETATM   11  C   UNL     1     -47.362 -51.946  11.207  1.00  0.00     0.006 C 
ENDBRANCH   7  10
ENDBRANCH   6   7
ENDBRANCH   3   6
ENDBRANCH   1   2
BRANCH   1  12
HETATM   12  C   UNL     1     -40.944 -51.114  11.938  1.00  0.00     0.025 A 
HETATM   13  C   UNL     1     -39.794 -50.665  12.560  1.00  0.00     0.077 A 
HETATM   14  S   UNL     1     -39.683 -48.964  12.437  1.00  0.00    -0.086 SA
HETATM   15  C   UNL     1     -41.189 -48.927  11.593  1.00  0.00     0.058 A 
HETATM   16  N   UNL     1     -41.726 -50.115  11.383  1.00  0.00    -0.356 N 
ATOM     17  HN  UNL     1     -42.599 -50.275  10.879  1.00  0.00     0.166 HD
BRANCH  15  18
HETATM   18  C   UNL     1     -41.829 -47.612  11.156  1.00  0.00    -0.002 C 
HETATM   19  C   UNL     1     -42.810 -47.096  12.224  1.00  0.00     0.021 C 
HETATM   20  C   UNL     1     -40.734 -46.540  10.957  1.00  0.00     0.021 C 
HETATM   21  C   UNL     1     -42.565 -47.787   9.815  1.00  0.00     0.021 C 
ENDBRANCH  15  18
ENDBRANCH   1  12
TORSDOF 6
ENDMDL
MODEL 6
REMARK VINA RESULT:      -5.4      3.515      6.115
REMARK  6 active torsions:
REMARK  status: ('A' for Active; 'I' for Inactive)
REMARK    1  A    between atoms: C_2  and  C_3 
REMARK    2  A    between atoms: C_3  and  C_4 
REMARK    3  A    between atoms: C_4  and  N_5 
REMARK       I    between atoms: N_5  and  C_6 
REMARK    4  A    between atoms: C_6  and  C_8 
REMARK    5  A    between atoms: C_8  and  C_9 
REMARK    6  A    between atoms: C_12  and  C_15 
ROOT
HETATM    1  C   UNL     1     -41.762 -52.720  11.908  1.00  0.00     0.160 C 
ENDROOT
BRANCH   1   2
HETATM    2  C   UNL     1     -41.040 -51.444  12.280  1.00  0.00     0.223 C 
HETATM    3  N   UNL     1     -40.346 -50.831  11.252  1.00  0.00    -0.360 N 
HETATM    4  H   UNL     1     -40.529 -51.117  10.297  1.00  0.00     0.162 HD
HETATM    5  O   UNL     1     -41.082 -50.987  13.422  1.00  0.00    -0.273 OA
BRANCH   3   6
HETATM    6  C   UNL     1     -39.707 -49.568  11.523  1.00  0.00     0.132 C 
BRANCH   6   7
HETATM    7  C   UNL     1     -38.268 -49.624  12.001  1.00  0.00    -0.025 A 
HETATM    8  C   UNL     1     -37.475 -50.918  11.963  1.00  0.00     0.012 A 
HETATM    9  C   UNL     1     -37.145 -49.815  10.996  1.00  0.00     0.012 A 
BRANCH   7  10
HETATM   10  C   UNL     1     -37.987 -48.659  13.147  1.00  0.00     0.006 C 
HETATM   11  C   UNL     1     -37.980 -49.339  14.510  1.00  0.00     0.006 C 
ENDBRANCH   7  10
ENDBRANCH   6   7
ENDBRANCH   3   6
ENDBRANCH   1   2
BRANCH   1  12
HETATM   12  C   UNL     1     -42.771 -53.095  12.935  1.00  0.00     0.025 A 
HETATM   13  C   UNL     1     -42.724 -54.183  13.786  1.00  0.00     0.077 A 
HETATM   14  S   UNL     1     -44.121 -54.226  14.768  1.00  0.00    -0.086 SA
HETATM   15  C   UNL     1     -44.719 -52.812  13.977  1.00  0.00     0.058 A 
HETATM   16  N   UNL     1     -43.909 -52.316  13.060  1.00  0.00    -0.356 N 
ATOM     17  HN  UNL     1     -44.096 -51.472  12.518  1.00  0.00     0.166 HD
BRANCH  15  18
HETATM   18  C   UNL     1     -46.084 -52.220  14.321  1.00  0.00    -0.002 C 
HETATM   19  C   UNL     1     -45.959 -51.161  15.430  1.00  0.00     0.021 C 
HETATM   20  C   UNL     1     -46.686 -51.535  13.073  1.00  0.00     0.021 C 
HETATM   21  C   UNL     1     -47.057 -53.327  14.766  1.00  0.00     0.021 C 
ENDBRANCH  15  18
ENDBRANCH   1  12
TORSDOF 6
ENDMDL
MODEL 7
REMARK VINA RESULT:      -5.3      2.549      6.213
REMARK  6 active torsions:
REMARK  status: ('A' for Active; 'I' for Inactive)
REMARK    1  A    between atoms: C_2  and  C_3 
REMARK    2  A    between atoms: C_3  and  C_4 
REMARK    3  A    between atoms: C_4  and  N_5 
REMARK       I    between atoms: N_5  and  C_6 
REMARK    4  A    between atoms: C_6  and  C_8 
REMARK    5  A    between atoms: C_8  and  C_9 
REMARK    6  A    between atoms: C_12  and  C_15 
ROOT
HETATM    1  C   UNL     1     -41.312 -51.763  11.615  1.00  0.00     0.160 C 
ENDROOT
BRANCH   1   2
HETATM    2  C   UNL     1     -41.149 -50.304  11.978  1.00  0.00     0.223 C 
HETATM    3  N   UNL     1     -40.816 -49.464  10.930  1.00  0.00    -0.360 N 
HETATM    4  H   UNL     1     -40.917 -49.801   9.980  1.00  0.00     0.162 HD
HETATM    5  O   UNL     1     -41.313 -49.901  13.129  1.00  0.00    -0.273 OA
BRANCH   3   6
HETATM    6  C   UNL     1     -40.729 -48.049  11.194  1.00  0.00     0.132 C 
BRANCH   6   7
HETATM    7  C   UNL     1     -41.824 -47.180  10.604  1.00  0.00    -0.025 A 
HETATM    8  C   UNL     1     -42.859 -47.754   9.653  1.00  0.00     0.012 A 
HETATM    9  C   UNL     1     -43.263 -47.371  11.050  1.00  0.00     0.012 A 
BRANCH   7  10
HETATM   10  C   UNL     1     -41.378 -45.741  10.375  1.00  0.00     0.006 C 
HETATM   11  C   UNL     1     -39.879 -45.545  10.563  1.00  0.00     0.006 C 
ENDBRANCH   7  10
ENDBRANCH   6   7
ENDBRANCH   3   6
ENDBRANCH   1   2
BRANCH   1  12
HETATM   12  C   UNL     1     -42.311 -52.434  12.491  1.00  0.00     0.025 A 
HETATM   13  C   UNL     1     -42.177 -53.660  13.115  1.00  0.00     0.077 A 
HETATM   14  S   UNL     1     -43.596 -54.036  13.989  1.00  0.00    -0.086 SA
HETATM   15  C   UNL     1     -44.315 -52.559  13.456  1.00  0.00     0.058 A 
HETATM   16  N   UNL     1     -43.531 -51.812  12.701  1.00  0.00    -0.356 N 
ATOM     17  HN  UNL     1     -43.789 -50.900  12.323  1.00  0.00     0.166 HD
BRANCH  15  18
HETATM   18  C   UNL     1     -45.747 -52.186  13.830  1.00  0.00    -0.002 C 
HETATM   19  C   UNL     1     -45.765 -51.062  14.881  1.00  0.00     0.021 C 
HETATM   20  C   UNL     1     -46.500 -51.681  12.579  1.00  0.00     0.021 C 
HETATM   21  C   UNL     1     -46.503 -53.414  14.370  1.00  0.00     0.021 C 
ENDBRANCH  15  18
ENDBRANCH   1  12
TORSDOF 6
ENDMDL
MODEL 8
REMARK VINA RESULT:      -5.3      3.897      5.686
REMARK  6 active torsions:
REMARK  status: ('A' for Active; 'I' for Inactive)
REMARK    1  A    between atoms: C_2  and  C_3 
REMARK    2  A    between atoms: C_3  and  C_4 
REMARK    3  A    between atoms: C_4  and  N_5 
REMARK       I    between atoms: N_5  and  C_6 
REMARK    4  A    between atoms: C_6  and  C_8 
REMARK    5  A    between atoms: C_8  and  C_9 
REMARK    6  A    between atoms: C_12  and  C_15 
ROOT
HETATM    1  C   UNL     1     -41.936 -53.973  13.272  1.00  0.00     0.160 C 
ENDROOT
BRANCH   1   2
HETATM    2  C   UNL     1     -43.443 -53.940  13.388  1.00  0.00     0.223 C 
HETATM    3  N   UNL     1     -43.937 -53.452  14.585  1.00  0.00    -0.360 N 
HETATM    4  H   UNL     1     -43.313 -52.951  15.206  1.00  0.00     0.162 HD
HETATM    5  O   UNL     1     -44.171 -54.316  12.470  1.00  0.00    -0.273 OA
BRANCH   3   6
HETATM    6  C   UNL     1     -45.366 -53.317  14.725  1.00  0.00     0.132 C 
BRANCH   6   7
HETATM    7  C   UNL     1     -45.920 -51.905  14.691  1.00  0.00    -0.025 A 
HETATM    8  C   UNL     1     -47.153 -51.523  15.488  1.00  0.00     0.012 A 
HETATM    9  C   UNL     1     -45.804 -51.018  15.918  1.00  0.00     0.012 A 
BRANCH   7  10
HETATM   10  C   UNL     1     -45.710 -51.219  13.346  1.00  0.00     0.006 C 
HETATM   11  C   UNL     1     -46.613 -51.771  12.250  1.00  0.00     0.006 C 
ENDBRANCH   7  10
ENDBRANCH   6   7
ENDBRANCH   3   6
ENDBRANCH   1   2
BRANCH   1  12
HETATM   12  C   UNL     1     -41.386 -52.633  12.932  1.00  0.00     0.025 A 
HETATM   13  C   UNL     1     -41.974 -51.673  12.131  1.00  0.00     0.077 A 
HETATM   14  S   UNL     1     -40.956 -50.307  12.001  1.00  0.00    -0.086 SA
HETATM   15  C   UNL     1     -39.779 -51.091  12.993  1.00  0.00     0.058 A 
HETATM   16  N   UNL     1     -40.139 -52.285  13.425  1.00  0.00    -0.356 N 
ATOM     17  HN  UNL     1     -39.574 -52.872  14.040  1.00  0.00     0.166 HD
BRANCH  15  18
HETATM   18  C   UNL     1     -38.437 -50.436  13.310  1.00  0.00    -0.002 C 
HETATM   19  C   UNL     1     -38.530 -48.905  13.183  1.00  0.00     0.021 C 
HETATM   20  C   UNL     1     -38.023 -50.771  14.760  1.00  0.00     0.021 C 
HETATM   21  C   UNL     1     -37.339 -50.970  12.371  1.00  0.00     0.021 C 
ENDBRANCH  15  18
ENDBRANCH   1  12
TORSDOF 6
ENDMDL
MODEL 9
REMARK VINA RESULT:      -5.2      2.590      5.784
REMARK  6 active torsions:
REMARK  status: ('A' for Active; 'I' for Inactive)
REMARK    1  A    between atoms: C_2  and  C_3 
REMARK    2  A    between atoms: C_3  and  C_4 
REMARK    3  A    between atoms: C_4  and  N_5 
REMARK       I    between atoms: N_5  and  C_6 
REMARK    4  A    between atoms: C_6  and  C_8 
REMARK    5  A    between atoms: C_8  and  C_9 
REMARK    6  A    between atoms: C_12  and  C_15 
ROOT
HETATM    1  C   UNL     1     -41.304 -52.592  11.889  1.00  0.00     0.160 C 
ENDROOT
BRANCH   1   2
HETATM    2  C   UNL     1     -40.683 -51.292  12.347  1.00  0.00     0.223 C 
HETATM    3  N   UNL     1     -40.173 -50.489  11.341  1.00  0.00    -0.360 N 
HETATM    4  H   UNL     1     -40.429 -50.684  10.381  1.00  0.00     0.162 HD
HETATM    5  O   UNL     1     -40.646 -50.975  13.536  1.00  0.00    -0.273 OA
BRANCH   3   6
HETATM    6  C   UNL     1     -39.644 -49.198  11.706  1.00  0.00     0.132 C 
BRANCH   6   7
HETATM    7  C   UNL     1     -40.577 -48.013  11.545  1.00  0.00    -0.025 A 
HETATM    8  C   UNL     1     -40.591 -46.878  12.554  1.00  0.00     0.012 A 
HETATM    9  C   UNL     1     -40.012 -46.649  11.185  1.00  0.00     0.012 A 
BRANCH   7  10
HETATM   10  C   UNL     1     -41.899 -48.385  10.886  1.00  0.00     0.006 C 
HETATM   11  C   UNL     1     -43.048 -48.501  11.879  1.00  0.00     0.006 C 
ENDBRANCH   7  10
ENDBRANCH   6   7
ENDBRANCH   3   6
ENDBRANCH   1   2
BRANCH   1  12
HETATM   12  C   UNL     1     -42.411 -53.014  12.789  1.00  0.00     0.025 A 
HETATM   13  C   UNL     1     -42.459 -54.155  13.567  1.00  0.00     0.077 A 
HETATM   14  S   UNL     1     -43.945 -54.235  14.407  1.00  0.00    -0.086 SA
HETATM   15  C   UNL     1     -44.447 -52.763  13.657  1.00  0.00     0.058 A 
HETATM   16  N   UNL     1     -43.546 -52.224  12.857  1.00  0.00    -0.356 N 
ATOM     17  HN  UNL     1     -43.670 -51.343  12.356  1.00  0.00     0.166 HD
BRANCH  15  18
HETATM   18  C   UNL     1     -45.830 -52.169  13.909  1.00  0.00    -0.002 C 
HETATM   19  C   UNL     1     -46.439 -51.623  12.605  1.00  0.00     0.021 C 
HETATM   20  C   UNL     1     -46.776 -53.262  14.455  1.00  0.00     0.021 C 
HETATM   21  C   UNL     1     -45.754 -51.044  14.958  1.00  0.00     0.021 C 
ENDBRANCH  15  18
ENDBRANCH   1  12
TORSDOF 6
ENDMDL
