MODEL 1
REMARK VINA RESULT:      -6.2      0.000      0.000
REMARK  3 active torsions:
REMARK  status: ('A' for Active; 'I' for Inactive)
REMARK    1  A    between atoms: C_2  and  C_4 
REMARK       I    between atoms: N_10  and  C_11 
REMARK       I    between atoms: C_11  and  N_13 
REMARK    2  A    between atoms: N_13  and  C_14 
REMARK    3  A    between atoms: C_14  and  C_15 
ROOT
HETATM    1  C   UNL     1     -42.820 -47.188   9.564  1.00  0.00     0.073 A 
HETATM    2  N   UNL     1     -42.347 -48.413   9.456  1.00  0.00    -0.296 N 
ATOM      3  HN  UNL     1     -42.723 -49.114   8.818  1.00  0.00     0.187 HD
HETATM    4  N   UNL     1     -41.289 -48.634  10.299  1.00  0.00    -0.279 N 
ATOM      5  HN  UNL     1     -40.793 -49.522  10.373  1.00  0.00     0.189 HD
HETATM    6  C   UNL     1     -40.992 -47.567  10.998  1.00  0.00     0.169 A 
HETATM    7  N   UNL     1     -40.030 -47.432  11.957  1.00  0.00    -0.288 N 
HETATM    8  C   UNL     1     -39.303 -48.460  12.478  1.00  0.00     0.322 C 
HETATM    9  O   UNL     1     -38.476 -48.231  13.358  1.00  0.00    -0.247 OA
HETATM   10  N   UNL     1     -39.589 -49.717  12.038  1.00  0.00    -0.340 N 
HETATM   11  S   UNL     1     -41.949 -46.197  10.675  1.00  0.00    -0.037 SA
HETATM   12  H   UNL     1     -39.873 -46.524  12.370  1.00  0.00     0.172 HD
HETATM   13  H   UNL     1     -39.995 -49.798  11.108  1.00  0.00     0.164 HD
ENDROOT
BRANCH  10  14
HETATM   14  C   UNL     1     -38.878 -50.879  12.531  1.00  0.00     0.156 C 
BRANCH  14  15
HETATM   15  C   UNL     1     -39.811 -51.890  13.199  1.00  0.00     0.139 C 
HETATM   16  C   UNL     1     -39.073 -52.812  14.159  1.00  0.00     0.035 C 
HETATM   17  C   UNL     1     -39.714 -54.170  13.966  1.00  0.00     0.029 C 
HETATM   18  C   UNL     1     -40.781 -53.952  12.915  1.00  0.00     0.168 C 
HETATM   19  O   UNL     1     -40.407 -52.759  12.220  1.00  0.00    -0.384 OA
ENDBRANCH  14  15
ENDBRANCH  10  14
BRANCH   1  20
HETATM   20  C   UNL     1     -44.000 -46.678   8.791  1.00  0.00     0.036 C 
HETATM   21  C   UNL     1     -45.238 -47.508   9.131  1.00  0.00     0.016 C 
HETATM   22  C   UNL     1     -44.243 -45.201   9.117  1.00  0.00     0.016 C 
ENDBRANCH   1  20
TORSDOF 3
ENDMDL
MODEL 2
REMARK VINA RESULT:      -6.2      4.392      6.343
REMARK  3 active torsions:
REMARK  status: ('A' for Active; 'I' for Inactive)
REMARK    1  A    between atoms: C_2  and  C_4 
REMARK       I    between atoms: N_10  and  C_11 
REMARK       I    between atoms: C_11  and  N_13 
REMARK    2  A    between atoms: N_13  and  C_14 
REMARK    3  A    between atoms: C_14  and  C_15 
ROOT
HETATM    1  C   UNL     1     -39.415 -50.543  12.000  1.00  0.00     0.073 A 
HETATM    2  N   UNL     1     -40.468 -50.818  11.257  1.00  0.00    -0.296 N 
ATOM      3  HN  UNL     1     -40.705 -50.321  10.399  1.00  0.00     0.187 HD
HETATM    4  N   UNL     1     -41.208 -51.851  11.773  1.00  0.00    -0.279 N 
ATOM      5  HN  UNL     1     -42.067 -52.205  11.351  1.00  0.00     0.189 HD
HETATM    6  C   UNL     1     -40.679 -52.328  12.871  1.00  0.00     0.169 A 
HETATM    7  N   UNL     1     -41.159 -53.325  13.670  1.00  0.00    -0.288 N 
HETATM    8  C   UNL     1     -42.389 -53.897  13.544  1.00  0.00     0.322 C 
HETATM    9  O   UNL     1     -42.734 -54.773  14.335  1.00  0.00    -0.247 OA
HETATM   10  N   UNL     1     -43.213 -53.409  12.575  1.00  0.00    -0.340 N 
HETATM   11  S   UNL     1     -39.227 -51.587  13.360  1.00  0.00    -0.037 SA
HETATM   12  H   UNL     1     -40.606 -53.632  14.458  1.00  0.00     0.172 HD
HETATM   13  H   UNL     1     -42.768 -52.970  11.771  1.00  0.00     0.164 HD
ENDROOT
BRANCH  10  14
HETATM   14  C   UNL     1     -44.541 -53.944  12.359  1.00  0.00     0.156 C 
BRANCH  14  15
HETATM   15  C   UNL     1     -45.634 -53.015  12.891  1.00  0.00     0.139 C 
HETATM   16  C   UNL     1     -45.094 -51.645  13.272  1.00  0.00     0.035 C 
HETATM   17  C   UNL     1     -45.845 -51.264  14.530  1.00  0.00     0.029 C 
HETATM   18  C   UNL     1     -46.772 -52.429  14.798  1.00  0.00     0.168 C 
HETATM   19  O   UNL     1     -46.211 -53.544  14.098  1.00  0.00    -0.384 OA
ENDBRANCH  14  15
ENDBRANCH  10  14
BRANCH   1  20
HETATM   20  C   UNL     1     -38.449 -49.437  11.699  1.00  0.00     0.036 C 
HETATM   21  C   UNL     1     -38.005 -48.770  13.002  1.00  0.00     0.016 C 
HETATM   22  C   UNL     1     -37.235 -49.990  10.944  1.00  0.00     0.016 C 
ENDBRANCH   1  20
TORSDOF 3
ENDMDL
MODEL 3
REMARK VINA RESULT:      -6.1      3.581      4.958
REMARK  3 active torsions:
REMARK  status: ('A' for Active; 'I' for Inactive)
REMARK    1  A    between atoms: C_2  and  C_4 
REMARK       I    between atoms: N_10  and  C_11 
REMARK       I    between atoms: C_11  and  N_13 
REMARK    2  A    between atoms: N_13  and  C_14 
REMARK    3  A    between atoms: C_14  and  C_15 
ROOT
HETATM    1  C   UNL     1     -40.761 -48.404  11.323  1.00  0.00     0.073 A 
HETATM    2  N   UNL     1     -41.966 -48.894  11.113  1.00  0.00    -0.296 N 
ATOM      3  HN  UNL     1     -42.758 -48.340  10.789  1.00  0.00     0.187 HD
HETATM    4  N   UNL     1     -42.030 -50.238  11.379  1.00  0.00    -0.279 N 
ATOM      5  HN  UNL     1     -42.878 -50.799  11.289  1.00  0.00     0.189 HD
HETATM    6  C   UNL     1     -40.872 -50.714  11.762  1.00  0.00     0.169 A 
HETATM    7  N   UNL     1     -40.573 -51.990  12.143  1.00  0.00    -0.288 N 
HETATM    8  C   UNL     1     -41.492 -52.974  12.351  1.00  0.00     0.322 C 
HETATM    9  O   UNL     1     -41.117 -54.086  12.719  1.00  0.00    -0.247 OA
HETATM   10  N   UNL     1     -42.807 -52.646  12.207  1.00  0.00    -0.340 N 
HETATM   11  S   UNL     1     -39.600 -49.584  11.807  1.00  0.00    -0.037 SA
HETATM   12  H   UNL     1     -39.614 -52.227  12.354  1.00  0.00     0.172 HD
HETATM   13  H   UNL     1     -43.022 -51.868  11.586  1.00  0.00     0.164 HD
ENDROOT
BRANCH  10  14
HETATM   14  C   UNL     1     -43.863 -53.616  12.409  1.00  0.00     0.156 C 
BRANCH  14  15
HETATM   15  C   UNL     1     -45.206 -52.955  12.724  1.00  0.00     0.139 C 
HETATM   16  C   UNL     1     -45.043 -51.539  13.255  1.00  0.00     0.035 C 
HETATM   17  C   UNL     1     -46.095 -51.403  14.335  1.00  0.00     0.029 C 
HETATM   18  C   UNL     1     -46.802 -52.740  14.361  1.00  0.00     0.168 C 
HETATM   19  O   UNL     1     -45.898 -53.673  13.761  1.00  0.00    -0.384 OA
ENDBRANCH  14  15
ENDBRANCH  10  14
BRANCH   1  20
HETATM   20  C   UNL     1     -40.409 -46.957  11.151  1.00  0.00     0.036 C 
HETATM   21  C   UNL     1     -41.657 -46.163  10.763  1.00  0.00     0.016 C 
HETATM   22  C   UNL     1     -39.808 -46.404  12.447  1.00  0.00     0.016 C 
ENDBRANCH   1  20
TORSDOF 3
ENDMDL
MODEL 4
REMARK VINA RESULT:      -5.8      4.436      5.508
REMARK  3 active torsions:
REMARK  status: ('A' for Active; 'I' for Inactive)
REMARK    1  A    between atoms: C_2  and  C_4 
REMARK       I    between atoms: N_10  and  C_11 
REMARK       I    between atoms: C_11  and  N_13 
REMARK    2  A    between atoms: N_13  and  C_14 
REMARK    3  A    between atoms: C_14  and  C_15 
ROOT
HETATM    1  C   UNL     1     -44.570 -51.719  13.561  1.00  0.00     0.073 A 
HETATM    2  N   UNL     1     -43.707 -51.041  14.291  1.00  0.00    -0.296 N 
ATOM      3  HN  UNL     1     -43.932 -50.175  14.780  1.00  0.00     0.187 HD
HETATM    4  N   UNL     1     -42.472 -51.636  14.316  1.00  0.00    -0.279 N 
ATOM      5  HN  UNL     1     -41.666 -51.260  14.815  1.00  0.00     0.189 HD
HETATM    6  C   UNL     1     -42.452 -52.746  13.622  1.00  0.00     0.169 A 
HETATM    7  N   UNL     1     -41.393 -53.576  13.394  1.00  0.00    -0.288 N 
HETATM    8  C   UNL     1     -40.102 -53.296  13.726  1.00  0.00     0.322 C 
HETATM    9  O   UNL     1     -39.217 -54.104  13.454  1.00  0.00    -0.247 OA
HETATM   10  N   UNL     1     -39.848 -52.081  14.288  1.00  0.00    -0.340 N 
HETATM   11  S   UNL     1     -43.932 -53.180  12.902  1.00  0.00    -0.037 SA
HETATM   12  H   UNL     1     -41.544 -54.437  12.888  1.00  0.00     0.172 HD
HETATM   13  H   UNL     1     -40.613 -51.638  14.793  1.00  0.00     0.164 HD
ENDROOT
BRANCH  10  14
HETATM   14  C   UNL     1     -38.510 -51.682  14.674  1.00  0.00     0.156 C 
BRANCH  14  15
HETATM   15  C   UNL     1     -37.895 -50.684  13.692  1.00  0.00     0.139 C 
HETATM   16  C   UNL     1     -38.914 -49.679  13.176  1.00  0.00     0.035 C 
HETATM   17  C   UNL     1     -38.566 -49.485  11.715  1.00  0.00     0.029 C 
HETATM   18  C   UNL     1     -37.371 -50.381  11.477  1.00  0.00     0.168 C 
HETATM   19  O   UNL     1     -37.400 -51.358  12.522  1.00  0.00    -0.384 OA
ENDBRANCH  14  15
ENDBRANCH  10  14
BRANCH   1  20
HETATM   20  C   UNL     1     -45.985 -51.284  13.324  1.00  0.00     0.036 C 
HETATM   21  C   UNL     1     -46.593 -52.100  12.183  1.00  0.00     0.016 C 
HETATM   22  C   UNL     1     -46.810 -51.460  14.603  1.00  0.00     0.016 C 
ENDBRANCH   1  20
TORSDOF 3
ENDMDL
MODEL 5
REMARK VINA RESULT:      -5.7      3.122      4.411
REMARK  3 active torsions:
REMARK  status: ('A' for Active; 'I' for Inactive)
REMARK    1  A    between atoms: C_2  and  C_4 
REMARK       I    between atoms: N_10  and  C_11 
REMARK       I    between atoms: C_11  and  N_13 
REMARK    2  A    between atoms: N_13  and  C_14 
REMARK    3  A    between atoms: C_14  and  C_15 
ROOT
HETATM    1  C   UNL     1     -42.086 -48.740  11.412  1.00  0.00     0.073 A 
HETATM    2  N   UNL     1     -42.995 -49.580  11.863  1.00  0.00    -0.296 N 
ATOM      3  HN  UNL     1     -43.985 -49.354  11.952  1.00  0.00     0.187 HD
HETATM    4  N   UNL     1     -42.454 -50.794  12.199  1.00  0.00    -0.279 N 
ATOM      5  HN  UNL     1     -42.991 -51.574  12.579  1.00  0.00     0.189 HD
HETATM    6  C   UNL     1     -41.165 -50.833  11.974  1.00  0.00     0.169 A 
HETATM    7  N   UNL     1     -40.298 -51.857  12.223  1.00  0.00    -0.288 N 
HETATM    8  C   UNL     1     -40.610 -52.986  12.919  1.00  0.00     0.322 C 
HETATM    9  O   UNL     1     -39.746 -53.839  13.109  1.00  0.00    -0.247 OA
HETATM   10  N   UNL     1     -41.867 -53.077  13.438  1.00  0.00    -0.340 N 
HETATM   11  S   UNL     1     -40.501 -49.413  11.310  1.00  0.00    -0.037 SA
HETATM   12  H   UNL     1     -39.334 -51.766  11.936  1.00  0.00     0.172 HD
HETATM   13  H   UNL     1     -42.599 -52.548  12.967  1.00  0.00     0.164 HD
ENDROOT
BRANCH  10  14
HETATM   14  C   UNL     1     -42.299 -54.232  14.197  1.00  0.00     0.156 C 
BRANCH  14  15
HETATM   15  C   UNL     1     -43.787 -54.528  14.007  1.00  0.00     0.139 C 
HETATM   16  C   UNL     1     -44.378 -53.783  12.820  1.00  0.00     0.035 C 
HETATM   17  C   UNL     1     -45.758 -53.356  13.273  1.00  0.00     0.029 C 
HETATM   18  C   UNL     1     -45.883 -53.880  14.687  1.00  0.00     0.168 C 
HETATM   19  O   UNL     1     -44.545 -54.085  15.148  1.00  0.00    -0.384 OA
ENDBRANCH  14  15
ENDBRANCH  10  14
BRANCH   1  20
HETATM   20  C   UNL     1     -42.384 -47.328  11.005  1.00  0.00     0.036 C 
HETATM   21  C   UNL     1     -41.082 -46.601  10.670  1.00  0.00     0.016 C 
HETATM   22  C   UNL     1     -43.327 -47.317   9.797  1.00  0.00     0.016 C 
ENDBRANCH   1  20
TORSDOF 3
ENDMDL
MODEL 6
REMARK VINA RESULT:      -5.7      3.875      5.362
REMARK  3 active torsions:
REMARK  status: ('A' for Active; 'I' for Inactive)
REMARK    1  A    between atoms: C_2  and  C_4 
REMARK       I    between atoms: N_10  and  C_11 
REMARK       I    between atoms: C_11  and  N_13 
REMARK    2  A    between atoms: N_13  and  C_14 
REMARK    3  A    between atoms: C_14  and  C_15 
ROOT
HETATM    1  C   UNL     1     -44.805 -51.907  13.199  1.00  0.00     0.073 A 
HETATM    2  N   UNL     1     -44.257 -50.810  12.715  1.00  0.00    -0.296 N 
ATOM      3  HN  UNL     1     -44.790 -50.015  12.364  1.00  0.00     0.187 HD
HETATM    4  N   UNL     1     -42.887 -50.863  12.740  1.00  0.00    -0.279 N 
ATOM      5  HN  UNL     1     -42.280 -50.118  12.399  1.00  0.00     0.189 HD
HETATM    6  C   UNL     1     -42.453 -51.986  13.256  1.00  0.00     0.169 A 
HETATM    7  N   UNL     1     -41.160 -52.397  13.404  1.00  0.00    -0.288 N 
HETATM    8  C   UNL     1     -40.077 -51.761  12.875  1.00  0.00     0.322 C 
HETATM    9  O   UNL     1     -38.954 -52.231  13.047  1.00  0.00    -0.247 OA
HETATM   10  N   UNL     1     -40.309 -50.657  12.110  1.00  0.00    -0.340 N 
HETATM   11  S   UNL     1     -43.663 -53.061  13.779  1.00  0.00    -0.037 SA
HETATM   12  H   UNL     1     -40.973 -53.268  13.880  1.00  0.00     0.172 HD
HETATM   13  H   UNL     1     -41.166 -50.139  12.297  1.00  0.00     0.164 HD
ENDROOT
BRANCH  10  14
HETATM   14  C   UNL     1     -39.228 -49.910  11.500  1.00  0.00     0.156 C 
BRANCH  14  15
HETATM   15  C   UNL     1     -38.921 -48.615  12.253  1.00  0.00     0.139 C 
HETATM   16  C   UNL     1     -37.858 -48.807  13.324  1.00  0.00     0.035 C 
HETATM   17  C   UNL     1     -38.316 -47.952  14.487  1.00  0.00     0.029 C 
HETATM   18  C   UNL     1     -39.606 -47.317  14.019  1.00  0.00     0.168 C 
HETATM   19  O   UNL     1     -40.085 -48.143  12.953  1.00  0.00    -0.384 OA
ENDBRANCH  14  15
ENDBRANCH  10  14
BRANCH   1  20
HETATM   20  C   UNL     1     -46.284 -52.142  13.259  1.00  0.00     0.036 C 
HETATM   21  C   UNL     1     -46.876 -51.409  14.463  1.00  0.00     0.016 C 
HETATM   22  C   UNL     1     -46.947 -51.660  11.964  1.00  0.00     0.016 C 
ENDBRANCH   1  20
TORSDOF 3
ENDMDL
MODEL 7
REMARK VINA RESULT:      -5.5      3.701      6.061
REMARK  3 active torsions:
REMARK  status: ('A' for Active; 'I' for Inactive)
REMARK    1  A    between atoms: C_2  and  C_4 
REMARK       I    between atoms: N_10  and  C_11 
REMARK       I    between atoms: C_11  and  N_13 
REMARK    2  A    between atoms: N_13  and  C_14 
REMARK    3  A    between atoms: C_14  and  C_15 
ROOT
HETATM    1  C   UNL     1     -42.611 -53.889  13.504  1.00  0.00     0.073 A 
HETATM    2  N   UNL     1     -41.333 -53.906  13.184  1.00  0.00    -0.296 N 
ATOM      3  HN  UNL     1     -40.701 -54.677  13.400  1.00  0.00     0.187 HD
HETATM    4  N   UNL     1     -40.951 -52.765  12.526  1.00  0.00    -0.279 N 
ATOM      5  HN  UNL     1     -40.000 -52.581  12.206  1.00  0.00     0.189 HD
HETATM    6  C   UNL     1     -41.954 -51.940  12.358  1.00  0.00     0.169 A 
HETATM    7  N   UNL     1     -41.937 -50.702  11.784  1.00  0.00    -0.288 N 
HETATM    8  C   UNL     1     -40.809 -50.029  11.424  1.00  0.00     0.322 C 
HETATM    9  O   UNL     1     -40.904 -48.904  10.935  1.00  0.00    -0.247 OA
HETATM   10  N   UNL     1     -39.611 -50.619  11.696  1.00  0.00    -0.340 N 
HETATM   11  S   UNL     1     -43.451 -52.485  12.958  1.00  0.00    -0.037 SA
HETATM   12  H   UNL     1     -42.807 -50.204  11.666  1.00  0.00     0.172 HD
HETATM   13  H   UNL     1     -39.602 -51.635  11.757  1.00  0.00     0.164 HD
ENDROOT
BRANCH  10  14
HETATM   14  C   UNL     1     -38.353 -49.986  11.358  1.00  0.00     0.156 C 
BRANCH  14  15
HETATM   15  C   UNL     1     -37.550 -49.592  12.598  1.00  0.00     0.139 C 
HETATM   16  C   UNL     1     -37.497 -50.707  13.632  1.00  0.00     0.035 C 
HETATM   17  C   UNL     1     -37.613 -50.006  14.969  1.00  0.00     0.029 C 
HETATM   18  C   UNL     1     -37.720 -48.536  14.631  1.00  0.00     0.168 C 
HETATM   19  O   UNL     1     -38.164 -48.479  13.272  1.00  0.00    -0.384 OA
ENDBRANCH  14  15
ENDBRANCH  10  14
BRANCH   1  20
HETATM   20  C   UNL     1     -43.294 -54.987  14.262  1.00  0.00     0.036 C 
HETATM   21  C   UNL     1     -42.902 -54.918  15.738  1.00  0.00     0.016 C 
HETATM   22  C   UNL     1     -44.814 -54.865  14.109  1.00  0.00     0.016 C 
ENDBRANCH   1  20
TORSDOF 3
ENDMDL
MODEL 8
REMARK VINA RESULT:      -5.5      1.673      2.071
REMARK  3 active torsions:
REMARK  status: ('A' for Active; 'I' for Inactive)
REMARK    1  A    between atoms: C_2  and  C_4 
REMARK       I    between atoms: N_10  and  C_11 
REMARK       I    between atoms: C_11  and  N_13 
REMARK    2  A    between atoms: N_13  and  C_14 
REMARK    3  A    between atoms: C_14  and  C_15 
ROOT
HETATM    1  C   UNL     1     -42.721 -47.211   9.530  1.00  0.00     0.073 A 
HETATM    2  N   UNL     1     -41.886 -48.229   9.592  1.00  0.00    -0.296 N 
ATOM      3  HN  UNL     1     -41.945 -49.051   8.992  1.00  0.00     0.187 HD
HETATM    4  N   UNL     1     -40.929 -48.053  10.558  1.00  0.00    -0.279 N 
ATOM      5  HN  UNL     1     -40.199 -48.734  10.771  1.00  0.00     0.189 HD
HETATM    6  C   UNL     1     -41.065 -46.907  11.176  1.00  0.00     0.169 A 
HETATM    7  N   UNL     1     -40.322 -46.416  12.210  1.00  0.00    -0.288 N 
HETATM    8  C   UNL     1     -39.390 -47.128  12.903  1.00  0.00     0.322 C 
HETATM    9  O   UNL     1     -38.792 -46.598  13.837  1.00  0.00    -0.247 OA
HETATM   10  N   UNL     1     -39.218 -48.436  12.562  1.00  0.00    -0.340 N 
HETATM   11  S   UNL     1     -42.344 -45.930  10.622  1.00  0.00    -0.037 SA
HETATM   12  H   UNL     1     -40.504 -45.481  12.545  1.00  0.00     0.172 HD
HETATM   13  H   UNL     1     -39.457 -48.699  11.607  1.00  0.00     0.164 HD
ENDROOT
BRANCH  10  14
HETATM   14  C   UNL     1     -38.256 -49.282  13.238  1.00  0.00     0.156 C 
BRANCH  14  15
HETATM   15  C   UNL     1     -38.898 -50.121  14.344  1.00  0.00     0.139 C 
HETATM   16  C   UNL     1     -38.189 -49.956  15.680  1.00  0.00     0.035 C 
HETATM   17  C   UNL     1     -38.189 -51.339  16.297  1.00  0.00     0.029 C 
HETATM   18  C   UNL     1     -38.898 -52.215  15.288  1.00  0.00     0.168 C 
HETATM   19  O   UNL     1     -38.808 -51.524  14.038  1.00  0.00    -0.384 OA
ENDBRANCH  14  15
ENDBRANCH  10  14
BRANCH   1  20
HETATM   20  C   UNL     1     -43.889 -47.148   8.593  1.00  0.00     0.036 C 
HETATM   21  C   UNL     1     -43.671 -48.115   7.428  1.00  0.00     0.016 C 
HETATM   22  C   UNL     1     -45.181 -47.497   9.339  1.00  0.00     0.016 C 
ENDBRANCH   1  20
TORSDOF 3
ENDMDL
MODEL 9
REMARK VINA RESULT:      -5.3      4.658      6.619
REMARK  3 active torsions:
REMARK  status: ('A' for Active; 'I' for Inactive)
REMARK    1  A    between atoms: C_2  and  C_4 
REMARK       I    between atoms: N_10  and  C_11 
REMARK       I    between atoms: C_11  and  N_13 
REMARK    2  A    between atoms: N_13  and  C_14 
REMARK    3  A    between atoms: C_14  and  C_15 
ROOT
HETATM    1  C   UNL     1     -39.502 -50.672  13.109  1.00  0.00     0.073 A 
HETATM    2  N   UNL     1     -40.100 -51.072  14.214  1.00  0.00    -0.296 N 
ATOM      3  HN  UNL     1     -39.699 -50.972  15.146  1.00  0.00     0.187 HD
HETATM    4  N   UNL     1     -41.324 -51.636  13.963  1.00  0.00    -0.279 N 
ATOM      5  HN  UNL     1     -41.936 -52.018  14.685  1.00  0.00     0.189 HD
HETATM    6  C   UNL     1     -41.612 -51.627  12.686  1.00  0.00     0.169 A 
HETATM    7  N   UNL     1     -42.719 -52.135  12.071  1.00  0.00    -0.288 N 
HETATM    8  C   UNL     1     -43.663 -52.905  12.682  1.00  0.00     0.322 C 
HETATM    9  O   UNL     1     -44.611 -53.334  12.028  1.00  0.00    -0.247 OA
HETATM   10  N   UNL     1     -43.461 -53.223  13.992  1.00  0.00    -0.340 N 
HETATM   11  S   UNL     1     -40.440 -50.909  11.682  1.00  0.00    -0.037 SA
HETATM   12  H   UNL     1     -42.836 -51.997  11.077  1.00  0.00     0.172 HD
HETATM   13  H   UNL     1     -42.893 -52.580  14.539  1.00  0.00     0.164 HD
ENDROOT
BRANCH  10  14
HETATM   14  C   UNL     1     -44.401 -54.039  14.733  1.00  0.00     0.156 C 
BRANCH  14  15
HETATM   15  C   UNL     1     -45.355 -53.198  15.583  1.00  0.00     0.139 C 
HETATM   16  C   UNL     1     -46.669 -52.916  14.869  1.00  0.00     0.035 C 
HETATM   17  C   UNL     1     -47.015 -51.488  15.237  1.00  0.00     0.029 C 
HETATM   18  C   UNL     1     -45.888 -51.034  16.138  1.00  0.00     0.168 C 
HETATM   19  O   UNL     1     -44.788 -51.904  15.858  1.00  0.00    -0.384 OA
ENDBRANCH  14  15
ENDBRANCH  10  14
BRANCH   1  20
HETATM   20  C   UNL     1     -38.137 -50.053  13.078  1.00  0.00     0.036 C 
HETATM   21  C   UNL     1     -37.581 -50.101  11.654  1.00  0.00     0.016 C 
HETATM   22  C   UNL     1     -38.204 -48.605  13.575  1.00  0.00     0.016 C 
ENDBRANCH   1  20
TORSDOF 3
ENDMDL
