MODEL 1
REMARK VINA RESULT:      -7.6      0.000      0.000
REMARK  3 active torsions:
REMARK  status: ('A' for Active; 'I' for Inactive)
REMARK       I    between atoms: C_2  and  N_3 
REMARK       I    between atoms: C_2  and  N_13 
REMARK    1  A    between atoms: N_3  and  C_4 
REMARK    2  A    between atoms: N_13  and  C_14 
REMARK    3  A    between atoms: C_17  and  N_21 
ROOT
HETATM    1  O   UNL     1     -41.893 -51.031  12.899  1.00  0.00    -0.247 OA
HETATM    2  C   UNL     1     -41.325 -51.385  11.873  1.00  0.00     0.321 C 
HETATM    3  N   UNL     1     -41.222 -52.698  11.480  1.00  0.00    -0.336 N 
HETATM    4  N   UNL     1     -40.677 -50.543  10.998  1.00  0.00    -0.308 N 
HETATM    5  H   UNL     1     -40.547 -52.900  10.760  1.00  0.00     0.164 HD
HETATM    6  H   UNL     1     -39.925 -50.969  10.477  1.00  0.00     0.170 HD
ENDROOT
BRANCH   4   7
HETATM    7  C   UNL     1     -40.518 -49.181  11.297  1.00  0.00     0.051 A 
HETATM    8  C   UNL     1     -41.370 -48.279  10.690  1.00  0.00     0.035 A 
HETATM    9  C   UNL     1     -41.138 -46.923  10.865  1.00  0.00     0.051 A 
HETATM   10  C   UNL     1     -40.102 -46.481  11.691  1.00  0.00     0.103 A 
HETATM   11  N   UNL     1     -39.326 -47.353  12.362  1.00  0.00    -0.350 N 
HETATM   12  C   UNL     1     -39.522 -48.677  12.132  1.00  0.00     0.119 A 
ATOM     13  HN  UNL     1     -38.616 -47.031  13.020  1.00  0.00     0.166 HD
BRANCH  10  14
HETATM   14  N   UNL     1     -39.914 -45.127  11.854  1.00  0.00    -0.367 N 
HETATM   15  C   UNL     1     -39.143 -44.621  12.979  1.00  0.00     0.124 C 
HETATM   16  C   UNL     1     -39.901 -43.398  13.512  1.00  0.00     0.020 C 
HETATM   17  C   UNL     1     -40.208 -42.381  12.404  1.00  0.00     0.003 C 
HETATM   18  C   UNL     1     -40.862 -43.035  11.185  1.00  0.00     0.020 C 
HETATM   19  C   UNL     1     -40.039 -44.230  10.715  1.00  0.00     0.124 C 
ENDBRANCH  10  14
ENDBRANCH   4   7
BRANCH   3  20
HETATM   20  C   UNL     1     -41.478 -53.755  12.443  1.00  0.00     0.121 C 
HETATM   21  C   UNL     1     -40.444 -53.846  13.577  1.00  0.00     0.057 C 
HETATM   22  C   UNL     1     -41.244 -54.185  14.835  1.00  0.00     0.275 C 
HETATM   23  N   UNL     1     -42.588 -54.470  14.340  1.00  0.00     0.095 N 
HETATM   24  C   UNL     1     -43.644 -54.341  15.334  1.00  0.00     0.273 C 
HETATM   25  C   UNL     1     -42.781 -53.554  13.212  1.00  0.00     0.245 C 
HETATM   26  C   UNL     1     -44.996 -54.658  14.680  1.00  0.00     0.030 C 
HETATM   27  C   UNL     1     -45.244 -53.813  13.426  1.00  0.00     0.004 C 
HETATM   28  C   UNL     1     -44.060 -53.906  12.460  1.00  0.00     0.038 C 
ENDBRANCH   3  20
TORSDOF 3
ENDMDL
MODEL 2
REMARK VINA RESULT:      -7.1      2.570      8.796
REMARK  3 active torsions:
REMARK  status: ('A' for Active; 'I' for Inactive)
REMARK       I    between atoms: C_2  and  N_3 
REMARK       I    between atoms: C_2  and  N_13 
REMARK    1  A    between atoms: N_3  and  C_4 
REMARK    2  A    between atoms: N_13  and  C_14 
REMARK    3  A    between atoms: C_17  and  N_21 
ROOT
HETATM    1  O   UNL     1     -40.931 -49.461  12.972  1.00  0.00    -0.247 OA
HETATM    2  C   UNL     1     -41.101 -49.939  11.856  1.00  0.00     0.321 C 
HETATM    3  N   UNL     1     -41.430 -49.187  10.754  1.00  0.00    -0.336 N 
HETATM    4  N   UNL     1     -41.032 -51.279  11.553  1.00  0.00    -0.308 N 
HETATM    5  H   UNL     1     -41.770 -49.691   9.951  1.00  0.00     0.164 HD
HETATM    6  H   UNL     1     -41.590 -51.564  10.762  1.00  0.00     0.170 HD
ENDROOT
BRANCH   4   7
HETATM    7  C   UNL     1     -40.873 -52.238  12.565  1.00  0.00     0.051 A 
HETATM    8  C   UNL     1     -41.965 -53.011  12.907  1.00  0.00     0.035 A 
HETATM    9  C   UNL     1     -41.863 -53.862  13.998  1.00  0.00     0.051 A 
HETATM   10  C   UNL     1     -40.659 -53.982  14.694  1.00  0.00     0.103 A 
HETATM   11  N   UNL     1     -39.561 -53.304  14.309  1.00  0.00    -0.350 N 
HETATM   12  C   UNL     1     -39.692 -52.426  13.281  1.00  0.00     0.119 A 
ATOM     13  HN  UNL     1     -38.664 -53.445  14.772  1.00  0.00     0.166 HD
BRANCH  10  14
HETATM   14  N   UNL     1     -40.591 -54.851  15.759  1.00  0.00    -0.367 N 
HETATM   15  C   UNL     1     -39.373 -54.958  16.546  1.00  0.00     0.124 C 
HETATM   16  C   UNL     1     -39.157 -56.453  16.815  1.00  0.00     0.020 C 
HETATM   17  C   UNL     1     -40.401 -57.117  17.421  1.00  0.00     0.003 C 
HETATM   18  C   UNL     1     -41.668 -56.806  16.621  1.00  0.00     0.020 C 
HETATM   19  C   UNL     1     -41.811 -55.302  16.412  1.00  0.00     0.124 C 
ENDBRANCH  10  14
ENDBRANCH   4   7
BRANCH   3  20
HETATM   20  C   UNL     1     -41.936 -47.837  10.933  1.00  0.00     0.121 C 
HETATM   21  C   UNL     1     -40.872 -46.736  10.793  1.00  0.00     0.057 C 
HETATM   22  C   UNL     1     -41.567 -45.585  10.065  1.00  0.00     0.275 C 
HETATM   23  N   UNL     1     -42.972 -45.981  10.024  1.00  0.00     0.095 N 
HETATM   24  C   UNL     1     -43.759 -45.331   8.987  1.00  0.00     0.273 C 
HETATM   25  C   UNL     1     -42.952 -47.438   9.866  1.00  0.00     0.245 C 
HETATM   26  C   UNL     1     -45.204 -45.843   9.052  1.00  0.00     0.030 C 
HETATM   27  C   UNL     1     -45.279 -47.372   8.993  1.00  0.00     0.004 C 
HETATM   28  C   UNL     1     -44.357 -48.006  10.038  1.00  0.00     0.038 C 
ENDBRANCH   3  20
TORSDOF 3
ENDMDL
MODEL 3
REMARK VINA RESULT:      -6.6      2.396      9.021
REMARK  3 active torsions:
REMARK  status: ('A' for Active; 'I' for Inactive)
REMARK       I    between atoms: C_2  and  N_3 
REMARK       I    between atoms: C_2  and  N_13 
REMARK    1  A    between atoms: N_3  and  C_4 
REMARK    2  A    between atoms: N_13  and  C_14 
REMARK    3  A    between atoms: C_17  and  N_21 
ROOT
HETATM    1  O   UNL     1     -40.565 -50.663  11.531  1.00  0.00    -0.247 OA
HETATM    2  C   UNL     1     -41.659 -50.386  12.010  1.00  0.00     0.321 C 
HETATM    3  N   UNL     1     -42.433 -49.337  11.575  1.00  0.00    -0.336 N 
HETATM    4  N   UNL     1     -42.247 -51.044  13.067  1.00  0.00    -0.308 N 
HETATM    5  H   UNL     1     -43.189 -49.057  12.176  1.00  0.00     0.164 HD
HETATM    6  H   UNL     1     -42.884 -50.484  13.613  1.00  0.00     0.170 HD
ENDROOT
BRANCH   4   7
HETATM    7  C   UNL     1     -41.552 -52.041  13.768  1.00  0.00     0.051 A 
HETATM    8  C   UNL     1     -41.668 -53.346  13.331  1.00  0.00     0.035 A 
HETATM    9  C   UNL     1     -41.103 -54.357  14.094  1.00  0.00     0.051 A 
HETATM   10  C   UNL     1     -40.376 -54.053  15.247  1.00  0.00     0.103 A 
HETATM   11  N   UNL     1     -40.176 -52.778  15.629  1.00  0.00    -0.350 N 
HETATM   12  C   UNL     1     -40.788 -51.803  14.910  1.00  0.00     0.119 A 
ATOM     13  HN  UNL     1     -39.586 -52.553  16.430  1.00  0.00     0.166 HD
BRANCH  10  14
HETATM   14  N   UNL     1     -39.814 -55.083  15.968  1.00  0.00    -0.367 N 
HETATM   15  C   UNL     1     -40.659 -56.037  16.669  1.00  0.00     0.124 C 
HETATM   16  C   UNL     1     -40.004 -56.277  18.036  1.00  0.00     0.020 C 
HETATM   17  C   UNL     1     -38.525 -56.668  17.907  1.00  0.00     0.003 C 
HETATM   18  C   UNL     1     -37.750 -55.702  17.007  1.00  0.00     0.020 C 
HETATM   19  C   UNL     1     -38.463 -55.531  15.669  1.00  0.00     0.124 C 
ENDBRANCH  10  14
ENDBRANCH   4   7
BRANCH   3  20
HETATM   20  C   UNL     1     -41.831 -48.294  10.761  1.00  0.00     0.121 C 
HETATM   21  C   UNL     1     -42.771 -47.692   9.703  1.00  0.00     0.057 C 
HETATM   22  C   UNL     1     -42.451 -46.198   9.675  1.00  0.00     0.275 C 
HETATM   23  N   UNL     1     -41.262 -46.068  10.512  1.00  0.00     0.095 N 
HETATM   24  C   UNL     1     -41.037 -44.734  11.048  1.00  0.00     0.273 C 
HETATM   25  C   UNL     1     -41.433 -47.064  11.573  1.00  0.00     0.245 C 
HETATM   26  C   UNL     1     -39.767 -44.742  11.911  1.00  0.00     0.030 C 
HETATM   27  C   UNL     1     -39.811 -45.826  12.994  1.00  0.00     0.004 C 
HETATM   28  C   UNL     1     -40.151 -47.190  12.389  1.00  0.00     0.038 C 
ENDBRANCH   3  20
TORSDOF 3
ENDMDL
MODEL 4
REMARK VINA RESULT:      -6.6      2.058      2.423
REMARK  3 active torsions:
REMARK  status: ('A' for Active; 'I' for Inactive)
REMARK       I    between atoms: C_2  and  N_3 
REMARK       I    between atoms: C_2  and  N_13 
REMARK    1  A    between atoms: N_3  and  C_4 
REMARK    2  A    between atoms: N_13  and  C_14 
REMARK    3  A    between atoms: C_17  and  N_21 
ROOT
HETATM    1  O   UNL     1     -42.422 -50.382  12.297  1.00  0.00    -0.247 OA
HETATM    2  C   UNL     1     -41.984 -50.443  13.440  1.00  0.00     0.321 C 
HETATM    3  N   UNL     1     -42.054 -51.575  14.217  1.00  0.00    -0.336 N 
HETATM    4  N   UNL     1     -41.405 -49.397  14.121  1.00  0.00    -0.308 N 
HETATM    5  H   UNL     1     -41.881 -51.455  15.202  1.00  0.00     0.164 HD
HETATM    6  H   UNL     1     -41.490 -49.446  15.125  1.00  0.00     0.170 HD
ENDROOT
BRANCH   4   7
HETATM    7  C   UNL     1     -41.384 -48.106  13.570  1.00  0.00     0.051 A 
HETATM    8  C   UNL     1     -42.524 -47.335  13.677  1.00  0.00     0.035 A 
HETATM    9  C   UNL     1     -42.567 -46.114  13.019  1.00  0.00     0.051 A 
HETATM   10  C   UNL     1     -41.454 -45.648  12.316  1.00  0.00     0.103 A 
HETATM   11  N   UNL     1     -40.305 -46.350  12.286  1.00  0.00    -0.350 N 
HETATM   12  C   UNL     1     -40.297 -47.571  12.880  1.00  0.00     0.119 A 
ATOM     13  HN  UNL     1     -39.470 -45.977  11.834  1.00  0.00     0.166 HD
BRANCH  10  14
HETATM   14  N   UNL     1     -41.528 -44.424  11.691  1.00  0.00    -0.367 N 
HETATM   15  C   UNL     1     -40.319 -43.666  11.411  1.00  0.00     0.124 C 
HETATM   16  C   UNL     1     -40.634 -42.203  11.753  1.00  0.00     0.020 C 
HETATM   17  C   UNL     1     -41.907 -41.707  11.053  1.00  0.00     0.003 C 
HETATM   18  C   UNL     1     -43.086 -42.661  11.258  1.00  0.00     0.020 C 
HETATM   19  C   UNL     1     -42.691 -44.086  10.885  1.00  0.00     0.124 C 
ENDBRANCH  10  14
ENDBRANCH   4   7
BRANCH   3  20
HETATM   20  C   UNL     1     -42.967 -52.642  13.846  1.00  0.00     0.121 C 
HETATM   21  C   UNL     1     -42.477 -54.053  14.211  1.00  0.00     0.057 C 
HETATM   22  C   UNL     1     -43.720 -54.812  14.672  1.00  0.00     0.275 C 
HETATM   23  N   UNL     1     -44.828 -53.915  14.356  1.00  0.00     0.095 N 
HETATM   24  C   UNL     1     -46.046 -54.159  15.115  1.00  0.00     0.273 C 
HETATM   25  C   UNL     1     -44.301 -52.566  14.584  1.00  0.00     0.245 C 
HETATM   26  C   UNL     1     -47.118 -53.145  14.692  1.00  0.00     0.030 C 
HETATM   27  C   UNL     1     -46.621 -51.699  14.801  1.00  0.00     0.004 C 
HETATM   28  C   UNL     1     -45.287 -51.522  14.071  1.00  0.00     0.038 C 
ENDBRANCH   3  20
TORSDOF 3
ENDMDL
MODEL 5
REMARK VINA RESULT:      -6.5      3.402      8.998
REMARK  3 active torsions:
REMARK  status: ('A' for Active; 'I' for Inactive)
REMARK       I    between atoms: C_2  and  N_3 
REMARK       I    between atoms: C_2  and  N_13 
REMARK    1  A    between atoms: N_3  and  C_4 
REMARK    2  A    between atoms: N_13  and  C_14 
REMARK    3  A    between atoms: C_17  and  N_21 
ROOT
HETATM    1  O   UNL     1     -43.099 -48.231  12.777  1.00  0.00    -0.247 OA
HETATM    2  C   UNL     1     -42.731 -49.254  12.211  1.00  0.00     0.321 C 
HETATM    3  N   UNL     1     -41.940 -49.254  11.086  1.00  0.00    -0.336 N 
HETATM    4  N   UNL     1     -43.084 -50.531  12.581  1.00  0.00    -0.308 N 
HETATM    5  H   UNL     1     -41.890 -50.118  10.573  1.00  0.00     0.164 HD
HETATM    6  H   UNL     1     -43.087 -51.205  11.829  1.00  0.00     0.170 HD
ENDROOT
BRANCH   4   7
HETATM    7  C   UNL     1     -44.021 -50.750  13.602  1.00  0.00     0.051 A 
HETATM    8  C   UNL     1     -43.618 -50.552  14.908  1.00  0.00     0.035 A 
HETATM    9  C   UNL     1     -44.487 -50.898  15.933  1.00  0.00     0.051 A 
HETATM   10  C   UNL     1     -45.767 -51.376  15.647  1.00  0.00     0.103 A 
HETATM   11  N   UNL     1     -46.203 -51.483  14.377  1.00  0.00    -0.350 N 
HETATM   12  C   UNL     1     -45.322 -51.203  13.384  1.00  0.00     0.119 A 
ATOM     13  HN  UNL     1     -47.161 -51.764  14.170  1.00  0.00     0.166 HD
BRANCH  10  14
HETATM   14  N   UNL     1     -46.607 -51.691  16.691  1.00  0.00    -0.367 N 
HETATM   15  C   UNL     1     -47.965 -51.171  16.727  1.00  0.00     0.124 C 
HETATM   16  C   UNL     1     -48.229 -50.742  18.176  1.00  0.00     0.020 C 
HETATM   17  C   UNL     1     -47.920 -51.865  19.176  1.00  0.00     0.003 C 
HETATM   18  C   UNL     1     -46.534 -52.473  18.951  1.00  0.00     0.020 C 
HETATM   19  C   UNL     1     -46.361 -52.881  17.491  1.00  0.00     0.124 C 
ENDBRANCH  10  14
ENDBRANCH   4   7
BRANCH   3  20
HETATM   20  C   UNL     1     -41.794 -48.032  10.315  1.00  0.00     0.121 C 
HETATM   21  C   UNL     1     -43.093 -47.534   9.660  1.00  0.00     0.057 C 
HETATM   22  C   UNL     1     -43.055 -46.011   9.781  1.00  0.00     0.275 C 
HETATM   23  N   UNL     1     -41.711 -45.722  10.273  1.00  0.00     0.095 N 
HETATM   24  C   UNL     1     -41.566 -44.432  10.930  1.00  0.00     0.273 C 
HETATM   25  C   UNL     1     -41.387 -46.834  11.170  1.00  0.00     0.245 C 
HETATM   26  C   UNL     1     -40.116 -44.264  11.403  1.00  0.00     0.030 C 
HETATM   27  C   UNL     1     -39.651 -45.437  12.273  1.00  0.00     0.004 C 
HETATM   28  C   UNL     1     -39.919 -46.774  11.576  1.00  0.00     0.038 C 
ENDBRANCH   3  20
TORSDOF 3
ENDMDL
MODEL 6
REMARK VINA RESULT:      -6.4      2.331      3.593
REMARK  3 active torsions:
REMARK  status: ('A' for Active; 'I' for Inactive)
REMARK       I    between atoms: C_2  and  N_3 
REMARK       I    between atoms: C_2  and  N_13 
REMARK    1  A    between atoms: N_3  and  C_4 
REMARK    2  A    between atoms: N_13  and  C_14 
REMARK    3  A    between atoms: C_17  and  N_21 
ROOT
HETATM    1  O   UNL     1     -40.789 -48.696  12.667  1.00  0.00    -0.247 OA
HETATM    2  C   UNL     1     -40.496 -48.834  11.486  1.00  0.00     0.321 C 
HETATM    3  N   UNL     1     -39.852 -49.942  10.989  1.00  0.00    -0.336 N 
HETATM    4  N   UNL     1     -40.723 -47.898  10.502  1.00  0.00    -0.308 N 
HETATM    5  H   UNL     1     -39.456 -49.857  10.068  1.00  0.00     0.164 HD
HETATM    6  H   UNL     1     -40.082 -47.937   9.724  1.00  0.00     0.170 HD
ENDROOT
BRANCH   4   7
HETATM    7  C   UNL     1     -41.219 -46.625  10.823  1.00  0.00     0.051 A 
HETATM    8  C   UNL     1     -40.349 -45.554  10.765  1.00  0.00     0.035 A 
HETATM    9  C   UNL     1     -40.786 -44.316  11.213  1.00  0.00     0.051 A 
HETATM   10  C   UNL     1     -42.100 -44.144  11.652  1.00  0.00     0.103 A 
HETATM   11  N   UNL     1     -42.983 -45.160  11.622  1.00  0.00    -0.350 N 
HETATM   12  C   UNL     1     -42.526 -46.381  11.243  1.00  0.00     0.119 A 
ATOM     13  HN  UNL     1     -43.961 -45.018  11.875  1.00  0.00     0.166 HD
BRANCH  10  14
HETATM   14  N   UNL     1     -42.503 -42.896  12.071  1.00  0.00    -0.367 N 
HETATM   15  C   UNL     1     -42.158 -42.420  13.402  1.00  0.00     0.124 C 
HETATM   16  C   UNL     1     -43.411 -41.727  13.954  1.00  0.00     0.020 C 
HETATM   17  C   UNL     1     -43.957 -40.666  12.989  1.00  0.00     0.003 C 
HETATM   18  C   UNL     1     -44.123 -41.210  11.568  1.00  0.00     0.020 C 
HETATM   19  C   UNL     1     -42.832 -41.869  11.095  1.00  0.00     0.124 C 
ENDBRANCH  10  14
ENDBRANCH   4   7
BRANCH   3  20
HETATM   20  C   UNL     1     -39.176 -50.846  11.904  1.00  0.00     0.121 C 
HETATM   21  C   UNL     1     -38.249 -50.152  12.915  1.00  0.00     0.057 C 
HETATM   22  C   UNL     1     -38.424 -50.920  14.225  1.00  0.00     0.275 C 
HETATM   23  N   UNL     1     -39.229 -52.081  13.857  1.00  0.00     0.095 N 
HETATM   24  C   UNL     1     -39.943 -52.702  14.963  1.00  0.00     0.273 C 
HETATM   25  C   UNL     1     -40.142 -51.597  12.818  1.00  0.00     0.245 C 
HETATM   26  C   UNL     1     -40.751 -53.896  14.436  1.00  0.00     0.030 C 
HETATM   27  C   UNL     1     -41.669 -53.506  13.272  1.00  0.00     0.004 C 
HETATM   28  C   UNL     1     -40.886 -52.767  12.183  1.00  0.00     0.038 C 
ENDBRANCH   3  20
TORSDOF 3
ENDMDL
MODEL 7
REMARK VINA RESULT:      -6.3     16.414     17.874
REMARK  3 active torsions:
REMARK  status: ('A' for Active; 'I' for Inactive)
REMARK       I    between atoms: C_2  and  N_3 
REMARK       I    between atoms: C_2  and  N_13 
REMARK    1  A    between atoms: N_3  and  C_4 
REMARK    2  A    between atoms: N_13  and  C_14 
REMARK    3  A    between atoms: C_17  and  N_21 
ROOT
HETATM    1  O   UNL     1     -48.951 -53.477  -3.923  1.00  0.00    -0.247 OA
HETATM    2  C   UNL     1     -48.614 -54.319  -3.100  1.00  0.00     0.321 C 
HETATM    3  N   UNL     1     -48.388 -55.638  -3.416  1.00  0.00    -0.336 N 
HETATM    4  N   UNL     1     -48.456 -54.088  -1.753  1.00  0.00    -0.308 N 
HETATM    5  H   UNL     1     -48.345 -56.284  -2.645  1.00  0.00     0.164 HD
HETATM    6  H   UNL     1     -48.605 -54.893  -1.164  1.00  0.00     0.170 HD
ENDROOT
BRANCH   4   7
HETATM    7  C   UNL     1     -48.798 -52.847  -1.192  1.00  0.00     0.051 A 
HETATM    8  C   UNL     1     -50.043 -52.718  -0.610  1.00  0.00     0.035 A 
HETATM    9  C   UNL     1     -50.449 -51.464  -0.178  1.00  0.00     0.051 A 
HETATM   10  C   UNL     1     -49.589 -50.368  -0.272  1.00  0.00     0.103 A 
HETATM   11  N   UNL     1     -48.338 -50.504  -0.751  1.00  0.00    -0.350 N 
HETATM   12  C   UNL     1     -47.976 -51.722  -1.229  1.00  0.00     0.119 A 
ATOM     13  HN  UNL     1     -47.686 -49.720  -0.753  1.00  0.00     0.166 HD
BRANCH  10  14
HETATM   14  N   UNL     1     -50.022 -49.144   0.185  1.00  0.00    -0.367 N 
HETATM   15  C   UNL     1     -49.110 -48.011   0.229  1.00  0.00     0.124 C 
HETATM   16  C   UNL     1     -49.373 -47.292   1.559  1.00  0.00     0.020 C 
HETATM   17  C   UNL     1     -50.859 -46.959   1.753  1.00  0.00     0.003 C 
HETATM   18  C   UNL     1     -51.758 -48.174   1.515  1.00  0.00     0.020 C 
HETATM   19  C   UNL     1     -51.440 -48.818   0.169  1.00  0.00     0.124 C 
ENDBRANCH  10  14
ENDBRANCH   4   7
BRANCH   3  20
HETATM   20  C   UNL     1     -48.880 -56.166  -4.676  1.00  0.00     0.121 C 
HETATM   21  C   UNL     1     -47.871 -57.042  -5.437  1.00  0.00     0.057 C 
HETATM   22  C   UNL     1     -48.692 -58.177  -6.047  1.00  0.00     0.275 C 
HETATM   23  N   UNL     1     -50.079 -57.791  -5.802  1.00  0.00     0.095 N 
HETATM   24  C   UNL     1     -51.032 -58.891  -5.834  1.00  0.00     0.273 C 
HETATM   25  C   UNL     1     -50.061 -57.118  -4.500  1.00  0.00     0.245 C 
HETATM   26  C   UNL     1     -52.440 -58.348  -5.552  1.00  0.00     0.030 C 
HETATM   27  C   UNL     1     -52.499 -57.538  -4.252  1.00  0.00     0.004 C 
HETATM   28  C   UNL     1     -51.411 -56.462  -4.228  1.00  0.00     0.038 C 
ENDBRANCH   3  20
TORSDOF 3
ENDMDL
MODEL 8
REMARK VINA RESULT:      -6.3     14.638     15.806
REMARK  3 active torsions:
REMARK  status: ('A' for Active; 'I' for Inactive)
REMARK       I    between atoms: C_2  and  N_3 
REMARK       I    between atoms: C_2  and  N_13 
REMARK    1  A    between atoms: N_3  and  C_4 
REMARK    2  A    between atoms: N_13  and  C_14 
REMARK    3  A    between atoms: C_17  and  N_21 
ROOT
HETATM    1  O   UNL     1     -50.357 -48.935  -1.163  1.00  0.00    -0.247 OA
HETATM    2  C   UNL     1     -50.070 -49.676  -0.230  1.00  0.00     0.321 C 
HETATM    3  N   UNL     1     -49.836 -51.022  -0.377  1.00  0.00    -0.336 N 
HETATM    4  N   UNL     1     -49.982 -49.288   1.087  1.00  0.00    -0.308 N 
HETATM    5  H   UNL     1     -49.839 -51.573   0.466  1.00  0.00     0.164 HD
HETATM    6  H   UNL     1     -50.168 -50.019   1.758  1.00  0.00     0.170 HD
ENDROOT
BRANCH   4   7
HETATM    7  C   UNL     1     -50.345 -47.990   1.480  1.00  0.00     0.051 A 
HETATM    8  C   UNL     1     -49.348 -47.043   1.596  1.00  0.00     0.035 A 
HETATM    9  C   UNL     1     -49.670 -45.798   2.117  1.00  0.00     0.051 A 
HETATM   10  C   UNL     1     -50.989 -45.490   2.454  1.00  0.00     0.103 A 
HETATM   11  N   UNL     1     -51.984 -46.374   2.255  1.00  0.00    -0.350 N 
HETATM   12  C   UNL     1     -51.646 -47.610   1.806  1.00  0.00     0.119 A 
ATOM     13  HN  UNL     1     -52.956 -46.125   2.434  1.00  0.00     0.166 HD
BRANCH  10  14
HETATM   14  N   UNL     1     -51.272 -44.237   2.951  1.00  0.00    -0.367 N 
HETATM   15  C   UNL     1     -50.197 -43.353   3.374  1.00  0.00     0.124 C 
HETATM   16  C   UNL     1     -50.661 -42.698   4.682  1.00  0.00     0.020 C 
HETATM   17  C   UNL     1     -52.044 -42.046   4.543  1.00  0.00     0.003 C 
HETATM   18  C   UNL     1     -53.071 -42.998   3.926  1.00  0.00     0.020 C 
HETATM   19  C   UNL     1     -52.536 -43.592   2.627  1.00  0.00     0.124 C 
ENDBRANCH  10  14
ENDBRANCH   4   7
BRANCH   3  20
HETATM   20  C   UNL     1     -50.265 -51.694  -1.592  1.00  0.00     0.121 C 
HETATM   21  C   UNL     1     -49.116 -52.138  -2.512  1.00  0.00     0.057 C 
HETATM   22  C   UNL     1     -49.540 -53.495  -3.072  1.00  0.00     0.275 C 
HETATM   23  N   UNL     1     -50.926 -53.646  -2.639  1.00  0.00     0.095 N 
HETATM   24  C   UNL     1     -51.409 -55.019  -2.607  1.00  0.00     0.273 C 
HETATM   25  C   UNL     1     -50.983 -53.014  -1.318  1.00  0.00     0.245 C 
HETATM   26  C   UNL     1     -52.867 -55.032  -2.129  1.00  0.00     0.030 C 
HETATM   27  C   UNL     1     -53.044 -54.301  -0.793  1.00  0.00     0.004 C 
HETATM   28  C   UNL     1     -52.430 -52.900  -0.850  1.00  0.00     0.038 C 
ENDBRANCH   3  20
TORSDOF 3
ENDMDL
MODEL 9
REMARK VINA RESULT:      -6.3      6.361     11.623
REMARK  3 active torsions:
REMARK  status: ('A' for Active; 'I' for Inactive)
REMARK       I    between atoms: C_2  and  N_3 
REMARK       I    between atoms: C_2  and  N_13 
REMARK    1  A    between atoms: N_3  and  C_4 
REMARK    2  A    between atoms: N_13  and  C_14 
REMARK    3  A    between atoms: C_17  and  N_21 
ROOT
HETATM    1  O   UNL     1     -38.616 -55.764  15.177  1.00  0.00    -0.247 OA
HETATM    2  C   UNL     1     -38.719 -54.785  15.907  1.00  0.00     0.321 C 
HETATM    3  N   UNL     1     -39.294 -53.602  15.508  1.00  0.00    -0.336 N 
HETATM    4  N   UNL     1     -38.243 -54.707  17.196  1.00  0.00    -0.308 N 
HETATM    5  H   UNL     1     -39.121 -52.800  16.092  1.00  0.00     0.164 HD
HETATM    6  H   UNL     1     -38.007 -53.777  17.506  1.00  0.00     0.170 HD
ENDROOT
BRANCH   4   7
HETATM    7  C   UNL     1     -37.475 -55.747  17.742  1.00  0.00     0.051 A 
HETATM    8  C   UNL     1     -36.101 -55.674  17.621  1.00  0.00     0.035 A 
HETATM    9  C   UNL     1     -35.338 -56.758  18.030  1.00  0.00     0.051 A 
HETATM   10  C   UNL     1     -35.944 -57.873  18.611  1.00  0.00     0.103 A 
HETATM   11  N   UNL     1     -37.273 -57.914  18.820  1.00  0.00    -0.350 N 
HETATM   12  C   UNL     1     -38.015 -56.875  18.357  1.00  0.00     0.119 A 
ATOM     13  HN  UNL     1     -37.707 -58.696  19.309  1.00  0.00     0.166 HD
BRANCH  10  14
HETATM   14  N   UNL     1     -35.151 -58.921  19.021  1.00  0.00    -0.367 N 
HETATM   15  C   UNL     1     -33.995 -58.682  19.871  1.00  0.00     0.124 C 
HETATM   16  C   UNL     1     -32.864 -59.566  19.328  1.00  0.00     0.020 C 
HETATM   17  C   UNL     1     -33.294 -61.033  19.187  1.00  0.00     0.003 C 
HETATM   18  C   UNL     1     -34.615 -61.176  18.427  1.00  0.00     0.020 C 
HETATM   19  C   UNL     1     -35.683 -60.275  19.039  1.00  0.00     0.124 C 
ENDBRANCH  10  14
ENDBRANCH   4   7
BRANCH   3  20
HETATM   20  C   UNL     1     -39.490 -53.343  14.092  1.00  0.00     0.121 C 
HETATM   21  C   UNL     1     -40.884 -53.718  13.564  1.00  0.00     0.057 C 
HETATM   22  C   UNL     1     -41.251 -52.624  12.563  1.00  0.00     0.275 C 
HETATM   23  N   UNL     1     -40.026 -51.844  12.416  1.00  0.00     0.095 N 
HETATM   24  C   UNL     1     -40.221 -50.489  11.921  1.00  0.00     0.273 C 
HETATM   25  C   UNL     1     -39.404 -51.858  13.743  1.00  0.00     0.245 C 
HETATM   26  C   UNL     1     -38.861 -49.784  11.825  1.00  0.00     0.030 C 
HETATM   27  C   UNL     1     -38.088 -49.835  13.147  1.00  0.00     0.004 C 
HETATM   28  C   UNL     1     -37.999 -51.270  13.674  1.00  0.00     0.038 C 
ENDBRANCH   3  20
TORSDOF 3
ENDMDL
