MODEL 1
REMARK VINA RESULT:      -6.3      0.000      0.000
REMARK  6 active torsions:
REMARK  status: ('A' for Active; 'I' for Inactive)
REMARK    1  A    between atoms: N_2  and  C_16 
REMARK    2  A    between atoms: C_3  and  N_7 
REMARK    3  A    between atoms: N_7  and  C_9 
REMARK    4  A    between atoms: C_16  and  C_18 
REMARK    5  A    between atoms: N_17  and  C_28 
REMARK    6  A    between atoms: C_18  and  O_24 
ROOT
HETATM    1  C   UNL     1     -42.112 -49.655  12.418  1.00  0.00     0.122 A 
HETATM    2  N   UNL     1     -42.748 -51.268  13.760  1.00  0.00    -0.324 N 
HETATM    3  C   UNL     1     -41.307 -49.081  11.399  1.00  0.00     0.135 A 
HETATM    4  C   UNL     1     -41.829 -50.961  12.791  1.00  0.00     0.140 A 
HETATM    5  N   UNL     1     -43.195 -49.180  13.141  1.00  0.00    -0.346 N 
ATOM      6  HN  UNL     1     -43.630 -48.260  13.071  1.00  0.00     0.167 HD
HETATM    7  C   UNL     1     -43.541 -50.168  13.937  1.00  0.00     0.185 A 
HETATM    8  N   UNL     1     -40.317 -49.875  10.888  1.00  0.00    -0.337 N 
ATOM      9  HN  UNL     1     -39.707 -49.522  10.151  1.00  0.00     0.168 HD
HETATM   10  N   UNL     1     -40.870 -51.767  12.305  1.00  0.00    -0.336 N 
ATOM     11  HN  UNL     1     -40.710 -52.728  12.607  1.00  0.00     0.168 HD
HETATM   12  C   UNL     1     -40.151 -51.127  11.364  1.00  0.00     0.183 A 
ENDROOT
BRANCH   3  13
HETATM   13  N   UNL     1     -41.523 -47.801  10.865  1.00  0.00    -0.364 N 
HETATM   14  C   UNL     1     -42.614 -47.722   9.902  1.00  0.00     0.151 C 
BRANCH  13  15
HETATM   15  C   UNL     1     -41.214 -46.661  11.761  1.00  0.00     0.092 C 
HETATM   16  C   UNL     1     -42.368 -45.643  11.910  1.00  0.00     0.033 C 
HETATM   17  C   UNL     1     -42.239 -44.444  10.950  1.00  0.00     0.278 C 
HETATM   18  C   UNL     1     -42.495 -45.204  13.377  1.00  0.00     0.014 C 
HETATM   19  N   UNL     1     -40.924 -43.811  10.846  1.00  0.00     0.088 N 
HETATM   20  C   UNL     1     -39.920 -44.816  10.479  1.00  0.00     0.274 C 
HETATM   21  C   UNL     1     -39.858 -46.021  11.412  1.00  0.00     0.056 C 
BRANCH  19  22
HETATM   22  C   UNL     1     -40.505 -42.977  11.978  1.00  0.00     0.268 C 
HETATM   23  C   UNL     1     -40.970 -41.525  11.892  1.00  0.00     0.037 C 
ENDBRANCH  19  22
ENDBRANCH  13  15
ENDBRANCH   3  13
BRANCH   2  24
HETATM   24  C   UNL     1     -42.793 -52.485  14.548  1.00  0.00     0.171 C 
BRANCH  24  25
HETATM   25  C   UNL     1     -43.516 -53.672  13.892  1.00  0.00     0.097 C 
HETATM   26  C   UNL     1     -45.016 -53.523  13.713  1.00  0.00     0.068 C 
HETATM   27  C   UNL     1     -45.515 -54.958  13.734  1.00  0.00     0.170 C 
HETATM   28  O   UNL     1     -44.584 -55.731  14.500  1.00  0.00    -0.388 OA
HETATM   29  C   UNL     1     -43.449 -54.906  14.803  1.00  0.00     0.207 C 
BRANCH  25  30
HETATM   30  O   UNL     1     -42.926 -54.012  12.630  1.00  0.00    -0.386 OA
HETATM   31  H   UNL     1     -43.492 -54.656  12.164  1.00  0.00     0.210 HD
ENDBRANCH  25  30
ENDBRANCH  24  25
ENDBRANCH   2  24
TORSDOF 6
ENDMDL
MODEL 2
REMARK VINA RESULT:      -6.2      3.298      8.034
REMARK  6 active torsions:
REMARK  status: ('A' for Active; 'I' for Inactive)
REMARK    1  A    between atoms: N_2  and  C_16 
REMARK    2  A    between atoms: C_3  and  N_7 
REMARK    3  A    between atoms: N_7  and  C_9 
REMARK    4  A    between atoms: C_16  and  C_18 
REMARK    5  A    between atoms: N_17  and  C_28 
REMARK    6  A    between atoms: C_18  and  O_24 
ROOT
HETATM    1  C   UNL     1     -41.533 -49.020  11.796  1.00  0.00     0.122 A 
HETATM    2  N   UNL     1     -41.380 -46.928  11.158  1.00  0.00    -0.324 N 
HETATM    3  C   UNL     1     -41.268 -50.117  12.658  1.00  0.00     0.135 A 
HETATM    4  C   UNL     1     -40.958 -47.802  12.125  1.00  0.00     0.140 A 
HETATM    5  N   UNL     1     -42.303 -48.887  10.652  1.00  0.00    -0.346 N 
ATOM      6  HN  UNL     1     -42.849 -49.611  10.186  1.00  0.00     0.167 HD
HETATM    7  C   UNL     1     -42.181 -47.627  10.296  1.00  0.00     0.185 A 
HETATM    8  N   UNL     1     -40.458 -49.866  13.730  1.00  0.00    -0.337 N 
ATOM      9  HN  UNL     1     -40.233 -50.612  14.389  1.00  0.00     0.168 HD
HETATM   10  N   UNL     1     -40.164 -47.521  13.173  1.00  0.00    -0.336 N 
ATOM     11  HN  UNL     1     -39.774 -46.601  13.377  1.00  0.00     0.168 HD
HETATM   12  C   UNL     1     -39.957 -48.626  13.914  1.00  0.00     0.183 A 
ENDROOT
BRANCH   3  13
HETATM   13  N   UNL     1     -41.842 -51.388  12.497  1.00  0.00    -0.364 N 
HETATM   14  C   UNL     1     -41.035 -52.325  11.725  1.00  0.00     0.151 C 
BRANCH  13  15
HETATM   15  C   UNL     1     -42.702 -51.860  13.607  1.00  0.00     0.092 C 
HETATM   16  C   UNL     1     -43.162 -53.330  13.472  1.00  0.00     0.033 C 
HETATM   17  C   UNL     1     -44.554 -53.467  12.827  1.00  0.00     0.278 C 
HETATM   18  C   UNL     1     -43.079 -54.035  14.835  1.00  0.00     0.014 C 
HETATM   19  N   UNL     1     -45.609 -52.580  13.319  1.00  0.00     0.088 N 
HETATM   20  C   UNL     1     -45.173 -51.184  13.201  1.00  0.00     0.274 C 
HETATM   21  C   UNL     1     -43.849 -50.872  13.893  1.00  0.00     0.056 C 
BRANCH  19  22
HETATM   22  C   UNL     1     -46.166 -52.891  14.640  1.00  0.00     0.268 C 
HETATM   23  C   UNL     1     -47.053 -51.791  15.220  1.00  0.00     0.037 C 
ENDBRANCH  19  22
ENDBRANCH  13  15
ENDBRANCH   3  13
BRANCH   2  24
HETATM   24  C   UNL     1     -40.956 -45.551  10.997  1.00  0.00     0.171 C 
BRANCH  24  25
HETATM   25  C   UNL     1     -42.010 -44.488  11.347  1.00  0.00     0.097 C 
HETATM   26  C   UNL     1     -41.489 -43.078  11.557  1.00  0.00     0.068 C 
HETATM   27  C   UNL     1     -42.505 -42.469  12.509  1.00  0.00     0.170 C 
HETATM   28  O   UNL     1     -43.085 -43.536  13.267  1.00  0.00    -0.388 OA
HETATM   29  C   UNL     1     -42.627 -44.782  12.721  1.00  0.00     0.207 C 
BRANCH  25  30
HETATM   30  O   UNL     1     -43.065 -44.457  10.377  1.00  0.00    -0.386 OA
HETATM   31  H   UNL     1     -43.789 -45.048  10.658  1.00  0.00     0.210 HD
ENDBRANCH  25  30
ENDBRANCH  24  25
ENDBRANCH   2  24
TORSDOF 6
ENDMDL
MODEL 3
REMARK VINA RESULT:      -6.1      3.304      8.100
REMARK  6 active torsions:
REMARK  status: ('A' for Active; 'I' for Inactive)
REMARK    1  A    between atoms: N_2  and  C_16 
REMARK    2  A    between atoms: C_3  and  N_7 
REMARK    3  A    between atoms: N_7  and  C_9 
REMARK    4  A    between atoms: C_16  and  C_18 
REMARK    5  A    between atoms: N_17  and  C_28 
REMARK    6  A    between atoms: C_18  and  O_24 
ROOT
HETATM    1  C   UNL     1     -40.967 -48.876  11.735  1.00  0.00     0.122 A 
HETATM    2  N   UNL     1     -41.213 -46.865  10.898  1.00  0.00    -0.324 N 
HETATM    3  C   UNL     1     -40.417 -49.831  12.631  1.00  0.00     0.135 A 
HETATM    4  C   UNL     1     -40.524 -47.568  11.851  1.00  0.00     0.140 A 
HETATM    5  N   UNL     1     -41.921 -48.966  10.733  1.00  0.00    -0.346 N 
ATOM      6  HN  UNL     1     -42.426 -49.800  10.433  1.00  0.00     0.167 HD
HETATM    7  C   UNL     1     -42.035 -47.748  10.252  1.00  0.00     0.185 A 
HETATM    8  N   UNL     1     -39.491 -49.364  13.522  1.00  0.00    -0.337 N 
ATOM      9  HN  UNL     1     -39.062 -49.999  14.195  1.00  0.00     0.168 HD
HETATM   10  N   UNL     1     -39.622 -47.076  12.718  1.00  0.00    -0.336 N 
ATOM     11  HN  UNL     1     -39.337 -46.099  12.770  1.00  0.00     0.168 HD
HETATM   12  C   UNL     1     -39.147 -48.059  13.507  1.00  0.00     0.183 A 
ENDROOT
BRANCH   3  13
HETATM   13  N   UNL     1     -40.825 -51.173  12.684  1.00  0.00    -0.364 N 
HETATM   14  C   UNL     1     -39.822 -52.092  13.205  1.00  0.00     0.151 C 
BRANCH  13  15
HETATM   15  C   UNL     1     -42.269 -51.406  12.924  1.00  0.00     0.092 C 
HETATM   16  C   UNL     1     -42.707 -51.201  14.392  1.00  0.00     0.033 C 
HETATM   17  C   UNL     1     -42.740 -52.514  15.198  1.00  0.00     0.278 C 
HETATM   18  C   UNL     1     -44.050 -50.454  14.441  1.00  0.00     0.014 C 
HETATM   19  N   UNL     1     -43.376 -53.670  14.565  1.00  0.00     0.088 N 
HETATM   20  C   UNL     1     -42.743 -53.932  13.268  1.00  0.00     0.274 C 
HETATM   21  C   UNL     1     -42.735 -52.741  12.314  1.00  0.00     0.056 C 
BRANCH  19  22
HETATM   22  C   UNL     1     -44.841 -53.656  14.490  1.00  0.00     0.268 C 
HETATM   23  C   UNL     1     -45.447 -54.900  13.845  1.00  0.00     0.037 C 
ENDBRANCH  19  22
ENDBRANCH  13  15
ENDBRANCH   3  13
BRANCH   2  24
HETATM   24  C   UNL     1     -41.018 -45.472  10.545  1.00  0.00     0.171 C 
BRANCH  24  25
HETATM   25  C   UNL     1     -42.096 -44.502  11.056  1.00  0.00     0.097 C 
HETATM   26  C   UNL     1     -41.650 -43.069  11.279  1.00  0.00     0.068 C 
HETATM   27  C   UNL     1     -42.595 -42.573  12.361  1.00  0.00     0.170 C 
HETATM   28  O   UNL     1     -43.018 -43.710  13.122  1.00  0.00    -0.388 OA
HETATM   29  C   UNL     1     -42.540 -44.897  12.471  1.00  0.00     0.207 C 
BRANCH  25  30
HETATM   30  O   UNL     1     -43.249 -44.506  10.204  1.00  0.00    -0.386 OA
HETATM   31  H   UNL     1     -43.595 -43.598  10.114  1.00  0.00     0.210 HD
ENDBRANCH  25  30
ENDBRANCH  24  25
ENDBRANCH   2  24
TORSDOF 6
ENDMDL
MODEL 4
REMARK VINA RESULT:      -6.1      3.876      5.642
REMARK  6 active torsions:
REMARK  status: ('A' for Active; 'I' for Inactive)
REMARK    1  A    between atoms: N_2  and  C_16 
REMARK    2  A    between atoms: C_3  and  N_7 
REMARK    3  A    between atoms: N_7  and  C_9 
REMARK    4  A    between atoms: C_16  and  C_18 
REMARK    5  A    between atoms: N_17  and  C_28 
REMARK    6  A    between atoms: C_18  and  O_24 
ROOT
HETATM    1  C   UNL     1     -40.731 -52.137  13.210  1.00  0.00     0.122 A 
HETATM    2  N   UNL     1     -42.577 -53.253  12.820  1.00  0.00    -0.324 N 
HETATM    3  C   UNL     1     -39.901 -50.985  13.177  1.00  0.00     0.135 A 
HETATM    4  C   UNL     1     -41.990 -52.028  12.638  1.00  0.00     0.140 A 
HETATM    5  N   UNL     1     -40.560 -53.405  13.742  1.00  0.00    -0.346 N 
ATOM      6  HN  UNL     1     -39.740 -53.765  14.230  1.00  0.00     0.167 HD
HETATM    7  C   UNL     1     -41.679 -54.044  13.482  1.00  0.00     0.185 A 
HETATM    8  N   UNL     1     -40.425 -49.876  12.571  1.00  0.00    -0.337 N 
ATOM      9  HN  UNL     1     -39.880 -49.016  12.518  1.00  0.00     0.168 HD
HETATM   10  N   UNL     1     -42.535 -50.954  12.042  1.00  0.00    -0.336 N 
ATOM     11  HN  UNL     1     -43.474 -50.923  11.645  1.00  0.00     0.168 HD
HETATM   12  C   UNL     1     -41.666 -49.926  12.043  1.00  0.00     0.183 A 
ENDROOT
BRANCH   3  13
HETATM   13  N   UNL     1     -38.636 -50.920  13.782  1.00  0.00    -0.364 N 
HETATM   14  C   UNL     1     -37.516 -51.100  12.868  1.00  0.00     0.151 C 
BRANCH  13  15
HETATM   15  C   UNL     1     -38.522 -50.027  14.959  1.00  0.00     0.092 C 
HETATM   16  C   UNL     1     -37.166 -49.293  15.067  1.00  0.00     0.033 C 
HETATM   17  C   UNL     1     -36.162 -50.018  15.985  1.00  0.00     0.278 C 
HETATM   18  C   UNL     1     -37.389 -47.832  15.488  1.00  0.00     0.014 C 
HETATM   19  N   UNL     1     -36.662 -50.495  17.275  1.00  0.00     0.088 N 
HETATM   20  C   UNL     1     -37.820 -51.370  17.063  1.00  0.00     0.274 C 
HETATM   21  C   UNL     1     -38.951 -50.741  16.254  1.00  0.00     0.056 C 
BRANCH  19  22
HETATM   22  C   UNL     1     -36.900 -49.477  18.304  1.00  0.00     0.268 C 
HETATM   23  C   UNL     1     -35.655 -48.692  18.709  1.00  0.00     0.037 C 
ENDBRANCH  19  22
ENDBRANCH  13  15
ENDBRANCH   3  13
BRANCH   2  24
HETATM   24  C   UNL     1     -43.860 -53.679  12.294  1.00  0.00     0.171 C 
BRANCH  24  25
HETATM   25  C   UNL     1     -45.034 -53.620  13.284  1.00  0.00     0.097 C 
HETATM   26  C   UNL     1     -44.817 -52.774  14.525  1.00  0.00     0.068 C 
HETATM   27  C   UNL     1     -45.728 -53.421  15.554  1.00  0.00     0.170 C 
HETATM   28  O   UNL     1     -45.882 -54.798  15.193  1.00  0.00    -0.388 OA
HETATM   29  C   UNL     1     -45.274 -55.002  13.908  1.00  0.00     0.207 C 
BRANCH  25  30
HETATM   30  O   UNL     1     -46.244 -53.202  12.638  1.00  0.00    -0.386 OA
HETATM   31  H   UNL     1     -46.349 -52.237  12.730  1.00  0.00     0.210 HD
ENDBRANCH  25  30
ENDBRANCH  24  25
ENDBRANCH   2  24
TORSDOF 6
ENDMDL
MODEL 5
REMARK VINA RESULT:      -6.0      3.564      8.247
REMARK  6 active torsions:
REMARK  status: ('A' for Active; 'I' for Inactive)
REMARK    1  A    between atoms: N_2  and  C_16 
REMARK    2  A    between atoms: C_3  and  N_7 
REMARK    3  A    between atoms: N_7  and  C_9 
REMARK    4  A    between atoms: C_16  and  C_18 
REMARK    5  A    between atoms: N_17  and  C_28 
REMARK    6  A    between atoms: C_18  and  O_24 
ROOT
HETATM    1  C   UNL     1     -40.655 -47.317  11.395  1.00  0.00     0.122 A 
HETATM    2  N   UNL     1     -40.576 -45.133  11.227  1.00  0.00    -0.324 N 
HETATM    3  C   UNL     1     -41.115 -48.612  11.037  1.00  0.00     0.135 A 
HETATM    4  C   UNL     1     -41.193 -46.240  10.707  1.00  0.00     0.140 A 
HETATM    5  N   UNL     1     -39.716 -46.872  12.311  1.00  0.00    -0.346 N 
ATOM      6  HN  UNL     1     -39.155 -47.439  12.947  1.00  0.00     0.167 HD
HETATM    7  C   UNL     1     -39.703 -45.563  12.187  1.00  0.00     0.185 A 
HETATM    8  N   UNL     1     -42.058 -48.670  10.048  1.00  0.00    -0.337 N 
ATOM      9  HN  UNL     1     -42.425 -49.571   9.743  1.00  0.00     0.168 HD
HETATM   10  N   UNL     1     -42.114 -46.264   9.728  1.00  0.00    -0.336 N 
ATOM     11  HN  UNL     1     -42.471 -45.440   9.244  1.00  0.00     0.168 HD
HETATM   12  C   UNL     1     -42.500 -47.530   9.478  1.00  0.00     0.183 A 
ENDROOT
BRANCH   3  13
HETATM   13  N   UNL     1     -40.607 -49.798  11.590  1.00  0.00    -0.364 N 
HETATM   14  C   UNL     1     -39.153 -49.890  11.597  1.00  0.00     0.151 C 
BRANCH  13  15
HETATM   15  C   UNL     1     -41.413 -50.410  12.673  1.00  0.00     0.092 C 
HETATM   16  C   UNL     1     -40.700 -50.459  14.043  1.00  0.00     0.033 C 
HETATM   17  C   UNL     1     -40.000 -51.807  14.308  1.00  0.00     0.278 C 
HETATM   18  C   UNL     1     -41.684 -50.084  15.162  1.00  0.00     0.014 C 
HETATM   19  N   UNL     1     -40.759 -53.022  14.012  1.00  0.00     0.088 N 
HETATM   20  C   UNL     1     -41.210 -52.995  12.616  1.00  0.00     0.274 C 
HETATM   21  C   UNL     1     -42.018 -51.757  12.235  1.00  0.00     0.056 C 
BRANCH  19  22
HETATM   22  C   UNL     1     -41.833 -53.372  14.948  1.00  0.00     0.268 C 
HETATM   23  C   UNL     1     -42.609 -54.631  14.570  1.00  0.00     0.037 C 
ENDBRANCH  19  22
ENDBRANCH  13  15
ENDBRANCH   3  13
BRANCH   2  24
HETATM   24  C   UNL     1     -40.882 -43.750  10.914  1.00  0.00     0.171 C 
BRANCH  24  25
HETATM   25  C   UNL     1     -42.256 -43.252  11.392  1.00  0.00     0.097 C 
HETATM   26  C   UNL     1     -42.404 -41.748  11.537  1.00  0.00     0.068 C 
HETATM   27  C   UNL     1     -43.473 -41.604  12.608  1.00  0.00     0.170 C 
HETATM   28  O   UNL     1     -43.424 -42.774  13.431  1.00  0.00    -0.388 OA
HETATM   29  C   UNL     1     -42.518 -43.714  12.832  1.00  0.00     0.207 C 
BRANCH  25  30
HETATM   30  O   UNL     1     -43.312 -43.748  10.560  1.00  0.00    -0.386 OA
HETATM   31  H   UNL     1     -43.678 -43.020  10.023  1.00  0.00     0.210 HD
ENDBRANCH  25  30
ENDBRANCH  24  25
ENDBRANCH   2  24
TORSDOF 6
ENDMDL
MODEL 6
REMARK VINA RESULT:      -5.9      3.219      7.675
REMARK  6 active torsions:
REMARK  status: ('A' for Active; 'I' for Inactive)
REMARK    1  A    between atoms: N_2  and  C_16 
REMARK    2  A    between atoms: C_3  and  N_7 
REMARK    3  A    between atoms: N_7  and  C_9 
REMARK    4  A    between atoms: C_16  and  C_18 
REMARK    5  A    between atoms: N_17  and  C_28 
REMARK    6  A    between atoms: C_18  and  O_24 
ROOT
HETATM    1  C   UNL     1     -42.037 -48.890  12.689  1.00  0.00     0.122 A 
HETATM    2  N   UNL     1     -42.343 -47.216  11.308  1.00  0.00    -0.324 N 
HETATM    3  C   UNL     1     -41.473 -50.130  13.092  1.00  0.00     0.135 A 
HETATM    4  C   UNL     1     -41.687 -48.412  11.436  1.00  0.00     0.140 A 
HETATM    5  N   UNL     1     -42.883 -47.993  13.320  1.00  0.00    -0.346 N 
ATOM      6  HN  UNL     1     -43.291 -48.076  14.251  1.00  0.00     0.167 HD
HETATM    7  C   UNL     1     -43.049 -47.010  12.461  1.00  0.00     0.185 A 
HETATM    8  N   UNL     1     -40.642 -50.740  12.194  1.00  0.00    -0.337 N 
ATOM      9  HN  UNL     1     -40.203 -51.631  12.425  1.00  0.00     0.168 HD
HETATM   10  N   UNL     1     -40.870 -48.982  10.534  1.00  0.00    -0.336 N 
ATOM     11  HN  UNL     1     -40.636 -48.582   9.625  1.00  0.00     0.168 HD
HETATM   12  C   UNL     1     -40.406 -50.158  10.999  1.00  0.00     0.183 A 
ENDROOT
BRANCH   3  13
HETATM   13  N   UNL     1     -41.673 -50.700  14.359  1.00  0.00    -0.364 N 
HETATM   14  C   UNL     1     -40.931 -50.059  15.437  1.00  0.00     0.151 C 
BRANCH  13  15
HETATM   15  C   UNL     1     -43.009 -51.293  14.603  1.00  0.00     0.092 C 
HETATM   16  C   UNL     1     -43.157 -51.973  15.983  1.00  0.00     0.033 C 
HETATM   17  C   UNL     1     -42.901 -53.492  15.935  1.00  0.00     0.278 C 
HETATM   18  C   UNL     1     -44.525 -51.632  16.594  1.00  0.00     0.014 C 
HETATM   19  N   UNL     1     -43.541 -54.242  14.854  1.00  0.00     0.088 N 
HETATM   20  C   UNL     1     -43.163 -53.662  13.561  1.00  0.00     0.274 C 
HETATM   21  C   UNL     1     -43.462 -52.172  13.423  1.00  0.00     0.056 C 
BRANCH  19  22
HETATM   22  C   UNL     1     -44.985 -54.468  14.975  1.00  0.00     0.268 C 
HETATM   23  C   UNL     1     -45.593 -55.263  13.822  1.00  0.00     0.037 C 
ENDBRANCH  19  22
ENDBRANCH  13  15
ENDBRANCH   3  13
BRANCH   2  24
HETATM   24  C   UNL     1     -42.389 -46.381  10.123  1.00  0.00     0.171 C 
BRANCH  24  25
HETATM   25  C   UNL     1     -43.614 -46.585   9.217  1.00  0.00     0.097 C 
HETATM   26  C   UNL     1     -44.790 -47.314   9.841  1.00  0.00     0.068 C 
HETATM   27  C   UNL     1     -45.475 -47.960   8.648  1.00  0.00     0.170 C 
HETATM   28  O   UNL     1     -44.482 -48.166   7.637  1.00  0.00    -0.388 OA
HETATM   29  C   UNL     1     -43.266 -47.527   8.056  1.00  0.00     0.207 C 
BRANCH  25  30
HETATM   30  O   UNL     1     -44.072 -45.343   8.667  1.00  0.00    -0.386 OA
HETATM   31  H   UNL     1     -43.527 -44.610   9.011  1.00  0.00     0.210 HD
ENDBRANCH  25  30
ENDBRANCH  24  25
ENDBRANCH   2  24
TORSDOF 6
ENDMDL
MODEL 7
REMARK VINA RESULT:      -5.9      2.311      3.492
REMARK  6 active torsions:
REMARK  status: ('A' for Active; 'I' for Inactive)
REMARK    1  A    between atoms: N_2  and  C_16 
REMARK    2  A    between atoms: C_3  and  N_7 
REMARK    3  A    between atoms: N_7  and  C_9 
REMARK    4  A    between atoms: C_16  and  C_18 
REMARK    5  A    between atoms: N_17  and  C_28 
REMARK    6  A    between atoms: C_18  and  O_24 
ROOT
HETATM    1  C   UNL     1     -39.743 -51.313  12.948  1.00  0.00     0.122 A 
HETATM    2  N   UNL     1     -41.042 -53.077  12.994  1.00  0.00    -0.324 N 
HETATM    3  C   UNL     1     -38.761 -50.432  13.476  1.00  0.00     0.135 A 
HETATM    4  C   UNL     1     -40.113 -52.394  13.733  1.00  0.00     0.140 A 
HETATM    5  N   UNL     1     -40.427 -51.345  11.744  1.00  0.00    -0.346 N 
ATOM      6  HN  UNL     1     -40.349 -50.685  10.970  1.00  0.00     0.167 HD
HETATM    7  C   UNL     1     -41.199 -52.408  11.811  1.00  0.00     0.185 A 
HETATM    8  N   UNL     1     -38.282 -50.734  14.721  1.00  0.00    -0.337 N 
ATOM      9  HN  UNL     1     -37.573 -50.142  15.154  1.00  0.00     0.168 HD
HETATM   10  N   UNL     1     -39.657 -52.721  14.955  1.00  0.00    -0.336 N 
ATOM     11  HN  UNL     1     -39.956 -53.537  15.488  1.00  0.00     0.168 HD
HETATM   12  C   UNL     1     -38.751 -51.817  15.374  1.00  0.00     0.183 A 
ENDROOT
BRANCH   3  13
HETATM   13  N   UNL     1     -38.232 -49.342  12.767  1.00  0.00    -0.364 N 
HETATM   14  C   UNL     1     -37.610 -49.690  11.497  1.00  0.00     0.151 C 
BRANCH  13  15
HETATM   15  C   UNL     1     -38.934 -48.049  12.942  1.00  0.00     0.092 C 
HETATM   16  C   UNL     1     -39.806 -47.969  14.216  1.00  0.00     0.033 C 
HETATM   17  C   UNL     1     -41.285 -48.313  13.954  1.00  0.00     0.278 C 
HETATM   18  C   UNL     1     -39.637 -46.596  14.885  1.00  0.00     0.014 C 
HETATM   19  N   UNL     1     -41.917 -47.697  12.787  1.00  0.00     0.088 N 
HETATM   20  C   UNL     1     -41.142 -48.013  11.583  1.00  0.00     0.274 C 
HETATM   21  C   UNL     1     -39.668 -47.625  11.656  1.00  0.00     0.056 C 
BRANCH  19  22
HETATM   22  C   UNL     1     -42.245 -46.271  12.893  1.00  0.00     0.268 C 
HETATM   23  C   UNL     1     -43.234 -45.937  14.008  1.00  0.00     0.037 C 
ENDBRANCH  19  22
ENDBRANCH  13  15
ENDBRANCH   3  13
BRANCH   2  24
HETATM   24  C   UNL     1     -41.815 -54.224  13.430  1.00  0.00     0.171 C 
BRANCH  24  25
HETATM   25  C   UNL     1     -43.281 -53.934  13.795  1.00  0.00     0.097 C 
HETATM   26  C   UNL     1     -44.016 -55.042  14.527  1.00  0.00     0.068 C 
HETATM   27  C   UNL     1     -45.467 -54.814  14.139  1.00  0.00     0.170 C 
HETATM   28  O   UNL     1     -45.479 -54.160  12.866  1.00  0.00    -0.388 OA
HETATM   29  C   UNL     1     -44.130 -53.806  12.523  1.00  0.00     0.207 C 
BRANCH  25  30
HETATM   30  O   UNL     1     -43.404 -52.718  14.543  1.00  0.00    -0.386 OA
HETATM   31  H   UNL     1     -42.656 -52.127  14.336  1.00  0.00     0.210 HD
ENDBRANCH  25  30
ENDBRANCH  24  25
ENDBRANCH   2  24
TORSDOF 6
ENDMDL
MODEL 8
REMARK VINA RESULT:      -5.9      3.637      8.220
REMARK  6 active torsions:
REMARK  status: ('A' for Active; 'I' for Inactive)
REMARK    1  A    between atoms: N_2  and  C_16 
REMARK    2  A    between atoms: C_3  and  N_7 
REMARK    3  A    between atoms: N_7  and  C_9 
REMARK    4  A    between atoms: C_16  and  C_18 
REMARK    5  A    between atoms: N_17  and  C_28 
REMARK    6  A    between atoms: C_18  and  O_24 
ROOT
HETATM    1  C   UNL     1     -39.931 -46.905  11.716  1.00  0.00     0.122 A 
HETATM    2  N   UNL     1     -40.652 -44.899  11.207  1.00  0.00    -0.324 N 
HETATM    3  C   UNL     1     -39.261 -47.855  12.532  1.00  0.00     0.135 A 
HETATM    4  C   UNL     1     -39.939 -45.589  12.151  1.00  0.00     0.140 A 
HETATM    5  N   UNL     1     -40.640 -47.017  10.530  1.00  0.00    -0.346 N 
ATOM      6  HN  UNL     1     -40.808 -47.864   9.987  1.00  0.00     0.167 HD
HETATM    7  C   UNL     1     -41.048 -45.798  10.254  1.00  0.00     0.185 A 
HETATM    8  N   UNL     1     -38.677 -47.374  13.670  1.00  0.00    -0.337 N 
ATOM      9  HN  UNL     1     -38.185 -48.006  14.300  1.00  0.00     0.168 HD
HETATM   10  N   UNL     1     -39.381 -45.085  13.265  1.00  0.00    -0.336 N 
ATOM     11  HN  UNL     1     -39.425 -44.106  13.547  1.00  0.00     0.168 HD
HETATM   12  C   UNL     1     -38.756 -46.057  13.956  1.00  0.00     0.183 A 
ENDROOT
BRANCH   3  13
HETATM   13  N   UNL     1     -39.237 -49.233  12.261  1.00  0.00    -0.364 N 
HETATM   14  C   UNL     1     -38.023 -49.701  11.605  1.00  0.00     0.151 C 
BRANCH  13  15
HETATM   15  C   UNL     1     -39.967 -50.098  13.218  1.00  0.00     0.092 C 
HETATM   16  C   UNL     1     -39.899 -51.606  12.886  1.00  0.00     0.033 C 
HETATM   17  C   UNL     1     -41.117 -52.100  12.082  1.00  0.00     0.278 C 
HETATM   18  C   UNL     1     -39.682 -52.419  14.172  1.00  0.00     0.014 C 
HETATM   19  N   UNL     1     -42.439 -51.672  12.543  1.00  0.00     0.088 N 
HETATM   20  C   UNL     1     -42.486 -50.208  12.614  1.00  0.00     0.274 C 
HETATM   21  C   UNL     1     -41.394 -49.579  13.474  1.00  0.00     0.056 C 
BRANCH  19  22
HETATM   22  C   UNL     1     -42.952 -52.316  13.756  1.00  0.00     0.268 C 
HETATM   23  C   UNL     1     -44.422 -52.023  14.047  1.00  0.00     0.037 C 
ENDBRANCH  19  22
ENDBRANCH  13  15
ENDBRANCH   3  13
BRANCH   2  24
HETATM   24  C   UNL     1     -40.844 -43.463  11.152  1.00  0.00     0.171 C 
BRANCH  24  25
HETATM   25  C   UNL     1     -42.264 -42.971  11.479  1.00  0.00     0.097 C 
HETATM   26  C   UNL     1     -42.451 -41.466  11.532  1.00  0.00     0.068 C 
HETATM   27  C   UNL     1     -43.615 -41.293  12.494  1.00  0.00     0.170 C 
HETATM   28  O   UNL     1     -43.620 -42.419  13.378  1.00  0.00    -0.388 OA
HETATM   29  C   UNL     1     -42.647 -43.367  12.911  1.00  0.00     0.207 C 
BRANCH  25  30
HETATM   30  O   UNL     1     -43.232 -43.532  10.583  1.00  0.00    -0.386 OA
HETATM   31  H   UNL     1     -43.309 -44.492  10.740  1.00  0.00     0.210 HD
ENDBRANCH  25  30
ENDBRANCH  24  25
ENDBRANCH   2  24
TORSDOF 6
ENDMDL
MODEL 9
REMARK VINA RESULT:      -5.7      4.682      9.189
REMARK  6 active torsions:
REMARK  status: ('A' for Active; 'I' for Inactive)
REMARK    1  A    between atoms: N_2  and  C_16 
REMARK    2  A    between atoms: C_3  and  N_7 
REMARK    3  A    between atoms: N_7  and  C_9 
REMARK    4  A    between atoms: C_16  and  C_18 
REMARK    5  A    between atoms: N_17  and  C_28 
REMARK    6  A    between atoms: C_18  and  O_24 
ROOT
HETATM    1  C   UNL     1     -41.542 -45.023  11.543  1.00  0.00     0.122 A 
HETATM    2  N   UNL     1     -41.731 -42.846  11.718  1.00  0.00    -0.324 N 
HETATM    3  C   UNL     1     -40.936 -46.222  11.084  1.00  0.00     0.135 A 
HETATM    4  C   UNL     1     -40.978 -43.826  11.128  1.00  0.00     0.140 A 
HETATM    5  N   UNL     1     -42.615 -44.774  12.384  1.00  0.00    -0.346 N 
ATOM      6  HN  UNL     1     -43.212 -45.460  12.846  1.00  0.00     0.167 HD
HETATM    7  C   UNL     1     -42.702 -43.463  12.457  1.00  0.00     0.185 A 
HETATM    8  N   UNL     1     -39.852 -46.078  10.262  1.00  0.00    -0.337 N 
ATOM      9  HN  UNL     1     -39.370 -46.901   9.902  1.00  0.00     0.168 HD
HETATM   10  N   UNL     1     -39.912 -43.651  10.328  1.00  0.00    -0.336 N 
ATOM     11  HN  UNL     1     -39.528 -42.746  10.060  1.00  0.00     0.168 HD
HETATM   12  C   UNL     1     -39.424 -44.842   9.931  1.00  0.00     0.183 A 
ENDROOT
BRANCH   3  13
HETATM   13  N   UNL     1     -41.347 -47.503  11.482  1.00  0.00    -0.364 N 
HETATM   14  C   UNL     1     -42.276 -48.154  10.567  1.00  0.00     0.151 C 
BRANCH  13  15
HETATM   15  C   UNL     1     -40.360 -48.294  12.255  1.00  0.00     0.092 C 
HETATM   16  C   UNL     1     -39.847 -49.555  11.523  1.00  0.00     0.033 C 
HETATM   17  C   UNL     1     -40.618 -50.831  11.911  1.00  0.00     0.278 C 
HETATM   18  C   UNL     1     -38.331 -49.704  11.731  1.00  0.00     0.014 C 
HETATM   19  N   UNL     1     -40.863 -51.055  13.337  1.00  0.00     0.088 N 
HETATM   20  C   UNL     1     -41.559 -49.895  13.905  1.00  0.00     0.274 C 
HETATM   21  C   UNL     1     -40.849 -48.562  13.690  1.00  0.00     0.056 C 
BRANCH  19  22
HETATM   22  C   UNL     1     -39.714 -51.479  14.143  1.00  0.00     0.268 C 
HETATM   23  C   UNL     1     -39.418 -52.975  14.073  1.00  0.00     0.037 C 
ENDBRANCH  19  22
ENDBRANCH  13  15
ENDBRANCH   3  13
BRANCH   2  24
HETATM   24  C   UNL     1     -41.609 -41.417  11.499  1.00  0.00     0.171 C 
BRANCH  24  25
HETATM   25  C   UNL     1     -40.885 -40.637  12.608  1.00  0.00     0.097 C 
HETATM   26  C   UNL     1     -40.230 -39.334  12.187  1.00  0.00     0.068 C 
HETATM   27  C   UNL     1     -39.093 -39.176  13.183  1.00  0.00     0.170 C 
HETATM   28  O   UNL     1     -38.721 -40.484  13.629  1.00  0.00    -0.388 OA
HETATM   29  C   UNL     1     -39.670 -41.429  13.111  1.00  0.00     0.207 C 
BRANCH  25  30
HETATM   30  O   UNL     1     -41.751 -40.386  13.723  1.00  0.00    -0.386 OA
HETATM   31  H   UNL     1     -41.233 -40.387  14.549  1.00  0.00     0.210 HD
ENDBRANCH  25  30
ENDBRANCH  24  25
ENDBRANCH   2  24
TORSDOF 6
ENDMDL
