MODEL 1
REMARK VINA RESULT:      -6.0      0.000      0.000
REMARK  5 active torsions:
REMARK  status: ('A' for Active; 'I' for Inactive)
REMARK    1  A    between atoms: C_2  and  O_3 
REMARK    2  A    between atoms: C_2  and  C_4 
REMARK    3  A    between atoms: C_4  and  N_5 
REMARK       I    between atoms: N_5  and  C_6 
REMARK       I    between atoms: C_6  and  N_8 
REMARK    4  A    between atoms: N_8  and  C_9 
REMARK    5  A    between atoms: C_12  and  N_16 
ROOT
HETATM    1  C   UNL     1     -40.681 -49.217  11.061  1.00  0.00     0.051 A 
HETATM    2  C   UNL     1     -39.856 -48.389  11.802  1.00  0.00     0.035 A 
HETATM    3  C   UNL     1     -40.016 -47.002  11.748  1.00  0.00     0.051 A 
HETATM    4  C   UNL     1     -41.015 -46.424  10.973  1.00  0.00     0.103 A 
HETATM    5  N   UNL     1     -41.874 -47.233  10.308  1.00  0.00    -0.350 N 
ATOM      6  HN  UNL     1     -42.647 -46.837   9.774  1.00  0.00     0.166 HD
HETATM    7  C   UNL     1     -41.695 -48.584  10.360  1.00  0.00     0.119 A 
ENDROOT
BRANCH   1   8
HETATM    8  N   UNL     1     -40.512 -50.622  11.001  1.00  0.00    -0.308 N 
HETATM    9  C   UNL     1     -40.861 -51.478  12.023  1.00  0.00     0.320 C 
HETATM   10  N   UNL     1     -40.640 -52.803  11.712  1.00  0.00    -0.340 N 
HETATM   11  O   UNL     1     -41.293 -51.150  13.122  1.00  0.00    -0.247 OA
HETATM   12  H   UNL     1     -40.835 -53.073  10.756  1.00  0.00     0.164 HD
HETATM   13  H   UNL     1     -39.857 -50.991  10.327  1.00  0.00     0.170 HD
BRANCH  10  14
HETATM   14  C   UNL     1     -41.009 -53.773  12.732  1.00  0.00     0.155 C 
BRANCH  14  15
HETATM   15  C   UNL     1     -39.919 -54.002  13.778  1.00  0.00     0.132 C 
HETATM   16  C   UNL     1     -40.519 -54.579  15.056  1.00  0.00     0.041 C 
BRANCH  15  17
HETATM   17  O   UNL     1     -38.942 -54.910  13.259  1.00  0.00    -0.394 OA
HETATM   18  H   UNL     1     -39.280 -55.814  13.389  1.00  0.00     0.210 HD
ENDBRANCH  15  17
ENDBRANCH  14  15
ENDBRANCH  10  14
ENDBRANCH   1   8
BRANCH   4  19
HETATM   19  N   UNL     1     -41.142 -45.062  10.837  1.00  0.00    -0.363 N 
HETATM   20  C   UNL     1     -40.037 -44.097  10.818  1.00  0.00     0.150 C 
HETATM   21  C   UNL     1     -40.152 -43.170  12.037  1.00  0.00     0.187 C 
HETATM   22  O   UNL     1     -41.424 -42.499  12.059  1.00  0.00    -0.388 OA
HETATM   23  C   UNL     1     -42.498 -43.459  12.106  1.00  0.00     0.187 C 
HETATM   24  C   UNL     1     -42.464 -44.425  10.908  1.00  0.00     0.150 C 
ENDBRANCH   4  19
TORSDOF 5
ENDMDL
MODEL 2
REMARK VINA RESULT:      -5.9      4.056      6.898
REMARK  5 active torsions:
REMARK  status: ('A' for Active; 'I' for Inactive)
REMARK    1  A    between atoms: C_2  and  O_3 
REMARK    2  A    between atoms: C_2  and  C_4 
REMARK    3  A    between atoms: C_4  and  N_5 
REMARK       I    between atoms: N_5  and  C_6 
REMARK       I    between atoms: C_6  and  N_8 
REMARK    4  A    between atoms: N_8  and  C_9 
REMARK    5  A    between atoms: C_12  and  N_16 
ROOT
HETATM    1  C   UNL     1     -40.445 -49.007  11.477  1.00  0.00     0.051 A 
HETATM    2  C   UNL     1     -39.433 -48.121  11.805  1.00  0.00     0.035 A 
HETATM    3  C   UNL     1     -38.789 -48.211  13.041  1.00  0.00     0.051 A 
HETATM    4  C   UNL     1     -39.131 -49.198  13.958  1.00  0.00     0.103 A 
HETATM    5  N   UNL     1     -40.066 -50.115  13.611  1.00  0.00    -0.350 N 
ATOM      6  HN  UNL     1     -40.297 -50.880  14.245  1.00  0.00     0.166 HD
HETATM    7  C   UNL     1     -40.694 -50.004  12.406  1.00  0.00     0.119 A 
ENDROOT
BRANCH   1   8
HETATM    8  N   UNL     1     -41.197 -48.912  10.281  1.00  0.00    -0.308 N 
HETATM    9  C   UNL     1     -42.269 -48.061  10.118  1.00  0.00     0.320 C 
HETATM   10  N   UNL     1     -42.813 -48.121   8.852  1.00  0.00    -0.340 N 
HETATM   11  O   UNL     1     -42.750 -47.334  10.979  1.00  0.00    -0.247 OA
HETATM   12  H   UNL     1     -42.154 -48.234   8.091  1.00  0.00     0.164 HD
HETATM   13  H   UNL     1     -41.148 -49.683   9.629  1.00  0.00     0.170 HD
BRANCH  10  14
HETATM   14  C   UNL     1     -43.933 -47.229   8.591  1.00  0.00     0.155 C 
BRANCH  14  15
HETATM   15  C   UNL     1     -45.290 -47.931   8.629  1.00  0.00     0.132 C 
HETATM   16  C   UNL     1     -46.387 -46.949   9.027  1.00  0.00     0.041 C 
BRANCH  15  17
HETATM   17  O   UNL     1     -45.584 -48.474   7.338  1.00  0.00    -0.394 OA
HETATM   18  H   UNL     1     -46.319 -49.104   7.442  1.00  0.00     0.210 HD
ENDBRANCH  15  17
ENDBRANCH  14  15
ENDBRANCH  10  14
ENDBRANCH   1   8
BRANCH   4  19
HETATM   19  N   UNL     1     -38.571 -49.259  15.213  1.00  0.00    -0.363 N 
HETATM   20  C   UNL     1     -38.469 -48.142  16.159  1.00  0.00     0.150 C 
HETATM   21  C   UNL     1     -36.987 -47.816  16.400  1.00  0.00     0.187 C 
HETATM   22  O   UNL     1     -36.276 -48.969  16.883  1.00  0.00    -0.388 OA
HETATM   23  C   UNL     1     -36.363 -50.048  15.931  1.00  0.00     0.187 C 
HETATM   24  C   UNL     1     -37.820 -50.447  15.639  1.00  0.00     0.150 C 
ENDBRANCH   4  19
TORSDOF 5
ENDMDL
MODEL 3
REMARK VINA RESULT:      -5.9      2.876      8.317
REMARK  5 active torsions:
REMARK  status: ('A' for Active; 'I' for Inactive)
REMARK    1  A    between atoms: C_2  and  O_3 
REMARK    2  A    between atoms: C_2  and  C_4 
REMARK    3  A    between atoms: C_4  and  N_5 
REMARK       I    between atoms: N_5  and  C_6 
REMARK       I    between atoms: C_6  and  N_8 
REMARK    4  A    between atoms: N_8  and  C_9 
REMARK    5  A    between atoms: C_12  and  N_16 
ROOT
HETATM    1  C   UNL     1     -40.465 -51.153  11.764  1.00  0.00     0.051 A 
HETATM    2  C   UNL     1     -39.525 -51.069  12.776  1.00  0.00     0.035 A 
HETATM    3  C   UNL     1     -39.424 -52.082  13.732  1.00  0.00     0.051 A 
HETATM    4  C   UNL     1     -40.246 -53.203  13.679  1.00  0.00     0.103 A 
HETATM    5  N   UNL     1     -41.114 -53.327  12.647  1.00  0.00    -0.350 N 
ATOM      6  HN  UNL     1     -41.691 -54.163  12.556  1.00  0.00     0.166 HD
HETATM    7  C   UNL     1     -41.208 -52.322  11.730  1.00  0.00     0.119 A 
ENDROOT
BRANCH   1   8
HETATM    8  N   UNL     1     -40.679 -50.119  10.820  1.00  0.00    -0.308 N 
HETATM    9  C   UNL     1     -41.579 -49.091  11.003  1.00  0.00     0.320 C 
HETATM   10  N   UNL     1     -41.577 -48.186   9.963  1.00  0.00    -0.340 N 
HETATM   11  O   UNL     1     -42.348 -48.966  11.949  1.00  0.00    -0.247 OA
HETATM   12  H   UNL     1     -40.673 -47.981   9.556  1.00  0.00     0.164 HD
HETATM   13  H   UNL     1     -40.391 -50.282   9.866  1.00  0.00     0.170 HD
BRANCH  10  14
HETATM   14  C   UNL     1     -42.483 -47.054  10.095  1.00  0.00     0.155 C 
BRANCH  14  15
HETATM   15  C   UNL     1     -43.762 -47.200   9.271  1.00  0.00     0.132 C 
HETATM   16  C   UNL     1     -43.454 -47.833   7.917  1.00  0.00     0.041 C 
BRANCH  15  17
HETATM   17  O   UNL     1     -44.695 -48.023   9.979  1.00  0.00    -0.394 OA
HETATM   18  H   UNL     1     -45.338 -47.434  10.412  1.00  0.00     0.210 HD
ENDBRANCH  15  17
ENDBRANCH  14  15
ENDBRANCH  10  14
ENDBRANCH   1   8
BRANCH   4  19
HETATM   19  N   UNL     1     -40.225 -54.174  14.653  1.00  0.00    -0.363 N 
HETATM   20  C   UNL     1     -41.361 -54.568  15.494  1.00  0.00     0.150 C 
HETATM   21  C   UNL     1     -41.045 -54.237  16.960  1.00  0.00     0.187 C 
HETATM   22  O   UNL     1     -39.835 -54.886  17.388  1.00  0.00    -0.388 OA
HETATM   23  C   UNL     1     -38.724 -54.469  16.570  1.00  0.00     0.187 C 
HETATM   24  C   UNL     1     -38.954 -54.775  15.079  1.00  0.00     0.150 C 
ENDBRANCH   4  19
TORSDOF 5
ENDMDL
MODEL 4
REMARK VINA RESULT:      -5.9      1.639      2.003
REMARK  5 active torsions:
REMARK  status: ('A' for Active; 'I' for Inactive)
REMARK    1  A    between atoms: C_2  and  O_3 
REMARK    2  A    between atoms: C_2  and  C_4 
REMARK    3  A    between atoms: C_4  and  N_5 
REMARK       I    between atoms: N_5  and  C_6 
REMARK       I    between atoms: C_6  and  N_8 
REMARK    4  A    between atoms: N_8  and  C_9 
REMARK    5  A    between atoms: C_12  and  N_16 
ROOT
HETATM    1  C   UNL     1     -41.900 -47.599  11.161  1.00  0.00     0.051 A 
HETATM    2  C   UNL     1     -40.734 -46.920  10.853  1.00  0.00     0.035 A 
HETATM    3  C   UNL     1     -40.699 -45.524  10.886  1.00  0.00     0.051 A 
HETATM    4  C   UNL     1     -41.822 -44.787  11.246  1.00  0.00     0.103 A 
HETATM    5  N   UNL     1     -42.943 -45.448  11.623  1.00  0.00    -0.350 N 
ATOM      6  HN  UNL     1     -43.762 -44.932  11.942  1.00  0.00     0.166 HD
HETATM    7  C   UNL     1     -42.963 -46.810  11.572  1.00  0.00     0.119 A 
ENDROOT
BRANCH   1   8
HETATM    8  N   UNL     1     -42.026 -49.006  11.058  1.00  0.00    -0.308 N 
HETATM    9  C   UNL     1     -41.872 -49.866  12.124  1.00  0.00     0.320 C 
HETATM   10  N   UNL     1     -42.083 -51.185  11.782  1.00  0.00    -0.340 N 
HETATM   11  O   UNL     1     -41.549 -49.551  13.263  1.00  0.00    -0.247 OA
HETATM   12  H   UNL     1     -42.824 -51.357  11.114  1.00  0.00     0.164 HD
HETATM   13  H   UNL     1     -41.935 -49.423  10.143  1.00  0.00     0.170 HD
BRANCH  10  14
HETATM   14  C   UNL     1     -41.966 -52.155  12.861  1.00  0.00     0.155 C 
BRANCH  14  15
HETATM   15  C   UNL     1     -40.736 -53.053  12.740  1.00  0.00     0.132 C 
HETATM   16  C   UNL     1     -40.879 -54.278  13.639  1.00  0.00     0.041 C 
BRANCH  15  17
HETATM   17  O   UNL     1     -40.585 -53.477  11.381  1.00  0.00    -0.394 OA
HETATM   18  H   UNL     1     -39.699 -53.871  11.291  1.00  0.00     0.210 HD
ENDBRANCH  15  17
ENDBRANCH  14  15
ENDBRANCH  10  14
ENDBRANCH   1   8
BRANCH   4  19
HETATM   19  N   UNL     1     -41.840 -43.413  11.207  1.00  0.00    -0.363 N 
HETATM   20  C   UNL     1     -40.709 -42.532  11.524  1.00  0.00     0.150 C 
HETATM   21  C   UNL     1     -41.054 -41.692  12.763  1.00  0.00     0.187 C 
HETATM   22  O   UNL     1     -42.257 -40.933  12.555  1.00  0.00    -0.388 OA
HETATM   23  C   UNL     1     -43.364 -41.812  12.271  1.00  0.00     0.187 C 
HETATM   24  C   UNL     1     -43.105 -42.687  11.031  1.00  0.00     0.150 C 
ENDBRANCH   4  19
TORSDOF 5
ENDMDL
MODEL 5
REMARK VINA RESULT:      -5.9      3.465      8.466
REMARK  5 active torsions:
REMARK  status: ('A' for Active; 'I' for Inactive)
REMARK    1  A    between atoms: C_2  and  O_3 
REMARK    2  A    between atoms: C_2  and  C_4 
REMARK    3  A    between atoms: C_4  and  N_5 
REMARK       I    between atoms: N_5  and  C_6 
REMARK       I    between atoms: C_6  and  N_8 
REMARK    4  A    between atoms: N_8  and  C_9 
REMARK    5  A    between atoms: C_12  and  N_16 
ROOT
HETATM    1  C   UNL     1     -42.420 -50.186  12.189  1.00  0.00     0.051 A 
HETATM    2  C   UNL     1     -43.514 -49.916  12.992  1.00  0.00     0.035 A 
HETATM    3  C   UNL     1     -44.065 -50.917  13.796  1.00  0.00     0.051 A 
HETATM    4  C   UNL     1     -43.518 -52.195  13.825  1.00  0.00     0.103 A 
HETATM    5  N   UNL     1     -42.400 -52.443  13.101  1.00  0.00    -0.350 N 
ATOM      6  HN  UNL     1     -41.950 -53.356  13.145  1.00  0.00     0.166 HD
HETATM    7  C   UNL     1     -41.884 -51.458  12.311  1.00  0.00     0.119 A 
ENDROOT
BRANCH   1   8
HETATM    8  N   UNL     1     -41.873 -49.242  11.285  1.00  0.00    -0.308 N 
HETATM    9  C   UNL     1     -41.111 -48.163  11.677  1.00  0.00     0.320 C 
HETATM   10  N   UNL     1     -40.658 -47.412  10.613  1.00  0.00    -0.340 N 
HETATM   11  O   UNL     1     -40.862 -47.837  12.832  1.00  0.00    -0.247 OA
HETATM   12  H   UNL     1     -40.387 -47.932   9.787  1.00  0.00     0.164 HD
HETATM   13  H   UNL     1     -42.282 -49.177  10.364  1.00  0.00     0.170 HD
BRANCH  10  14
HETATM   14  C   UNL     1     -39.822 -46.267  10.943  1.00  0.00     0.155 C 
BRANCH  14  15
HETATM   15  C   UNL     1     -40.290 -44.965  10.294  1.00  0.00     0.132 C 
HETATM   16  C   UNL     1     -40.157 -43.804  11.273  1.00  0.00     0.041 C 
BRANCH  15  17
HETATM   17  O   UNL     1     -39.498 -44.699   9.131  1.00  0.00    -0.394 OA
HETATM   18  H   UNL     1     -38.827 -45.402   9.063  1.00  0.00     0.210 HD
ENDBRANCH  15  17
ENDBRANCH  14  15
ENDBRANCH  10  14
ENDBRANCH   1   8
BRANCH   4  19
HETATM   19  N   UNL     1     -44.089 -53.220  14.542  1.00  0.00    -0.363 N 
HETATM   20  C   UNL     1     -44.086 -54.637  14.161  1.00  0.00     0.150 C 
HETATM   21  C   UNL     1     -45.529 -55.097  13.907  1.00  0.00     0.187 C 
HETATM   22  O   UNL     1     -46.354 -54.874  15.063  1.00  0.00    -0.388 OA
HETATM   23  C   UNL     1     -46.369 -53.475  15.409  1.00  0.00     0.187 C 
HETATM   24  C   UNL     1     -44.957 -52.933  15.693  1.00  0.00     0.150 C 
ENDBRANCH   4  19
TORSDOF 5
ENDMDL
MODEL 6
REMARK VINA RESULT:      -5.5      3.299      3.963
REMARK  5 active torsions:
REMARK  status: ('A' for Active; 'I' for Inactive)
REMARK    1  A    between atoms: C_2  and  O_3 
REMARK    2  A    between atoms: C_2  and  C_4 
REMARK    3  A    between atoms: C_4  and  N_5 
REMARK       I    between atoms: N_5  and  C_6 
REMARK       I    between atoms: C_6  and  N_8 
REMARK    4  A    between atoms: N_8  and  C_9 
REMARK    5  A    between atoms: C_12  and  N_16 
ROOT
HETATM    1  C   UNL     1     -42.663 -50.756  12.909  1.00  0.00     0.051 A 
HETATM    2  C   UNL     1     -43.377 -49.578  13.043  1.00  0.00     0.035 A 
HETATM    3  C   UNL     1     -43.000 -48.438  12.329  1.00  0.00     0.051 A 
HETATM    4  C   UNL     1     -41.919 -48.464  11.455  1.00  0.00     0.103 A 
HETATM    5  N   UNL     1     -41.265 -49.635  11.261  1.00  0.00    -0.350 N 
ATOM      6  HN  UNL     1     -40.503 -49.693  10.587  1.00  0.00     0.166 HD
HETATM    7  C   UNL     1     -41.638 -50.734  11.976  1.00  0.00     0.119 A 
ENDROOT
BRANCH   1   8
HETATM    8  N   UNL     1     -42.938 -51.917  13.671  1.00  0.00    -0.308 N 
HETATM    9  C   UNL     1     -43.968 -52.790  13.391  1.00  0.00     0.320 C 
HETATM   10  N   UNL     1     -44.007 -53.867  14.250  1.00  0.00    -0.340 N 
HETATM   11  O   UNL     1     -44.808 -52.653  12.509  1.00  0.00    -0.247 OA
HETATM   12  H   UNL     1     -43.109 -54.240  14.534  1.00  0.00     0.164 HD
HETATM   13  H   UNL     1     -42.569 -51.965  14.610  1.00  0.00     0.170 HD
BRANCH  10  14
HETATM   14  C   UNL     1     -45.051 -54.850  14.003  1.00  0.00     0.155 C 
BRANCH  14  15
HETATM   15  C   UNL     1     -46.317 -54.613  14.826  1.00  0.00     0.132 C 
HETATM   16  C   UNL     1     -45.963 -54.026  16.189  1.00  0.00     0.041 C 
BRANCH  15  17
HETATM   17  O   UNL     1     -47.178 -53.708  14.128  1.00  0.00    -0.394 OA
HETATM   18  H   UNL     1     -46.877 -52.802  14.323  1.00  0.00     0.210 HD
ENDBRANCH  15  17
ENDBRANCH  14  15
ENDBRANCH  10  14
ENDBRANCH   1   8
BRANCH   4  19
HETATM   19  N   UNL     1     -41.476 -47.338  10.803  1.00  0.00    -0.363 N 
HETATM   20  C   UNL     1     -40.197 -46.659  11.040  1.00  0.00     0.150 C 
HETATM   21  C   UNL     1     -40.464 -45.249  11.588  1.00  0.00     0.187 C 
HETATM   22  O   UNL     1     -41.292 -44.492  10.689  1.00  0.00    -0.388 OA
HETATM   23  C   UNL     1     -42.555 -45.157  10.487  1.00  0.00     0.187 C 
HETATM   24  C   UNL     1     -42.378 -46.580   9.926  1.00  0.00     0.150 C 
ENDBRANCH   4  19
TORSDOF 5
ENDMDL
MODEL 7
REMARK VINA RESULT:      -5.4      2.084      2.728
REMARK  5 active torsions:
REMARK  status: ('A' for Active; 'I' for Inactive)
REMARK    1  A    between atoms: C_2  and  O_3 
REMARK    2  A    between atoms: C_2  and  C_4 
REMARK    3  A    between atoms: C_4  and  N_5 
REMARK       I    between atoms: N_5  and  C_6 
REMARK       I    between atoms: C_6  and  N_8 
REMARK    4  A    between atoms: N_8  and  C_9 
REMARK    5  A    between atoms: C_12  and  N_16 
ROOT
HETATM    1  C   UNL     1     -40.961 -49.563  11.324  1.00  0.00     0.051 A 
HETATM    2  C   UNL     1     -41.720 -48.530  10.803  1.00  0.00     0.035 A 
HETATM    3  C   UNL     1     -41.288 -47.207  10.921  1.00  0.00     0.051 A 
HETATM    4  C   UNL     1     -40.082 -46.898  11.541  1.00  0.00     0.103 A 
HETATM    5  N   UNL     1     -39.299 -47.910  11.984  1.00  0.00    -0.350 N 
ATOM      6  HN  UNL     1     -38.387 -47.714  12.395  1.00  0.00     0.166 HD
HETATM    7  C   UNL     1     -39.742 -49.195  11.873  1.00  0.00     0.119 A 
ENDROOT
BRANCH   1   8
HETATM    8  N   UNL     1     -41.385 -50.914  11.318  1.00  0.00    -0.308 N 
HETATM    9  C   UNL     1     -41.988 -51.530  12.394  1.00  0.00     0.320 C 
HETATM   10  N   UNL     1     -42.348 -52.835  12.131  1.00  0.00    -0.340 N 
HETATM   11  O   UNL     1     -42.177 -51.031  13.497  1.00  0.00    -0.247 OA
HETATM   12  H   UNL     1     -42.698 -53.019  11.199  1.00  0.00     0.164 HD
HETATM   13  H   UNL     1     -40.983 -51.533  10.630  1.00  0.00     0.170 HD
BRANCH  10  14
HETATM   14  C   UNL     1     -43.017 -53.547  13.211  1.00  0.00     0.155 C 
BRANCH  14  15
HETATM   15  C   UNL     1     -44.492 -53.831  12.929  1.00  0.00     0.132 C 
HETATM   16  C   UNL     1     -45.326 -53.616  14.188  1.00  0.00     0.041 C 
BRANCH  15  17
HETATM   17  O   UNL     1     -44.958 -52.957  11.896  1.00  0.00    -0.394 OA
HETATM   18  H   UNL     1     -44.205 -52.410  11.609  1.00  0.00     0.210 HD
ENDBRANCH  15  17
ENDBRANCH  14  15
ENDBRANCH  10  14
ENDBRANCH   1   8
BRANCH   4  19
HETATM   19  N   UNL     1     -39.674 -45.601  11.744  1.00  0.00    -0.363 N 
HETATM   20  C   UNL     1     -39.326 -45.006  13.039  1.00  0.00     0.150 C 
HETATM   21  C   UNL     1     -40.324 -43.885  13.366  1.00  0.00     0.187 C 
HETATM   22  O   UNL     1     -40.343 -42.889  12.329  1.00  0.00    -0.388 OA
HETATM   23  C   UNL     1     -40.713 -43.484  11.069  1.00  0.00     0.187 C 
HETATM   24  C   UNL     1     -39.753 -44.615  10.657  1.00  0.00     0.150 C 
ENDBRANCH   4  19
TORSDOF 5
ENDMDL
MODEL 8
REMARK VINA RESULT:      -5.4      1.842      8.185
REMARK  5 active torsions:
REMARK  status: ('A' for Active; 'I' for Inactive)
REMARK    1  A    between atoms: C_2  and  O_3 
REMARK    2  A    between atoms: C_2  and  C_4 
REMARK    3  A    between atoms: C_4  and  N_5 
REMARK       I    between atoms: N_5  and  C_6 
REMARK       I    between atoms: C_6  and  N_8 
REMARK    4  A    between atoms: N_8  and  C_9 
REMARK    5  A    between atoms: C_12  and  N_16 
ROOT
HETATM    1  C   UNL     1     -41.577 -48.954  11.272  1.00  0.00     0.051 A 
HETATM    2  C   UNL     1     -42.509 -49.280  12.241  1.00  0.00     0.035 A 
HETATM    3  C   UNL     1     -42.577 -50.580  12.747  1.00  0.00     0.051 A 
HETATM    4  C   UNL     1     -41.701 -51.568  12.307  1.00  0.00     0.103 A 
HETATM    5  N   UNL     1     -40.736 -51.234  11.417  1.00  0.00    -0.350 N 
ATOM      6  HN  UNL     1     -40.050 -51.926  11.118  1.00  0.00     0.166 HD
HETATM    7  C   UNL     1     -40.694 -49.964  10.923  1.00  0.00     0.119 A 
ENDROOT
BRANCH   1   8
HETATM    8  N   UNL     1     -41.517 -47.681  10.654  1.00  0.00    -0.308 N 
HETATM    9  C   UNL     1     -40.580 -46.721  10.972  1.00  0.00     0.320 C 
HETATM   10  N   UNL     1     -40.701 -45.581  10.206  1.00  0.00    -0.340 N 
HETATM   11  O   UNL     1     -39.733 -46.805  11.853  1.00  0.00    -0.247 OA
HETATM   12  H   UNL     1     -40.949 -45.723   9.235  1.00  0.00     0.164 HD
HETATM   13  H   UNL     1     -42.344 -47.344  10.183  1.00  0.00     0.170 HD
BRANCH  10  14
HETATM   14  C   UNL     1     -39.728 -44.528  10.463  1.00  0.00     0.155 C 
BRANCH  14  15
HETATM   15  C   UNL     1     -40.235 -43.452  11.422  1.00  0.00     0.132 C 
HETATM   16  C   UNL     1     -41.742 -43.269  11.269  1.00  0.00     0.041 C 
BRANCH  15  17
HETATM   17  O   UNL     1     -39.938 -43.834  12.769  1.00  0.00    -0.394 OA
HETATM   18  H   UNL     1     -39.799 -43.019  13.283  1.00  0.00     0.210 HD
ENDBRANCH  15  17
ENDBRANCH  14  15
ENDBRANCH  10  14
ENDBRANCH   1   8
BRANCH   4  19
HETATM   19  N   UNL     1     -41.799 -52.873  12.727  1.00  0.00    -0.363 N 
HETATM   20  C   UNL     1     -43.047 -53.586  13.023  1.00  0.00     0.150 C 
HETATM   21  C   UNL     1     -43.077 -53.957  14.513  1.00  0.00     0.187 C 
HETATM   22  O   UNL     1     -41.932 -54.749  14.873  1.00  0.00    -0.388 OA
HETATM   23  C   UNL     1     -40.715 -54.026  14.601  1.00  0.00     0.187 C 
HETATM   24  C   UNL     1     -40.598 -53.623  13.120  1.00  0.00     0.150 C 
ENDBRANCH   4  19
TORSDOF 5
ENDMDL
MODEL 9
REMARK VINA RESULT:      -5.4      2.266      8.546
REMARK  5 active torsions:
REMARK  status: ('A' for Active; 'I' for Inactive)
REMARK    1  A    between atoms: C_2  and  O_3 
REMARK    2  A    between atoms: C_2  and  C_4 
REMARK    3  A    between atoms: C_4  and  N_5 
REMARK       I    between atoms: N_5  and  C_6 
REMARK       I    between atoms: C_6  and  N_8 
REMARK    4  A    between atoms: N_8  and  C_9 
REMARK    5  A    between atoms: C_12  and  N_16 
ROOT
HETATM    1  C   UNL     1     -40.317 -51.621  12.203  1.00  0.00     0.051 A 
HETATM    2  C   UNL     1     -39.442 -51.503  13.269  1.00  0.00     0.035 A 
HETATM    3  C   UNL     1     -39.369 -52.508  14.236  1.00  0.00     0.051 A 
HETATM    4  C   UNL     1     -40.152 -53.653  14.143  1.00  0.00     0.103 A 
HETATM    5  N   UNL     1     -40.952 -53.809  13.061  1.00  0.00    -0.350 N 
ATOM      6  HN  UNL     1     -41.498 -54.662  12.942  1.00  0.00     0.166 HD
HETATM    7  C   UNL     1     -41.022 -52.812  12.133  1.00  0.00     0.119 A 
ENDROOT
BRANCH   1   8
HETATM    8  N   UNL     1     -40.504 -50.599  11.240  1.00  0.00    -0.308 N 
HETATM    9  C   UNL     1     -41.436 -49.592  11.367  1.00  0.00     0.320 C 
HETATM   10  N   UNL     1     -41.400 -48.694  10.321  1.00  0.00    -0.340 N 
HETATM   11  O   UNL     1     -42.255 -49.477  12.271  1.00  0.00    -0.247 OA
HETATM   12  H   UNL     1     -40.481 -48.471   9.959  1.00  0.00     0.164 HD
HETATM   13  H   UNL     1     -40.163 -50.763  10.304  1.00  0.00     0.170 HD
BRANCH  10  14
HETATM   14  C   UNL     1     -42.337 -47.582  10.396  1.00  0.00     0.155 C 
BRANCH  14  15
HETATM   15  C   UNL     1     -41.656 -46.216  10.458  1.00  0.00     0.132 C 
HETATM   16  C   UNL     1     -41.987 -45.514  11.771  1.00  0.00     0.041 C 
BRANCH  15  17
HETATM   17  O   UNL     1     -40.238 -46.383  10.353  1.00  0.00    -0.394 OA
HETATM   18  H   UNL     1     -39.882 -45.606   9.887  1.00  0.00     0.210 HD
ENDBRANCH  15  17
ENDBRANCH  14  15
ENDBRANCH  10  14
ENDBRANCH   1   8
BRANCH   4  19
HETATM   19  N   UNL     1     -40.160 -54.617  15.122  1.00  0.00    -0.363 N 
HETATM   20  C   UNL     1     -41.302 -54.957  15.980  1.00  0.00     0.150 C 
HETATM   21  C   UNL     1     -40.954 -54.630  17.440  1.00  0.00     0.187 C 
HETATM   22  O   UNL     1     -39.769 -55.327  17.858  1.00  0.00    -0.388 OA
HETATM   23  C   UNL     1     -38.650 -54.963  17.025  1.00  0.00     0.187 C 
HETATM   24  C   UNL     1     -38.911 -55.269  15.539  1.00  0.00     0.150 C 
ENDBRANCH   4  19
TORSDOF 5
ENDMDL
