MODEL 1
REMARK VINA RESULT:      -6.1      0.000      0.000
REMARK  5 active torsions:
REMARK  status: ('A' for Active; 'I' for Inactive)
REMARK    1  A    between atoms: C_2  and  N_4 
REMARK    2  A    between atoms: C_6  and  C_10 
REMARK       I    between atoms: C_10  and  N_12 
REMARK    3  A    between atoms: N_12  and  C_13 
REMARK    4  A    between atoms: C_13  and  C_15 
REMARK    5  A    between atoms: C_15  and  N_16 
ROOT
HETATM    1  C   UNL     1     -41.470 -48.964  11.204  1.00  0.00     0.224 C 
HETATM    2  O   UNL     1     -42.089 -48.695  12.231  1.00  0.00    -0.273 OA
HETATM    3  N   UNL     1     -41.668 -48.296  10.018  1.00  0.00    -0.355 N 
HETATM    4  H   UNL     1     -41.184 -48.607   9.180  1.00  0.00     0.162 HD
ENDROOT
BRANCH   1   5
HETATM    5  C   UNL     1     -40.397 -50.034  11.193  1.00  0.00     0.104 A 
HETATM    6  C   UNL     1     -40.913 -51.299  11.860  1.00  0.00     0.140 A 
HETATM    7  N   UNL     1     -39.993 -51.575  12.935  1.00  0.00    -0.347 N 
HETATM    8  C   UNL     1     -38.933 -50.686  12.985  1.00  0.00     0.221 A 
HETATM    9  C   UNL     1     -39.126 -49.629  11.934  1.00  0.00     0.118 A 
HETATM   10  O   UNL     1     -38.008 -50.710  13.782  1.00  0.00    -0.273 OA
BRANCH   7  11
HETATM   11  C   UNL     1     -40.306 -52.460  14.058  1.00  0.00     0.079 C 
HETATM   12  C   UNL     1     -41.806 -52.385  14.361  1.00  0.00     0.032 C 
HETATM   13  C   UNL     1     -39.886 -53.912  13.833  1.00  0.00     0.032 C 
ENDBRANCH   7  11
ENDBRANCH   1   5
BRANCH   3  14
HETATM   14  C   UNL     1     -42.670 -47.240   9.881  1.00  0.00     0.100 C 
HETATM   15  C   UNL     1     -42.016 -45.881  10.135  1.00  0.00     0.034 C 
BRANCH  14  16
HETATM   16  C   UNL     1     -43.340 -47.250   8.501  1.00  0.00     0.172 C 
BRANCH  16  17
HETATM   17  N   UNL     1     -44.702 -47.744   8.548  1.00  0.00    -0.302 N 
HETATM   18  C   UNL     1     -45.639 -47.481   9.505  1.00  0.00     0.111 A 
HETATM   19  C   UNL     1     -46.781 -48.141   9.104  1.00  0.00     0.037 A 
HETATM   20  C   UNL     1     -46.429 -48.764   7.893  1.00  0.00     0.108 A 
HETATM   21  N   UNL     1     -45.159 -48.525   7.548  1.00  0.00    -0.310 N 
ATOM     22  HN  UNL     1     -44.656 -48.855   6.725  1.00  0.00     0.186 HD
ENDBRANCH  16  17
ENDBRANCH  14  16
ENDBRANCH   3  14
TORSDOF 5
ENDMDL
MODEL 2
REMARK VINA RESULT:      -5.9      2.558      3.404
REMARK  5 active torsions:
REMARK  status: ('A' for Active; 'I' for Inactive)
REMARK    1  A    between atoms: C_2  and  N_4 
REMARK    2  A    between atoms: C_6  and  C_10 
REMARK       I    between atoms: C_10  and  N_12 
REMARK    3  A    between atoms: N_12  and  C_13 
REMARK    4  A    between atoms: C_13  and  C_15 
REMARK    5  A    between atoms: C_15  and  N_16 
ROOT
HETATM    1  C   UNL     1     -42.361 -50.874  12.524  1.00  0.00     0.224 C 
HETATM    2  O   UNL     1     -42.924 -50.461  13.534  1.00  0.00    -0.273 OA
HETATM    3  N   UNL     1     -41.778 -50.037  11.601  1.00  0.00    -0.355 N 
HETATM    4  H   UNL     1     -41.390 -50.424  10.745  1.00  0.00     0.162 HD
ENDROOT
BRANCH   1   5
HETATM    5  C   UNL     1     -42.227 -52.359  12.250  1.00  0.00     0.104 A 
HETATM    6  C   UNL     1     -43.515 -53.076  12.620  1.00  0.00     0.140 A 
HETATM    7  N   UNL     1     -43.140 -54.077  13.587  1.00  0.00    -0.347 N 
HETATM    8  C   UNL     1     -41.775 -54.122  13.820  1.00  0.00     0.221 A 
HETATM    9  C   UNL     1     -41.106 -53.025  13.042  1.00  0.00     0.118 A 
HETATM   10  O   UNL     1     -41.197 -54.889  14.575  1.00  0.00    -0.273 OA
BRANCH   7  11
HETATM   11  C   UNL     1     -44.093 -54.730  14.485  1.00  0.00     0.079 C 
HETATM   12  C   UNL     1     -44.422 -53.790  15.649  1.00  0.00     0.032 C 
HETATM   13  C   UNL     1     -45.379 -55.182  13.793  1.00  0.00     0.032 C 
ENDBRANCH   7  11
ENDBRANCH   1   5
BRANCH   3  14
HETATM   14  C   UNL     1     -41.828 -48.581  11.735  1.00  0.00     0.100 C 
HETATM   15  C   UNL     1     -40.764 -48.124  12.734  1.00  0.00     0.034 C 
BRANCH  14  16
HETATM   16  C   UNL     1     -41.627 -47.867  10.392  1.00  0.00     0.172 C 
BRANCH  16  17
HETATM   17  N   UNL     1     -42.854 -47.769   9.626  1.00  0.00    -0.302 N 
HETATM   18  C   UNL     1     -44.085 -47.401  10.088  1.00  0.00     0.111 A 
HETATM   19  C   UNL     1     -44.921 -47.425   8.993  1.00  0.00     0.037 A 
HETATM   20  C   UNL     1     -44.096 -47.813   7.921  1.00  0.00     0.108 A 
HETATM   21  N   UNL     1     -42.832 -48.025   8.302  1.00  0.00    -0.310 N 
ATOM     22  HN  UNL     1     -42.039 -48.311   7.728  1.00  0.00     0.186 HD
ENDBRANCH  16  17
ENDBRANCH  14  16
ENDBRANCH   3  14
TORSDOF 5
ENDMDL
MODEL 3
REMARK VINA RESULT:      -5.9      3.460      6.162
REMARK  5 active torsions:
REMARK  status: ('A' for Active; 'I' for Inactive)
REMARK    1  A    between atoms: C_2  and  N_4 
REMARK    2  A    between atoms: C_6  and  C_10 
REMARK       I    between atoms: C_10  and  N_12 
REMARK    3  A    between atoms: N_12  and  C_13 
REMARK    4  A    between atoms: C_13  and  C_15 
REMARK    5  A    between atoms: C_15  and  N_16 
ROOT
HETATM    1  C   UNL     1     -41.969 -52.902  13.870  1.00  0.00     0.224 C 
HETATM    2  O   UNL     1     -41.938 -52.634  15.069  1.00  0.00    -0.273 OA
HETATM    3  N   UNL     1     -41.030 -52.441  12.978  1.00  0.00    -0.355 N 
HETATM    4  H   UNL     1     -41.143 -52.630  11.986  1.00  0.00     0.162 HD
ENDROOT
BRANCH   1   5
HETATM    5  C   UNL     1     -43.037 -53.815  13.298  1.00  0.00     0.104 A 
HETATM    6  C   UNL     1     -44.119 -52.991  12.620  1.00  0.00     0.140 A 
HETATM    7  N   UNL     1     -45.351 -53.354  13.274  1.00  0.00    -0.347 N 
HETATM    8  C   UNL     1     -45.189 -54.345  14.228  1.00  0.00     0.221 A 
HETATM    9  C   UNL     1     -43.728 -54.676  14.351  1.00  0.00     0.118 A 
HETATM   10  O   UNL     1     -46.073 -54.844  14.908  1.00  0.00    -0.273 OA
BRANCH   7  11
HETATM   11  C   UNL     1     -46.569 -52.545  13.209  1.00  0.00     0.079 C 
HETATM   12  C   UNL     1     -46.514 -51.456  14.286  1.00  0.00     0.032 C 
HETATM   13  C   UNL     1     -46.818 -51.917  11.837  1.00  0.00     0.032 C 
ENDBRANCH   7  11
ENDBRANCH   1   5
BRANCH   3  14
HETATM   14  C   UNL     1     -39.943 -51.553  13.388  1.00  0.00     0.100 C 
HETATM   15  C   UNL     1     -38.787 -52.385  13.946  1.00  0.00     0.034 C 
BRANCH  14  16
HETATM   16  C   UNL     1     -39.446 -50.672  12.234  1.00  0.00     0.172 C 
BRANCH  16  17
HETATM   17  N   UNL     1     -40.398 -49.640  11.872  1.00  0.00    -0.302 N 
HETATM   18  C   UNL     1     -41.023 -48.766  12.714  1.00  0.00     0.111 A 
HETATM   19  C   UNL     1     -41.804 -47.963  11.910  1.00  0.00     0.037 A 
HETATM   20  C   UNL     1     -41.574 -48.432  10.603  1.00  0.00     0.108 A 
HETATM   21  N   UNL     1     -40.716 -49.458  10.574  1.00  0.00    -0.310 N 
ATOM     22  HN  UNL     1     -40.381 -49.978   9.763  1.00  0.00     0.186 HD
ENDBRANCH  16  17
ENDBRANCH  14  16
ENDBRANCH   3  14
TORSDOF 5
ENDMDL
MODEL 4
REMARK VINA RESULT:      -5.7      1.887      6.970
REMARK  5 active torsions:
REMARK  status: ('A' for Active; 'I' for Inactive)
REMARK    1  A    between atoms: C_2  and  N_4 
REMARK    2  A    between atoms: C_6  and  C_10 
REMARK       I    between atoms: C_10  and  N_12 
REMARK    3  A    between atoms: N_12  and  C_13 
REMARK    4  A    between atoms: C_13  and  C_15 
REMARK    5  A    between atoms: C_15  and  N_16 
ROOT
HETATM    1  C   UNL     1     -41.387 -49.169  12.031  1.00  0.00     0.224 C 
HETATM    2  O   UNL     1     -41.981 -50.241  11.936  1.00  0.00    -0.273 OA
HETATM    3  N   UNL     1     -40.015 -49.077  12.056  1.00  0.00    -0.355 N 
HETATM    4  H   UNL     1     -39.574 -48.175  12.212  1.00  0.00     0.162 HD
ENDROOT
BRANCH   1   5
HETATM    5  C   UNL     1     -42.142 -47.855  12.079  1.00  0.00     0.104 A 
HETATM    6  C   UNL     1     -43.421 -47.957  11.265  1.00  0.00     0.140 A 
HETATM    7  N   UNL     1     -43.341 -46.907  10.281  1.00  0.00    -0.347 N 
HETATM    8  C   UNL     1     -42.208 -46.121  10.416  1.00  0.00     0.221 A 
HETATM    9  C   UNL     1     -41.350 -46.679  11.517  1.00  0.00     0.118 A 
HETATM   10  O   UNL     1     -41.912 -45.157   9.726  1.00  0.00    -0.273 OA
BRANCH   7  11
HETATM   11  C   UNL     1     -44.156 -46.875   9.066  1.00  0.00     0.079 C 
HETATM   12  C   UNL     1     -43.491 -47.735   7.985  1.00  0.00     0.032 C 
HETATM   13  C   UNL     1     -45.601 -47.325   9.282  1.00  0.00     0.032 C 
ENDBRANCH   7  11
ENDBRANCH   1   5
BRANCH   3  14
HETATM   14  C   UNL     1     -39.158 -50.261  12.016  1.00  0.00     0.100 C 
HETATM   15  C   UNL     1     -37.801 -49.888  11.417  1.00  0.00     0.034 C 
BRANCH  14  16
HETATM   16  C   UNL     1     -38.964 -50.886  13.404  1.00  0.00     0.172 C 
BRANCH  16  17
HETATM   17  N   UNL     1     -39.493 -52.233  13.486  1.00  0.00    -0.302 N 
HETATM   18  C   UNL     1     -39.156 -53.194  14.394  1.00  0.00     0.111 A 
HETATM   19  C   UNL     1     -39.939 -54.288  14.093  1.00  0.00     0.037 A 
HETATM   20  C   UNL     1     -40.715 -53.880  12.992  1.00  0.00     0.108 A 
HETATM   21  N   UNL     1     -40.446 -52.625  12.616  1.00  0.00    -0.310 N 
ATOM     22  HN  UNL     1     -40.863 -52.092  11.854  1.00  0.00     0.186 HD
ENDBRANCH  16  17
ENDBRANCH  14  16
ENDBRANCH   3  14
TORSDOF 5
ENDMDL
MODEL 5
REMARK VINA RESULT:      -5.7      3.972      7.202
REMARK  5 active torsions:
REMARK  status: ('A' for Active; 'I' for Inactive)
REMARK    1  A    between atoms: C_2  and  N_4 
REMARK    2  A    between atoms: C_6  and  C_10 
REMARK       I    between atoms: C_10  and  N_12 
REMARK    3  A    between atoms: N_12  and  C_13 
REMARK    4  A    between atoms: C_13  and  C_15 
REMARK    5  A    between atoms: C_15  and  N_16 
ROOT
HETATM    1  C   UNL     1     -41.958 -52.894  13.766  1.00  0.00     0.224 C 
HETATM    2  O   UNL     1     -42.122 -51.676  13.782  1.00  0.00    -0.273 OA
HETATM    3  N   UNL     1     -40.823 -53.500  14.252  1.00  0.00    -0.355 N 
HETATM    4  H   UNL     1     -40.704 -54.504  14.147  1.00  0.00     0.162 HD
ENDROOT
BRANCH   1   5
HETATM    5  C   UNL     1     -43.035 -53.824  13.244  1.00  0.00     0.104 A 
HETATM    6  C   UNL     1     -44.133 -53.022  12.564  1.00  0.00     0.140 A 
HETATM    7  N   UNL     1     -45.351 -53.366  13.255  1.00  0.00    -0.347 N 
HETATM    8  C   UNL     1     -45.167 -54.328  14.234  1.00  0.00     0.221 A 
HETATM    9  C   UNL     1     -43.703 -54.654  14.336  1.00  0.00     0.118 A 
HETATM   10  O   UNL     1     -46.035 -54.807  14.947  1.00  0.00    -0.273 OA
BRANCH   7  11
HETATM   11  C   UNL     1     -46.571 -52.560  13.190  1.00  0.00     0.079 C 
HETATM   12  C   UNL     1     -46.497 -51.443  14.236  1.00  0.00     0.032 C 
HETATM   13  C   UNL     1     -46.846 -51.971  11.807  1.00  0.00     0.032 C 
ENDBRANCH   7  11
ENDBRANCH   1   5
BRANCH   3  14
HETATM   14  C   UNL     1     -39.701 -52.729  14.787  1.00  0.00     0.100 C 
HETATM   15  C   UNL     1     -39.071 -53.489  15.955  1.00  0.00     0.034 C 
BRANCH  14  16
HETATM   16  C   UNL     1     -38.639 -52.432  13.720  1.00  0.00     0.172 C 
BRANCH  16  17
HETATM   17  N   UNL     1     -38.832 -51.142  13.087  1.00  0.00    -0.302 N 
HETATM   18  C   UNL     1     -38.317 -49.944  13.489  1.00  0.00     0.111 A 
HETATM   19  C   UNL     1     -38.747 -49.019  12.562  1.00  0.00     0.037 A 
HETATM   20  C   UNL     1     -39.509 -49.762  11.642  1.00  0.00     0.108 A 
HETATM   21  N   UNL     1     -39.565 -51.060  11.958  1.00  0.00    -0.310 N 
ATOM     22  HN  UNL     1     -40.047 -51.811  11.463  1.00  0.00     0.186 HD
ENDBRANCH  16  17
ENDBRANCH  14  16
ENDBRANCH   3  14
TORSDOF 5
ENDMDL
MODEL 6
REMARK VINA RESULT:      -5.7      2.141      2.611
REMARK  5 active torsions:
REMARK  status: ('A' for Active; 'I' for Inactive)
REMARK    1  A    between atoms: C_2  and  N_4 
REMARK    2  A    between atoms: C_6  and  C_10 
REMARK       I    between atoms: C_10  and  N_12 
REMARK    3  A    between atoms: N_12  and  C_13 
REMARK    4  A    between atoms: C_13  and  C_15 
REMARK    5  A    between atoms: C_15  and  N_16 
ROOT
HETATM    1  C   UNL     1     -39.507 -47.828  11.810  1.00  0.00     0.224 C 
HETATM    2  O   UNL     1     -39.194 -47.382  12.911  1.00  0.00    -0.273 OA
HETATM    3  N   UNL     1     -39.905 -47.026  10.766  1.00  0.00    -0.355 N 
HETATM    4  H   UNL     1     -40.226 -47.449   9.900  1.00  0.00     0.162 HD
ENDROOT
BRANCH   1   5
HETATM    5  C   UNL     1     -39.427 -49.312  11.513  1.00  0.00     0.104 A 
HETATM    6  C   UNL     1     -39.990 -50.110  12.678  1.00  0.00     0.140 A 
HETATM    7  N   UNL     1     -38.929 -50.992  13.095  1.00  0.00    -0.347 N 
HETATM    8  C   UNL     1     -37.799 -50.896  12.300  1.00  0.00     0.221 A 
HETATM    9  C   UNL     1     -38.003 -49.809  11.282  1.00  0.00     0.118 A 
HETATM   10  O   UNL     1     -36.772 -51.545  12.425  1.00  0.00    -0.273 OA
BRANCH   7  11
HETATM   11  C   UNL     1     -38.896 -51.655  14.399  1.00  0.00     0.079 C 
HETATM   12  C   UNL     1     -39.780 -50.882  15.384  1.00  0.00     0.032 C 
HETATM   13  C   UNL     1     -39.317 -53.123  14.354  1.00  0.00     0.032 C 
ENDBRANCH   7  11
ENDBRANCH   1   5
BRANCH   3  14
HETATM   14  C   UNL     1     -40.030 -45.575  10.907  1.00  0.00     0.100 C 
HETATM   15  C   UNL     1     -39.251 -44.885   9.786  1.00  0.00     0.034 C 
BRANCH  14  16
HETATM   16  C   UNL     1     -41.492 -45.112  10.892  1.00  0.00     0.172 C 
BRANCH  16  17
HETATM   17  N   UNL     1     -42.397 -46.144  10.423  1.00  0.00    -0.302 N 
HETATM   18  C   UNL     1     -43.177 -46.962  11.187  1.00  0.00     0.111 A 
HETATM   19  C   UNL     1     -43.881 -47.748  10.299  1.00  0.00     0.037 A 
HETATM   20  C   UNL     1     -43.457 -47.319   9.028  1.00  0.00     0.108 A 
HETATM   21  N   UNL     1     -42.549 -46.339   9.097  1.00  0.00    -0.310 N 
ATOM     22  HN  UNL     1     -42.083 -45.855   8.330  1.00  0.00     0.186 HD
ENDBRANCH  16  17
ENDBRANCH  14  16
ENDBRANCH   3  14
TORSDOF 5
ENDMDL
MODEL 7
REMARK VINA RESULT:      -5.6      3.376      6.239
REMARK  5 active torsions:
REMARK  status: ('A' for Active; 'I' for Inactive)
REMARK    1  A    between atoms: C_2  and  N_4 
REMARK    2  A    between atoms: C_6  and  C_10 
REMARK       I    between atoms: C_10  and  N_12 
REMARK    3  A    between atoms: N_12  and  C_13 
REMARK    4  A    between atoms: C_13  and  C_15 
REMARK    5  A    between atoms: C_15  and  N_16 
ROOT
HETATM    1  C   UNL     1     -42.080 -52.122  12.139  1.00  0.00     0.224 C 
HETATM    2  O   UNL     1     -40.978 -52.555  11.812  1.00  0.00    -0.273 OA
HETATM    3  N   UNL     1     -42.397 -50.785  12.105  1.00  0.00    -0.355 N 
HETATM    4  H   UNL     1     -43.297 -50.472  12.457  1.00  0.00     0.162 HD
ENDROOT
BRANCH   1   5
HETATM    5  C   UNL     1     -43.196 -53.058  12.562  1.00  0.00     0.104 A 
HETATM    6  C   UNL     1     -44.407 -52.258  13.011  1.00  0.00     0.140 A 
HETATM    7  N   UNL     1     -44.678 -52.684  14.361  1.00  0.00    -0.347 N 
HETATM    8  C   UNL     1     -43.833 -53.695  14.791  1.00  0.00     0.221 A 
HETATM    9  C   UNL     1     -42.815 -53.973  13.722  1.00  0.00     0.118 A 
HETATM   10  O   UNL     1     -43.863 -54.245  15.881  1.00  0.00    -0.273 OA
BRANCH   7  11
HETATM   11  C   UNL     1     -45.499 -51.920  15.300  1.00  0.00     0.079 C 
HETATM   12  C   UNL     1     -44.699 -50.719  15.815  1.00  0.00     0.032 C 
HETATM   13  C   UNL     1     -46.831 -51.452  14.713  1.00  0.00     0.032 C 
ENDBRANCH   7  11
ENDBRANCH   1   5
BRANCH   3  14
HETATM   14  C   UNL     1     -41.421 -49.767  11.718  1.00  0.00     0.100 C 
HETATM   15  C   UNL     1     -42.150 -48.562  11.121  1.00  0.00     0.034 C 
BRANCH  14  16
HETATM   16  C   UNL     1     -40.547 -49.320  12.897  1.00  0.00     0.172 C 
BRANCH  16  17
HETATM   17  N   UNL     1     -39.217 -49.896  12.853  1.00  0.00    -0.302 N 
HETATM   18  C   UNL     1     -38.376 -50.101  13.908  1.00  0.00     0.111 A 
HETATM   19  C   UNL     1     -37.250 -50.697  13.381  1.00  0.00     0.037 A 
HETATM   20  C   UNL     1     -37.518 -50.812  12.004  1.00  0.00     0.108 A 
HETATM   21  N   UNL     1     -38.718 -50.324  11.676  1.00  0.00    -0.310 N 
ATOM     22  HN  UNL     1     -39.154 -50.284  10.754  1.00  0.00     0.186 HD
ENDBRANCH  16  17
ENDBRANCH  14  16
ENDBRANCH   3  14
TORSDOF 5
ENDMDL
MODEL 8
REMARK VINA RESULT:      -5.4      3.073      4.745
REMARK  5 active torsions:
REMARK  status: ('A' for Active; 'I' for Inactive)
REMARK    1  A    between atoms: C_2  and  N_4 
REMARK    2  A    between atoms: C_6  and  C_10 
REMARK       I    between atoms: C_10  and  N_12 
REMARK    3  A    between atoms: N_12  and  C_13 
REMARK    4  A    between atoms: C_13  and  C_15 
REMARK    5  A    between atoms: C_15  and  N_16 
ROOT
HETATM    1  C   UNL     1     -43.068 -49.571  13.560  1.00  0.00     0.224 C 
HETATM    2  O   UNL     1     -43.008 -48.433  14.018  1.00  0.00    -0.273 OA
HETATM    3  N   UNL     1     -42.246 -50.013  12.550  1.00  0.00    -0.355 N 
HETATM    4  H   UNL     1     -42.386 -50.939  12.156  1.00  0.00     0.162 HD
ENDROOT
BRANCH   1   5
HETATM    5  C   UNL     1     -44.037 -50.593  14.122  1.00  0.00     0.104 A 
HETATM    6  C   UNL     1     -43.282 -51.825  14.593  1.00  0.00     0.140 A 
HETATM    7  N   UNL     1     -43.849 -52.932  13.865  1.00  0.00    -0.347 N 
HETATM    8  C   UNL     1     -44.905 -52.561  13.049  1.00  0.00     0.221 A 
HETATM    9  C   UNL     1     -45.074 -51.069  13.109  1.00  0.00     0.118 A 
HETATM   10  O   UNL     1     -45.569 -53.307  12.345  1.00  0.00    -0.273 OA
BRANCH   7  11
HETATM   11  C   UNL     1     -43.185 -54.228  13.720  1.00  0.00     0.079 C 
HETATM   12  C   UNL     1     -41.772 -54.015  13.167  1.00  0.00     0.032 C 
HETATM   13  C   UNL     1     -43.128 -55.039  15.014  1.00  0.00     0.032 C 
ENDBRANCH   7  11
ENDBRANCH   1   5
BRANCH   3  14
HETATM   14  C   UNL     1     -41.263 -49.138  11.912  1.00  0.00     0.100 C 
HETATM   15  C   UNL     1     -40.046 -49.962  11.488  1.00  0.00     0.034 C 
BRANCH  14  16
HETATM   16  C   UNL     1     -41.843 -48.397  10.700  1.00  0.00     0.172 C 
BRANCH  16  17
HETATM   17  N   UNL     1     -41.573 -46.973  10.738  1.00  0.00    -0.302 N 
HETATM   18  C   UNL     1     -42.430 -45.985  11.127  1.00  0.00     0.111 A 
HETATM   19  C   UNL     1     -41.719 -44.808  11.023  1.00  0.00     0.037 A 
HETATM   20  C   UNL     1     -40.446 -45.198  10.570  1.00  0.00     0.108 A 
HETATM   21  N   UNL     1     -40.351 -46.520  10.393  1.00  0.00    -0.310 N 
ATOM     22  HN  UNL     1     -39.545 -47.059  10.074  1.00  0.00     0.186 HD
ENDBRANCH  16  17
ENDBRANCH  14  16
ENDBRANCH   3  14
TORSDOF 5
ENDMDL
MODEL 9
REMARK VINA RESULT:      -5.2      4.346      7.377
REMARK  5 active torsions:
REMARK  status: ('A' for Active; 'I' for Inactive)
REMARK    1  A    between atoms: C_2  and  N_4 
REMARK    2  A    between atoms: C_6  and  C_10 
REMARK       I    between atoms: C_10  and  N_12 
REMARK    3  A    between atoms: N_12  and  C_13 
REMARK    4  A    between atoms: C_13  and  C_15 
REMARK    5  A    between atoms: C_15  and  N_16 
ROOT
HETATM    1  C   UNL     1     -44.454 -52.587  12.965  1.00  0.00     0.224 C 
HETATM    2  O   UNL     1     -43.864 -53.219  12.092  1.00  0.00    -0.273 OA
HETATM    3  N   UNL     1     -44.038 -51.351  13.401  1.00  0.00    -0.355 N 
HETATM    4  H   UNL     1     -44.518 -50.904  14.177  1.00  0.00     0.162 HD
ENDROOT
BRANCH   1   5
HETATM    5  C   UNL     1     -45.730 -53.117  13.590  1.00  0.00     0.104 A 
HETATM    6  C   UNL     1     -46.394 -52.032  14.422  1.00  0.00     0.140 A 
HETATM    7  N   UNL     1     -46.513 -52.577  15.750  1.00  0.00    -0.347 N 
HETATM    8  C   UNL     1     -46.069 -53.887  15.842  1.00  0.00     0.221 A 
HETATM    9  C   UNL     1     -45.503 -54.309  14.515  1.00  0.00     0.118 A 
HETATM   10  O   UNL     1     -46.079 -54.583  16.845  1.00  0.00    -0.273 OA
BRANCH   7  11
HETATM   11  C   UNL     1     -46.738 -51.759  16.942  1.00  0.00     0.079 C 
HETATM   12  C   UNL     1     -45.715 -50.619  16.976  1.00  0.00     0.032 C 
HETATM   13  C   UNL     1     -48.156 -51.197  17.045  1.00  0.00     0.032 C 
ENDBRANCH   7  11
ENDBRANCH   1   5
BRANCH   3  14
HETATM   14  C   UNL     1     -42.825 -50.716  12.888  1.00  0.00     0.100 C 
HETATM   15  C   UNL     1     -43.079 -49.222  12.684  1.00  0.00     0.034 C 
BRANCH  14  16
HETATM   16  C   UNL     1     -41.622 -50.922  13.817  1.00  0.00     0.172 C 
BRANCH  16  17
HETATM   17  N   UNL     1     -41.231 -52.314  13.921  1.00  0.00    -0.302 N 
HETATM   18  C   UNL     1     -41.256 -53.093  15.041  1.00  0.00     0.111 A 
HETATM   19  C   UNL     1     -40.827 -54.341  14.640  1.00  0.00     0.037 A 
HETATM   20  C   UNL     1     -40.575 -54.208  13.262  1.00  0.00     0.108 A 
HETATM   21  N   UNL     1     -40.819 -52.970  12.817  1.00  0.00    -0.310 N 
ATOM     22  HN  UNL     1     -40.719 -52.609  11.868  1.00  0.00     0.186 HD
ENDBRANCH  16  17
ENDBRANCH  14  16
ENDBRANCH   3  14
TORSDOF 5
ENDMDL
