MODEL 1
REMARK VINA RESULT:      -7.1      0.000      0.000
REMARK  7 active torsions:
REMARK  status: ('A' for Active; 'I' for Inactive)
REMARK    1  A    between atoms: C_2  and  C_3 
REMARK       I    between atoms: C_2  and  N_17 
REMARK    2  A    between atoms: C_3  and  N_4 
REMARK    3  A    between atoms: C_6  and  C_11 
REMARK       I    between atoms: C_11  and  N_13 
REMARK    4  A    between atoms: N_13  and  C_14 
REMARK    5  A    between atoms: N_17  and  C_18 
REMARK    6  A    between atoms: C_18  and  C_19 
REMARK    7  A    between atoms: C_19  and  C_20 
ROOT
HETATM    1  C   UNL     1     -46.600 -52.350  12.874  1.00  0.00     0.216 C 
HETATM    2  C   UNL     1     -47.110 -51.696  11.666  1.00  0.00    -0.098 C 
HETATM    3  C   UNL     1     -47.532 -51.169  10.674  1.00  0.00     0.014 C 
ENDROOT
BRANCH   1   4
HETATM    4  N   UNL     1     -45.177 -52.138  12.987  1.00  0.00    -0.346 N 
HETATM    5  C   UNL     1     -44.311 -53.179  12.770  1.00  0.00     0.253 C 
HETATM    6  O   UNL     1     -44.698 -54.314  12.501  1.00  0.00    -0.268 OA
HETATM    7  H   UNL     1     -44.847 -51.186  13.049  1.00  0.00     0.163 HD
BRANCH   5   8
HETATM    8  C   UNL     1     -42.841 -52.868  12.831  1.00  0.00     0.047 A 
HETATM    9  C   UNL     1     -42.260 -51.906  12.090  1.00  0.00     0.111 A 
HETATM   10  N   UNL     1     -40.902 -51.623  12.192  1.00  0.00    -0.315 N 
HETATM   11  C   UNL     1     -40.049 -52.341  13.024  1.00  0.00     0.247 A 
HETATM   12  C   UNL     1     -40.698 -53.355  13.893  1.00  0.00     0.075 A 
HETATM   13  O   UNL     1     -38.832 -52.172  13.074  1.00  0.00    -0.268 OA
HETATM   14  C   UNL     1     -42.015 -53.584  13.789  1.00  0.00     0.024 A 
BRANCH  10  15
HETATM   15  C   UNL     1     -40.321 -50.544  11.397  1.00  0.00     0.234 C 
BRANCH  15  16
HETATM   16  C   UNL     1     -41.016 -49.216  11.692  1.00  0.00     0.235 C 
HETATM   17  O   UNL     1     -41.225 -48.832  12.842  1.00  0.00    -0.272 OA
HETATM   18  N   UNL     1     -41.429 -48.531  10.565  1.00  0.00    -0.359 N 
HETATM   19  H   UNL     1     -41.545 -49.092   9.722  1.00  0.00     0.162 HD
BRANCH  18  20
HETATM   20  C   UNL     1     -42.213 -47.314  10.676  1.00  0.00     0.127 C 
BRANCH  20  21
HETATM   21  C   UNL     1     -42.668 -46.803   9.306  1.00  0.00     0.053 C 
BRANCH  21  22
HETATM   22  C   UNL     1     -43.958 -47.454   8.852  1.00  0.00    -0.082 A 
HETATM   23  C   UNL     1     -45.065 -47.388   9.608  1.00  0.00    -0.024 A 
HETATM   24  C   UNL     1     -46.367 -48.025   9.271  1.00  0.00     0.027 A 
HETATM   25  C   UNL     1     -46.451 -48.775   7.947  1.00  0.00     0.004 A 
HETATM   26  C   UNL     1     -45.217 -48.820   7.050  1.00  0.00     0.005 A 
HETATM   27  C   UNL     1     -43.924 -48.161   7.532  1.00  0.00     0.034 A 
ENDBRANCH  21  22
ENDBRANCH  20  21
ENDBRANCH  18  20
ENDBRANCH  15  16
ENDBRANCH  10  15
ENDBRANCH   5   8
ENDBRANCH   1   4
TORSDOF 7
ENDMDL
MODEL 2
REMARK VINA RESULT:      -6.6      2.079      6.203
REMARK  7 active torsions:
REMARK  status: ('A' for Active; 'I' for Inactive)
REMARK    1  A    between atoms: C_2  and  C_3 
REMARK       I    between atoms: C_2  and  N_17 
REMARK    2  A    between atoms: C_3  and  N_4 
REMARK    3  A    between atoms: C_6  and  C_11 
REMARK       I    between atoms: C_11  and  N_13 
REMARK    4  A    between atoms: N_13  and  C_14 
REMARK    5  A    between atoms: N_17  and  C_18 
REMARK    6  A    between atoms: C_18  and  C_19 
REMARK    7  A    between atoms: C_19  and  C_20 
ROOT
HETATM    1  C   UNL     1     -45.071 -46.262   8.958  1.00  0.00     0.216 C 
HETATM    2  C   UNL     1     -46.237 -47.146   9.020  1.00  0.00    -0.098 C 
HETATM    3  C   UNL     1     -47.199 -47.863   9.076  1.00  0.00     0.014 C 
ENDROOT
BRANCH   1   4
HETATM    4  N   UNL     1     -43.934 -46.899   9.577  1.00  0.00    -0.346 N 
HETATM    5  C   UNL     1     -42.878 -46.140  10.015  1.00  0.00     0.253 C 
HETATM    6  O   UNL     1     -42.844 -44.920   9.880  1.00  0.00    -0.268 OA
HETATM    7  H   UNL     1     -44.023 -47.871   9.833  1.00  0.00     0.163 HD
BRANCH   5   8
HETATM    8  C   UNL     1     -41.763 -46.864  10.718  1.00  0.00     0.047 A 
HETATM    9  C   UNL     1     -41.604 -48.200  10.669  1.00  0.00     0.111 A 
HETATM   10  N   UNL     1     -40.544 -48.834  11.305  1.00  0.00    -0.315 N 
HETATM   11  C   UNL     1     -39.610 -48.145  12.070  1.00  0.00     0.247 A 
HETATM   12  C   UNL     1     -39.740 -46.666  12.069  1.00  0.00     0.075 A 
HETATM   13  O   UNL     1     -38.712 -48.685  12.714  1.00  0.00    -0.268 OA
HETATM   14  C   UNL     1     -40.759 -46.083  11.421  1.00  0.00     0.024 A 
BRANCH  10  15
HETATM   15  C   UNL     1     -40.389 -50.283  11.193  1.00  0.00     0.234 C 
BRANCH  15  16
HETATM   16  C   UNL     1     -41.301 -51.007  12.182  1.00  0.00     0.235 C 
HETATM   17  O   UNL     1     -41.544 -50.549  13.298  1.00  0.00    -0.272 OA
HETATM   18  N   UNL     1     -41.768 -52.227  11.733  1.00  0.00    -0.359 N 
HETATM   19  H   UNL     1     -41.223 -52.666  10.991  1.00  0.00     0.162 HD
BRANCH  18  20
HETATM   20  C   UNL     1     -42.544 -53.095  12.600  1.00  0.00     0.127 C 
BRANCH  20  21
HETATM   21  C   UNL     1     -44.046 -52.974  12.329  1.00  0.00     0.053 C 
BRANCH  21  22
HETATM   22  C   UNL     1     -44.796 -52.391  13.508  1.00  0.00    -0.082 A 
HETATM   23  C   UNL     1     -46.071 -51.994  13.384  1.00  0.00    -0.024 A 
HETATM   24  C   UNL     1     -46.880 -51.374  14.468  1.00  0.00     0.027 A 
HETATM   25  C   UNL     1     -46.214 -51.218  15.830  1.00  0.00     0.004 A 
HETATM   26  C   UNL     1     -44.780 -51.710  16.005  1.00  0.00     0.005 A 
HETATM   27  C   UNL     1     -44.041 -52.290  14.798  1.00  0.00     0.034 A 
ENDBRANCH  21  22
ENDBRANCH  20  21
ENDBRANCH  18  20
ENDBRANCH  15  16
ENDBRANCH  10  15
ENDBRANCH   5   8
ENDBRANCH   1   4
TORSDOF 7
ENDMDL
MODEL 3
REMARK VINA RESULT:      -6.5      2.229      6.125
REMARK  7 active torsions:
REMARK  status: ('A' for Active; 'I' for Inactive)
REMARK    1  A    between atoms: C_2  and  C_3 
REMARK       I    between atoms: C_2  and  N_17 
REMARK    2  A    between atoms: C_3  and  N_4 
REMARK    3  A    between atoms: C_6  and  C_11 
REMARK       I    between atoms: C_11  and  N_13 
REMARK    4  A    between atoms: N_13  and  C_14 
REMARK    5  A    between atoms: N_17  and  C_18 
REMARK    6  A    between atoms: C_18  and  C_19 
REMARK    7  A    between atoms: C_19  and  C_20 
ROOT
HETATM    1  C   UNL     1     -42.001 -46.052   9.994  1.00  0.00     0.216 C 
HETATM    2  C   UNL     1     -43.211 -46.491   9.295  1.00  0.00    -0.098 C 
HETATM    3  C   UNL     1     -44.208 -46.845   8.729  1.00  0.00     0.014 C 
ENDROOT
BRANCH   1   4
HETATM    4  N   UNL     1     -41.231 -47.196  10.417  1.00  0.00    -0.346 N 
HETATM    5  C   UNL     1     -41.176 -47.532  11.745  1.00  0.00     0.253 C 
HETATM    6  O   UNL     1     -41.746 -46.877  12.614  1.00  0.00    -0.268 OA
HETATM    7  H   UNL     1     -40.895 -47.826   9.703  1.00  0.00     0.163 HD
BRANCH   5   8
HETATM    8  C   UNL     1     -40.417 -48.780  12.103  1.00  0.00     0.047 A 
HETATM    9  C   UNL     1     -40.925 -50.019  11.959  1.00  0.00     0.111 A 
HETATM   10  N   UNL     1     -40.185 -51.154  12.271  1.00  0.00    -0.315 N 
HETATM   11  C   UNL     1     -38.898 -51.087  12.795  1.00  0.00     0.247 A 
HETATM   12  C   UNL     1     -38.309 -49.728  12.889  1.00  0.00     0.075 A 
HETATM   13  O   UNL     1     -38.252 -52.067  13.160  1.00  0.00    -0.268 OA
HETATM   14  C   UNL     1     -39.041 -48.655  12.554  1.00  0.00     0.024 A 
BRANCH  10  15
HETATM   15  C   UNL     1     -40.762 -52.480  12.063  1.00  0.00     0.234 C 
BRANCH  15  16
HETATM   16  C   UNL     1     -42.040 -52.653  12.882  1.00  0.00     0.235 C 
HETATM   17  O   UNL     1     -42.014 -52.829  14.099  1.00  0.00    -0.272 OA
HETATM   18  N   UNL     1     -43.199 -52.650  12.129  1.00  0.00    -0.359 N 
HETATM   19  H   UNL     1     -43.088 -52.873  11.141  1.00  0.00     0.162 HD
BRANCH  18  20
HETATM   20  C   UNL     1     -44.487 -52.926  12.740  1.00  0.00     0.127 C 
BRANCH  20  21
HETATM   21  C   UNL     1     -45.333 -51.659  12.883  1.00  0.00     0.053 C 
BRANCH  21  22
HETATM   22  C   UNL     1     -45.640 -51.335  14.330  1.00  0.00    -0.082 A 
HETATM   23  C   UNL     1     -46.850 -51.587  14.849  1.00  0.00    -0.024 A 
HETATM   24  C   UNL     1     -47.263 -51.270  16.244  1.00  0.00     0.027 A 
HETATM   25  C   UNL     1     -46.212 -50.649  17.155  1.00  0.00     0.004 A 
HETATM   26  C   UNL     1     -44.813 -50.400  16.598  1.00  0.00     0.005 A 
HETATM   27  C   UNL     1     -44.528 -50.729  15.132  1.00  0.00     0.034 A 
ENDBRANCH  21  22
ENDBRANCH  20  21
ENDBRANCH  18  20
ENDBRANCH  15  16
ENDBRANCH  10  15
ENDBRANCH   5   8
ENDBRANCH   1   4
TORSDOF 7
ENDMDL
MODEL 4
REMARK VINA RESULT:      -6.5      2.468      7.100
REMARK  7 active torsions:
REMARK  status: ('A' for Active; 'I' for Inactive)
REMARK    1  A    between atoms: C_2  and  C_3 
REMARK       I    between atoms: C_2  and  N_17 
REMARK    2  A    between atoms: C_3  and  N_4 
REMARK    3  A    between atoms: C_6  and  C_11 
REMARK       I    between atoms: C_11  and  N_13 
REMARK    4  A    between atoms: N_13  and  C_14 
REMARK    5  A    between atoms: N_17  and  C_18 
REMARK    6  A    between atoms: C_18  and  C_19 
REMARK    7  A    between atoms: C_19  and  C_20 
ROOT
HETATM    1  C   UNL     1     -45.590 -46.214   9.020  1.00  0.00     0.216 C 
HETATM    2  C   UNL     1     -46.267 -47.498   8.818  1.00  0.00    -0.098 C 
HETATM    3  C   UNL     1     -46.830 -48.545   8.655  1.00  0.00     0.014 C 
ENDROOT
BRANCH   1   4
HETATM    4  N   UNL     1     -44.455 -46.386   9.894  1.00  0.00    -0.346 N 
HETATM    5  C   UNL     1     -43.184 -46.228   9.404  1.00  0.00     0.253 C 
HETATM    6  O   UNL     1     -42.960 -45.965   8.225  1.00  0.00    -0.268 OA
HETATM    7  H   UNL     1     -44.631 -46.445  10.886  1.00  0.00     0.163 HD
BRANCH   5   8
HETATM    8  C   UNL     1     -42.053 -46.348  10.387  1.00  0.00     0.047 A 
HETATM    9  C   UNL     1     -41.441 -47.514  10.669  1.00  0.00     0.111 A 
HETATM   10  N   UNL     1     -40.378 -47.586  11.562  1.00  0.00    -0.315 N 
HETATM   11  C   UNL     1     -39.908 -46.476  12.256  1.00  0.00     0.247 A 
HETATM   12  C   UNL     1     -40.532 -45.178  11.896  1.00  0.00     0.075 A 
HETATM   13  O   UNL     1     -39.028 -46.521  13.113  1.00  0.00    -0.268 OA
HETATM   14  C   UNL     1     -41.539 -45.140  11.010  1.00  0.00     0.024 A 
BRANCH  10  15
HETATM   15  C   UNL     1     -39.718 -48.866  11.808  1.00  0.00     0.234 C 
BRANCH  15  16
HETATM   16  C   UNL     1     -40.730 -49.925  12.241  1.00  0.00     0.235 C 
HETATM   17  O   UNL     1     -41.459 -49.767  13.218  1.00  0.00    -0.272 OA
HETATM   18  N   UNL     1     -40.703 -51.078  11.479  1.00  0.00    -0.359 N 
HETATM   19  H   UNL     1     -39.840 -51.250  10.964  1.00  0.00     0.162 HD
BRANCH  18  20
HETATM   20  C   UNL     1     -41.514 -52.228  11.836  1.00  0.00     0.127 C 
BRANCH  20  21
HETATM   21  C   UNL     1     -40.680 -53.331  12.492  1.00  0.00     0.053 C 
BRANCH  21  22
HETATM   22  C   UNL     1     -41.401 -53.981  13.654  1.00  0.00    -0.082 A 
HETATM   23  C   UNL     1     -40.734 -54.350  14.757  1.00  0.00    -0.024 A 
HETATM   24  C   UNL     1     -41.342 -55.029  15.934  1.00  0.00     0.027 A 
HETATM   25  C   UNL     1     -42.843 -55.287  15.888  1.00  0.00     0.004 A 
HETATM   26  C   UNL     1     -43.628 -54.830  14.662  1.00  0.00     0.005 A 
HETATM   27  C   UNL     1     -42.877 -54.182  13.499  1.00  0.00     0.034 A 
ENDBRANCH  21  22
ENDBRANCH  20  21
ENDBRANCH  18  20
ENDBRANCH  15  16
ENDBRANCH  10  15
ENDBRANCH   5   8
ENDBRANCH   1   4
TORSDOF 7
ENDMDL
MODEL 5
REMARK VINA RESULT:      -6.3      3.855      6.698
REMARK  7 active torsions:
REMARK  status: ('A' for Active; 'I' for Inactive)
REMARK    1  A    between atoms: C_2  and  C_3 
REMARK       I    between atoms: C_2  and  N_17 
REMARK    2  A    between atoms: C_3  and  N_4 
REMARK    3  A    between atoms: C_6  and  C_11 
REMARK       I    between atoms: C_11  and  N_13 
REMARK    4  A    between atoms: N_13  and  C_14 
REMARK    5  A    between atoms: N_17  and  C_18 
REMARK    6  A    between atoms: C_18  and  C_19 
REMARK    7  A    between atoms: C_19  and  C_20 
ROOT
HETATM    1  C   UNL     1     -48.428 -50.414  18.717  1.00  0.00     0.216 C 
HETATM    2  C   UNL     1     -48.330 -48.960  18.869  1.00  0.00    -0.098 C 
HETATM    3  C   UNL     1     -48.260 -47.769  18.997  1.00  0.00     0.014 C 
ENDROOT
BRANCH   1   4
HETATM    4  N   UNL     1     -47.956 -50.807  17.412  1.00  0.00    -0.346 N 
HETATM    5  C   UNL     1     -46.984 -51.768  17.297  1.00  0.00     0.253 C 
HETATM    6  O   UNL     1     -46.469 -52.305  18.275  1.00  0.00    -0.268 OA
HETATM    7  H   UNL     1     -48.478 -50.491  16.609  1.00  0.00     0.163 HD
BRANCH   5   8
HETATM    8  C   UNL     1     -46.594 -52.181  15.904  1.00  0.00     0.047 A 
HETATM    9  C   UNL     1     -46.031 -53.371  15.619  1.00  0.00     0.111 A 
HETATM   10  N   UNL     1     -45.710 -53.734  14.316  1.00  0.00    -0.315 N 
HETATM   11  C   UNL     1     -45.902 -52.883  13.233  1.00  0.00     0.247 A 
HETATM   12  C   UNL     1     -46.587 -51.600  13.534  1.00  0.00     0.075 A 
HETATM   13  O   UNL     1     -45.552 -53.141  12.083  1.00  0.00    -0.268 OA
HETATM   14  C   UNL     1     -46.908 -51.292  14.799  1.00  0.00     0.024 A 
BRANCH  10  15
HETATM   15  C   UNL     1     -45.136 -55.051  14.048  1.00  0.00     0.234 C 
BRANCH  15  16
HETATM   16  C   UNL     1     -43.651 -55.081  14.405  1.00  0.00     0.235 C 
HETATM   17  O   UNL     1     -43.233 -55.673  15.399  1.00  0.00    -0.272 OA
HETATM   18  N   UNL     1     -42.850 -54.344  13.554  1.00  0.00    -0.359 N 
HETATM   19  H   UNL     1     -43.321 -53.616  13.018  1.00  0.00     0.162 HD
BRANCH  18  20
HETATM   20  C   UNL     1     -41.434 -54.169  13.826  1.00  0.00     0.127 C 
BRANCH  20  21
HETATM   21  C   UNL     1     -41.167 -52.917  14.666  1.00  0.00     0.053 C 
BRANCH  21  22
HETATM   22  C   UNL     1     -41.808 -51.681  14.072  1.00  0.00    -0.082 A 
HETATM   23  C   UNL     1     -41.428 -51.219  12.871  1.00  0.00    -0.024 A 
HETATM   24  C   UNL     1     -41.967 -49.994  12.219  1.00  0.00     0.027 A 
HETATM   25  C   UNL     1     -43.060 -49.235  12.963  1.00  0.00     0.004 A 
HETATM   26  C   UNL     1     -43.541 -49.773  14.308  1.00  0.00     0.005 A 
HETATM   27  C   UNL     1     -42.874 -51.019  14.891  1.00  0.00     0.034 A 
ENDBRANCH  21  22
ENDBRANCH  20  21
ENDBRANCH  18  20
ENDBRANCH  15  16
ENDBRANCH  10  15
ENDBRANCH   5   8
ENDBRANCH   1   4
TORSDOF 7
ENDMDL
MODEL 6
REMARK VINA RESULT:      -6.2      2.785      3.757
REMARK  7 active torsions:
REMARK  status: ('A' for Active; 'I' for Inactive)
REMARK    1  A    between atoms: C_2  and  C_3 
REMARK       I    between atoms: C_2  and  N_17 
REMARK    2  A    between atoms: C_3  and  N_4 
REMARK    3  A    between atoms: C_6  and  C_11 
REMARK       I    between atoms: C_11  and  N_13 
REMARK    4  A    between atoms: N_13  and  C_14 
REMARK    5  A    between atoms: N_17  and  C_18 
REMARK    6  A    between atoms: C_18  and  C_19 
REMARK    7  A    between atoms: C_19  and  C_20 
ROOT
HETATM    1  C   UNL     1     -46.842 -53.230  15.082  1.00  0.00     0.216 C 
HETATM    2  C   UNL     1     -47.260 -52.062  15.861  1.00  0.00    -0.098 C 
HETATM    3  C   UNL     1     -47.610 -51.103  16.491  1.00  0.00     0.014 C 
ENDROOT
BRANCH   1   4
HETATM    4  N   UNL     1     -45.411 -53.214  14.897  1.00  0.00    -0.346 N 
HETATM    5  C   UNL     1     -44.774 -54.316  14.387  1.00  0.00     0.253 C 
HETATM    6  O   UNL     1     -45.374 -55.348  14.095  1.00  0.00    -0.268 OA
HETATM    7  H   UNL     1     -44.937 -52.327  14.982  1.00  0.00     0.163 HD
BRANCH   5   8
HETATM    8  C   UNL     1     -43.293 -54.201  14.151  1.00  0.00     0.047 A 
HETATM    9  C   UNL     1     -42.763 -53.548  13.100  1.00  0.00     0.111 A 
HETATM   10  N   UNL     1     -41.388 -53.434  12.927  1.00  0.00    -0.315 N 
HETATM   11  C   UNL     1     -40.474 -54.023  13.794  1.00  0.00     0.247 A 
HETATM   12  C   UNL     1     -41.053 -54.684  14.991  1.00  0.00     0.075 A 
HETATM   13  O   UNL     1     -39.257 -54.013  13.623  1.00  0.00    -0.268 OA
HETATM   14  C   UNL     1     -42.384 -54.753  15.141  1.00  0.00     0.024 A 
BRANCH  10  15
HETATM   15  C   UNL     1     -40.856 -52.682  11.793  1.00  0.00     0.234 C 
BRANCH  15  16
HETATM   16  C   UNL     1     -40.783 -51.191  12.114  1.00  0.00     0.235 C 
HETATM   17  O   UNL     1     -40.006 -50.744  12.957  1.00  0.00    -0.272 OA
HETATM   18  N   UNL     1     -41.697 -50.418  11.423  1.00  0.00    -0.359 N 
HETATM   19  H   UNL     1     -42.510 -50.911  11.058  1.00  0.00     0.162 HD
BRANCH  18  20
HETATM   20  C   UNL     1     -41.840 -49.000  11.705  1.00  0.00     0.127 C 
BRANCH  20  21
HETATM   21  C   UNL     1     -41.663 -48.149  10.445  1.00  0.00     0.053 C 
BRANCH  21  22
HETATM   22  C   UNL     1     -41.373 -46.699  10.770  1.00  0.00    -0.082 A 
HETATM   23  C   UNL     1     -40.111 -46.254  10.860  1.00  0.00    -0.024 A 
HETATM   24  C   UNL     1     -39.720 -44.861  11.211  1.00  0.00     0.027 A 
HETATM   25  C   UNL     1     -40.847 -43.863  11.447  1.00  0.00     0.004 A 
HETATM   26  C   UNL     1     -42.291 -44.338  11.301  1.00  0.00     0.005 A 
HETATM   27  C   UNL     1     -42.559 -45.808  10.979  1.00  0.00     0.034 A 
ENDBRANCH  21  22
ENDBRANCH  20  21
ENDBRANCH  18  20
ENDBRANCH  15  16
ENDBRANCH  10  15
ENDBRANCH   5   8
ENDBRANCH   1   4
TORSDOF 7
ENDMDL
MODEL 7
REMARK VINA RESULT:      -6.2      2.509      6.863
REMARK  7 active torsions:
REMARK  status: ('A' for Active; 'I' for Inactive)
REMARK    1  A    between atoms: C_2  and  C_3 
REMARK       I    between atoms: C_2  and  N_17 
REMARK    2  A    between atoms: C_3  and  N_4 
REMARK    3  A    between atoms: C_6  and  C_11 
REMARK       I    between atoms: C_11  and  N_13 
REMARK    4  A    between atoms: N_13  and  C_14 
REMARK    5  A    between atoms: N_17  and  C_18 
REMARK    6  A    between atoms: C_18  and  C_19 
REMARK    7  A    between atoms: C_19  and  C_20 
ROOT
HETATM    1  C   UNL     1     -43.492 -46.556   8.402  1.00  0.00     0.216 C 
HETATM    2  C   UNL     1     -44.809 -47.053   8.807  1.00  0.00    -0.098 C 
HETATM    3  C   UNL     1     -45.892 -47.451   9.139  1.00  0.00     0.014 C 
ENDROOT
BRANCH   1   4
HETATM    4  N   UNL     1     -42.484 -47.017   9.326  1.00  0.00    -0.346 N 
HETATM    5  C   UNL     1     -41.926 -46.141  10.222  1.00  0.00     0.253 C 
HETATM    6  O   UNL     1     -42.233 -44.952  10.261  1.00  0.00    -0.268 OA
HETATM    7  H   UNL     1     -42.343 -48.012   9.409  1.00  0.00     0.163 HD
BRANCH   5   8
HETATM    8  C   UNL     1     -40.938 -46.707  11.204  1.00  0.00     0.047 A 
HETATM    9  C   UNL     1     -40.543 -47.994  11.195  1.00  0.00     0.111 A 
HETATM   10  N   UNL     1     -39.605 -48.479  12.098  1.00  0.00    -0.315 N 
HETATM   11  C   UNL     1     -39.049 -47.686  13.097  1.00  0.00     0.247 A 
HETATM   12  C   UNL     1     -39.427 -46.251  13.066  1.00  0.00     0.075 A 
HETATM   13  O   UNL     1     -38.282 -48.105  13.962  1.00  0.00    -0.268 OA
HETATM   14  C   UNL     1     -40.315 -45.810  12.164  1.00  0.00     0.024 A 
BRANCH  10  15
HETATM   15  C   UNL     1     -39.177 -49.874  12.026  1.00  0.00     0.234 C 
BRANCH  15  16
HETATM   16  C   UNL     1     -40.014 -50.749  12.957  1.00  0.00     0.235 C 
HETATM   17  O   UNL     1     -41.191 -50.493  13.207  1.00  0.00    -0.272 OA
HETATM   18  N   UNL     1     -39.318 -51.799  13.524  1.00  0.00    -0.359 N 
HETATM   19  H   UNL     1     -38.304 -51.698  13.551  1.00  0.00     0.162 HD
BRANCH  18  20
HETATM   20  C   UNL     1     -39.935 -52.650  14.526  1.00  0.00     0.127 C 
BRANCH  20  21
HETATM   21  C   UNL     1     -40.311 -54.020  13.955  1.00  0.00     0.053 C 
BRANCH  21  22
HETATM   22  C   UNL     1     -41.811 -54.202  13.845  1.00  0.00    -0.082 A 
HETATM   23  C   UNL     1     -42.487 -53.716  12.795  1.00  0.00    -0.024 A 
HETATM   24  C   UNL     1     -43.962 -53.808  12.613  1.00  0.00     0.027 A 
HETATM   25  C   UNL     1     -44.749 -54.546  13.690  1.00  0.00     0.004 A 
HETATM   26  C   UNL     1     -43.991 -55.150  14.869  1.00  0.00     0.005 A 
HETATM   27  C   UNL     1     -42.478 -54.947  14.961  1.00  0.00     0.034 A 
ENDBRANCH  21  22
ENDBRANCH  20  21
ENDBRANCH  18  20
ENDBRANCH  15  16
ENDBRANCH  10  15
ENDBRANCH   5   8
ENDBRANCH   1   4
TORSDOF 7
ENDMDL
MODEL 8
REMARK VINA RESULT:      -6.2      1.574      2.333
REMARK  7 active torsions:
REMARK  status: ('A' for Active; 'I' for Inactive)
REMARK    1  A    between atoms: C_2  and  C_3 
REMARK       I    between atoms: C_2  and  N_17 
REMARK    2  A    between atoms: C_3  and  N_4 
REMARK    3  A    between atoms: C_6  and  C_11 
REMARK       I    between atoms: C_11  and  N_13 
REMARK    4  A    between atoms: N_13  and  C_14 
REMARK    5  A    between atoms: N_17  and  C_18 
REMARK    6  A    between atoms: C_18  and  C_19 
REMARK    7  A    between atoms: C_19  and  C_20 
ROOT
HETATM    1  C   UNL     1     -46.262 -51.775  13.308  1.00  0.00     0.216 C 
HETATM    2  C   UNL     1     -46.907 -51.643  14.617  1.00  0.00    -0.098 C 
HETATM    3  C   UNL     1     -47.440 -51.526  15.686  1.00  0.00     0.014 C 
ENDROOT
BRANCH   1   4
HETATM    4  N   UNL     1     -44.830 -51.834  13.466  1.00  0.00    -0.346 N 
HETATM    5  C   UNL     1     -44.131 -52.907  12.976  1.00  0.00     0.253 C 
HETATM    6  O   UNL     1     -44.681 -53.852  12.417  1.00  0.00    -0.268 OA
HETATM    7  H   UNL     1     -44.357 -50.998  13.778  1.00  0.00     0.163 HD
BRANCH   5   8
HETATM    8  C   UNL     1     -42.633 -52.866  13.110  1.00  0.00     0.047 A 
HETATM    9  C   UNL     1     -41.939 -51.723  13.264  1.00  0.00     0.111 A 
HETATM   10  N   UNL     1     -40.557 -51.721  13.415  1.00  0.00    -0.315 N 
HETATM   11  C   UNL     1     -39.798 -52.886  13.370  1.00  0.00     0.247 A 
HETATM   12  C   UNL     1     -40.566 -54.153  13.272  1.00  0.00     0.075 A 
HETATM   13  O   UNL     1     -38.570 -52.911  13.416  1.00  0.00    -0.268 OA
HETATM   14  C   UNL     1     -41.902 -54.121  13.154  1.00  0.00     0.024 A 
BRANCH  10  15
HETATM   15  C   UNL     1     -39.847 -50.460  13.619  1.00  0.00     0.234 C 
BRANCH  15  16
HETATM   16  C   UNL     1     -40.014 -49.540  12.411  1.00  0.00     0.235 C 
HETATM   17  O   UNL     1     -39.984 -49.968  11.259  1.00  0.00    -0.272 OA
HETATM   18  N   UNL     1     -40.142 -48.202  12.733  1.00  0.00    -0.359 N 
HETATM   19  H   UNL     1     -39.784 -47.929  13.648  1.00  0.00     0.162 HD
BRANCH  18  20
HETATM   20  C   UNL     1     -40.185 -47.186  11.696  1.00  0.00     0.127 C 
BRANCH  20  21
HETATM   21  C   UNL     1     -41.365 -46.231  11.886  1.00  0.00     0.053 C 
BRANCH  21  22
HETATM   22  C   UNL     1     -42.472 -46.482  10.883  1.00  0.00    -0.082 A 
HETATM   23  C   UNL     1     -42.534 -45.785   9.738  1.00  0.00    -0.024 A 
HETATM   24  C   UNL     1     -43.600 -45.929   8.709  1.00  0.00     0.027 A 
HETATM   25  C   UNL     1     -44.677 -46.976   8.966  1.00  0.00     0.004 A 
HETATM   26  C   UNL     1     -44.596 -47.814  10.240  1.00  0.00     0.005 A 
HETATM   27  C   UNL     1     -43.473 -47.538  11.240  1.00  0.00     0.034 A 
ENDBRANCH  21  22
ENDBRANCH  20  21
ENDBRANCH  18  20
ENDBRANCH  15  16
ENDBRANCH  10  15
ENDBRANCH   5   8
ENDBRANCH   1   4
TORSDOF 7
ENDMDL
MODEL 9
REMARK VINA RESULT:      -6.1      2.759      4.082
REMARK  7 active torsions:
REMARK  status: ('A' for Active; 'I' for Inactive)
REMARK    1  A    between atoms: C_2  and  C_3 
REMARK       I    between atoms: C_2  and  N_17 
REMARK    2  A    between atoms: C_3  and  N_4 
REMARK    3  A    between atoms: C_6  and  C_11 
REMARK       I    between atoms: C_11  and  N_13 
REMARK    4  A    between atoms: N_13  and  C_14 
REMARK    5  A    between atoms: N_17  and  C_18 
REMARK    6  A    between atoms: C_18  and  C_19 
REMARK    7  A    between atoms: C_19  and  C_20 
ROOT
HETATM    1  C   UNL     1     -47.048 -52.902  14.847  1.00  0.00     0.216 C 
HETATM    2  C   UNL     1     -47.326 -51.907  15.886  1.00  0.00    -0.098 C 
HETATM    3  C   UNL     1     -47.559 -51.086  16.730  1.00  0.00     0.014 C 
ENDROOT
BRANCH   1   4
HETATM    4  N   UNL     1     -45.626 -53.118  14.738  1.00  0.00    -0.346 N 
HETATM    5  C   UNL     1     -45.066 -53.378  13.513  1.00  0.00     0.253 C 
HETATM    6  O   UNL     1     -45.735 -53.460  12.486  1.00  0.00    -0.268 OA
HETATM    7  H   UNL     1     -45.055 -52.898  15.540  1.00  0.00     0.163 HD
BRANCH   5   8
HETATM    8  C   UNL     1     -43.569 -53.519  13.463  1.00  0.00     0.047 A 
HETATM    9  C   UNL     1     -42.798 -52.874  12.568  1.00  0.00     0.111 A 
HETATM   10  N   UNL     1     -41.414 -53.002  12.568  1.00  0.00    -0.315 N 
HETATM   11  C   UNL     1     -40.740 -53.835  13.454  1.00  0.00     0.247 A 
HETATM   12  C   UNL     1     -41.579 -54.493  14.487  1.00  0.00     0.075 A 
HETATM   13  O   UNL     1     -39.527 -54.035  13.425  1.00  0.00    -0.268 OA
HETATM   14  C   UNL     1     -42.910 -54.327  14.475  1.00  0.00     0.024 A 
BRANCH  10  15
HETATM   15  C   UNL     1     -40.613 -52.252  11.602  1.00  0.00     0.234 C 
BRANCH  15  16
HETATM   16  C   UNL     1     -40.586 -50.766  11.954  1.00  0.00     0.235 C 
HETATM   17  O   UNL     1     -39.928 -50.333  12.898  1.00  0.00    -0.272 OA
HETATM   18  N   UNL     1     -41.402 -49.982  11.161  1.00  0.00    -0.359 N 
HETATM   19  H   UNL     1     -42.159 -50.470  10.683  1.00  0.00     0.162 HD
BRANCH  18  20
HETATM   20  C   UNL     1     -41.584 -48.570  11.443  1.00  0.00     0.127 C 
BRANCH  20  21
HETATM   21  C   UNL     1     -42.994 -48.270  11.959  1.00  0.00     0.053 C 
BRANCH  21  22
HETATM   22  C   UNL     1     -43.127 -48.529  13.445  1.00  0.00    -0.082 A 
HETATM   23  C   UNL     1     -43.523 -49.726  13.902  1.00  0.00    -0.024 A 
HETATM   24  C   UNL     1     -43.723 -50.068  15.336  1.00  0.00     0.027 A 
HETATM   25  C   UNL     1     -43.415 -48.981  16.359  1.00  0.00     0.004 A 
HETATM   26  C   UNL     1     -42.916 -47.627  15.861  1.00  0.00     0.005 A 
HETATM   27  C   UNL     1     -42.795 -47.387  14.356  1.00  0.00     0.034 A 
ENDBRANCH  21  22
ENDBRANCH  20  21
ENDBRANCH  18  20
ENDBRANCH  15  16
ENDBRANCH  10  15
ENDBRANCH   5   8
ENDBRANCH   1   4
TORSDOF 7
ENDMDL
