MODEL 1
REMARK VINA RESULT:      -6.5      0.000      0.000
REMARK  4 active torsions:
REMARK  status: ('A' for Active; 'I' for Inactive)
REMARK    1  A    between atoms: O_1  and  C_2 
REMARK    2  A    between atoms: C_2  and  C_3 
REMARK    3  A    between atoms: C_2  and  C_16 
REMARK    4  A    between atoms: C_3  and  N_4 
ROOT
HETATM    1  N   UNL     1     -41.025 -47.652  11.401  1.00  0.00    -0.338 N 
HETATM    2  C   UNL     1     -40.143 -46.663  11.052  1.00  0.00     0.184 A 
HETATM    3  N   UNL     1     -40.699 -45.771  10.266  1.00  0.00    -0.350 N 
ATOM      4  HN  UNL     1     -40.266 -44.933   9.879  1.00  0.00     0.166 HD
HETATM    5  C   UNL     1     -41.985 -46.204  10.076  1.00  0.00     0.063 A 
HETATM    6  C   UNL     1     -43.010 -45.620   9.317  1.00  0.00     0.077 A 
HETATM    7  C   UNL     1     -44.249 -46.258   9.288  1.00  0.00     0.157 A 
HETATM    8  F   UNL     1     -45.245 -45.716   8.570  1.00  0.00    -0.203 F 
HETATM    9  C   UNL     1     -44.467 -47.441   9.989  1.00  0.00     0.157 A 
HETATM   10  F   UNL     1     -45.671 -48.028   9.939  1.00  0.00    -0.203 F 
HETATM   11  C   UNL     1     -43.462 -48.040  10.753  1.00  0.00     0.077 A 
HETATM   12  C   UNL     1     -42.222 -47.390  10.777  1.00  0.00     0.065 A 
ENDROOT
BRANCH   1  13
HETATM   13  C   UNL     1     -40.720 -48.743  12.314  1.00  0.00     0.166 C 
BRANCH  13  14
HETATM   14  C   UNL     1     -39.931 -49.862  11.618  1.00  0.00     0.169 C 
BRANCH  14  15
HETATM   15  O   UNL     1     -40.424 -50.057  10.287  1.00  0.00    -0.389 OA
HETATM   16  H   UNL     1     -39.977 -49.411   9.712  1.00  0.00     0.210 HD
ENDBRANCH  14  15
BRANCH  14  17
HETATM   17  C   UNL     1     -40.024 -51.180  12.364  1.00  0.00    -0.028 A 
HETATM   18  C   UNL     1     -39.139 -51.460  13.418  1.00  0.00     0.010 A 
HETATM   19  C   UNL     1     -39.173 -52.696  14.070  1.00  0.00     0.001 A 
HETATM   20  C   UNL     1     -40.094 -53.667  13.684  1.00  0.00     0.000 A 
HETATM   21  C   UNL     1     -40.996 -53.397  12.659  1.00  0.00     0.001 A 
HETATM   22  C   UNL     1     -40.967 -52.161  12.010  1.00  0.00     0.010 A 
ENDBRANCH  14  17
ENDBRANCH  13  14
ENDBRANCH   1  13
TORSDOF 4
ENDMDL
MODEL 2
REMARK VINA RESULT:      -6.5      2.550      3.846
REMARK  4 active torsions:
REMARK  status: ('A' for Active; 'I' for Inactive)
REMARK    1  A    between atoms: O_1  and  C_2 
REMARK    2  A    between atoms: C_2  and  C_3 
REMARK    3  A    between atoms: C_2  and  C_16 
REMARK    4  A    between atoms: C_3  and  N_4 
ROOT
HETATM    1  N   UNL     1     -40.799 -50.348  12.050  1.00  0.00    -0.338 N 
HETATM    2  C   UNL     1     -39.604 -50.414  12.715  1.00  0.00     0.184 A 
HETATM    3  N   UNL     1     -38.969 -49.266  12.691  1.00  0.00    -0.350 N 
ATOM      4  HN  UNL     1     -38.071 -49.046  13.122  1.00  0.00     0.166 HD
HETATM    5  C   UNL     1     -39.768 -48.423  11.964  1.00  0.00     0.063 A 
HETATM    6  C   UNL     1     -39.560 -47.077  11.632  1.00  0.00     0.077 A 
HETATM    7  C   UNL     1     -40.537 -46.428  10.879  1.00  0.00     0.157 A 
HETATM    8  F   UNL     1     -40.360 -45.139  10.551  1.00  0.00    -0.203 F 
HETATM    9  C   UNL     1     -41.687 -47.095  10.464  1.00  0.00     0.157 A 
HETATM   10  F   UNL     1     -42.608 -46.441   9.740  1.00  0.00    -0.203 F 
HETATM   11  C   UNL     1     -41.917 -48.436  10.783  1.00  0.00     0.077 A 
HETATM   12  C   UNL     1     -40.930 -49.077  11.542  1.00  0.00     0.065 A 
ENDROOT
BRANCH   1  13
HETATM   13  C   UNL     1     -41.754 -51.442  11.961  1.00  0.00     0.166 C 
BRANCH  13  14
HETATM   14  C   UNL     1     -41.184 -52.742  12.547  1.00  0.00     0.169 C 
BRANCH  14  15
HETATM   15  O   UNL     1     -40.562 -53.515  11.514  1.00  0.00    -0.389 OA
HETATM   16  H   UNL     1     -41.180 -54.224  11.264  1.00  0.00     0.210 HD
ENDBRANCH  14  15
BRANCH  14  17
HETATM   17  C   UNL     1     -42.255 -53.593  13.206  1.00  0.00    -0.028 A 
HETATM   18  C   UNL     1     -43.563 -53.602  12.697  1.00  0.00     0.010 A 
HETATM   19  C   UNL     1     -44.572 -54.330  13.334  1.00  0.00     0.001 A 
HETATM   20  C   UNL     1     -44.288 -55.064  14.483  1.00  0.00     0.000 A 
HETATM   21  C   UNL     1     -42.991 -55.088  14.986  1.00  0.00     0.001 A 
HETATM   22  C   UNL     1     -41.981 -54.365  14.348  1.00  0.00     0.010 A 
ENDBRANCH  14  17
ENDBRANCH  13  14
ENDBRANCH   1  13
TORSDOF 4
ENDMDL
MODEL 3
REMARK VINA RESULT:      -6.4      4.741      6.507
REMARK  4 active torsions:
REMARK  status: ('A' for Active; 'I' for Inactive)
REMARK    1  A    between atoms: O_1  and  C_2 
REMARK    2  A    between atoms: C_2  and  C_3 
REMARK    3  A    between atoms: C_2  and  C_16 
REMARK    4  A    between atoms: C_3  and  N_4 
ROOT
HETATM    1  N   UNL     1     -40.466 -52.026  13.094  1.00  0.00    -0.338 N 
HETATM    2  C   UNL     1     -40.885 -51.156  12.123  1.00  0.00     0.184 A 
HETATM    3  N   UNL     1     -42.126 -51.390  11.763  1.00  0.00    -0.350 N 
ATOM      4  HN  UNL     1     -42.676 -50.879  11.073  1.00  0.00     0.166 HD
HETATM    5  C   UNL     1     -42.525 -52.466  12.511  1.00  0.00     0.063 A 
HETATM    6  C   UNL     1     -43.762 -53.127  12.518  1.00  0.00     0.077 A 
HETATM    7  C   UNL     1     -43.925 -54.205  13.385  1.00  0.00     0.157 A 
HETATM    8  F   UNL     1     -45.101 -54.851  13.410  1.00  0.00    -0.203 F 
HETATM    9  C   UNL     1     -42.892 -54.620  14.222  1.00  0.00     0.157 A 
HETATM   10  F   UNL     1     -43.083 -55.661  15.045  1.00  0.00    -0.203 F 
HETATM   11  C   UNL     1     -41.651 -53.977  14.234  1.00  0.00     0.077 A 
HETATM   12  C   UNL     1     -41.499 -52.894  13.359  1.00  0.00     0.065 A 
ENDROOT
BRANCH   1  13
HETATM   13  C   UNL     1     -39.163 -51.974  13.739  1.00  0.00     0.166 C 
BRANCH  13  14
HETATM   14  C   UNL     1     -38.212 -51.003  13.022  1.00  0.00     0.169 C 
BRANCH  14  15
HETATM   15  O   UNL     1     -37.078 -51.713  12.513  1.00  0.00    -0.389 OA
HETATM   16  H   UNL     1     -36.828 -52.382  13.175  1.00  0.00     0.210 HD
ENDBRANCH  14  15
BRANCH  14  17
HETATM   17  C   UNL     1     -37.718 -49.900  13.940  1.00  0.00    -0.028 A 
HETATM   18  C   UNL     1     -37.918 -48.553  13.596  1.00  0.00     0.010 A 
HETATM   19  C   UNL     1     -37.411 -47.528  14.400  1.00  0.00     0.001 A 
HETATM   20  C   UNL     1     -36.704 -47.833  15.561  1.00  0.00     0.000 A 
HETATM   21  C   UNL     1     -36.519 -49.162  15.930  1.00  0.00     0.001 A 
HETATM   22  C   UNL     1     -37.029 -50.186  15.131  1.00  0.00     0.010 A 
ENDBRANCH  14  17
ENDBRANCH  13  14
ENDBRANCH   1  13
TORSDOF 4
ENDMDL
MODEL 4
REMARK VINA RESULT:      -6.4      3.219      6.328
REMARK  4 active torsions:
REMARK  status: ('A' for Active; 'I' for Inactive)
REMARK    1  A    between atoms: O_1  and  C_2 
REMARK    2  A    between atoms: C_2  and  C_3 
REMARK    3  A    between atoms: C_2  and  C_16 
REMARK    4  A    between atoms: C_3  and  N_4 
ROOT
HETATM    1  N   UNL     1     -41.706 -51.310  12.532  1.00  0.00    -0.338 N 
HETATM    2  C   UNL     1     -41.017 -52.454  12.227  1.00  0.00     0.184 A 
HETATM    3  N   UNL     1     -41.774 -53.521  12.335  1.00  0.00    -0.350 N 
ATOM      4  HN  UNL     1     -41.508 -54.489  12.151  1.00  0.00     0.166 HD
HETATM    5  C   UNL     1     -42.996 -53.060  12.748  1.00  0.00     0.063 A 
HETATM    6  C   UNL     1     -44.167 -53.783  13.019  1.00  0.00     0.077 A 
HETATM    7  C   UNL     1     -45.296 -53.075  13.424  1.00  0.00     0.157 A 
HETATM    8  F   UNL     1     -46.428 -53.746  13.687  1.00  0.00    -0.203 F 
HETATM    9  C   UNL     1     -45.269 -51.689  13.559  1.00  0.00     0.157 A 
HETATM   10  F   UNL     1     -46.374 -51.039  13.950  1.00  0.00    -0.203 F 
HETATM   11  C   UNL     1     -44.115 -50.947  13.293  1.00  0.00     0.077 A 
HETATM   12  C   UNL     1     -42.986 -51.669  12.885  1.00  0.00     0.065 A 
ENDROOT
BRANCH   1  13
HETATM   13  C   UNL     1     -41.155 -49.967  12.439  1.00  0.00     0.166 C 
BRANCH  13  14
HETATM   14  C   UNL     1     -41.297 -49.391  11.023  1.00  0.00     0.169 C 
BRANCH  14  15
HETATM   15  O   UNL     1     -40.273 -49.920  10.172  1.00  0.00    -0.389 OA
HETATM   16  H   UNL     1     -40.095 -49.258   9.481  1.00  0.00     0.210 HD
ENDBRANCH  14  15
BRANCH  14  17
HETATM   17  C   UNL     1     -41.203 -47.877  11.006  1.00  0.00    -0.028 A 
HETATM   18  C   UNL     1     -42.267 -47.108  10.507  1.00  0.00     0.010 A 
HETATM   19  C   UNL     1     -42.166 -45.716  10.426  1.00  0.00     0.001 A 
HETATM   20  C   UNL     1     -41.006 -45.072  10.848  1.00  0.00     0.000 A 
HETATM   21  C   UNL     1     -39.952 -45.816  11.370  1.00  0.00     0.001 A 
HETATM   22  C   UNL     1     -40.053 -47.205  11.455  1.00  0.00     0.010 A 
ENDBRANCH  14  17
ENDBRANCH  13  14
ENDBRANCH   1  13
TORSDOF 4
ENDMDL
MODEL 5
REMARK VINA RESULT:      -6.3      4.464      5.761
REMARK  4 active torsions:
REMARK  status: ('A' for Active; 'I' for Inactive)
REMARK    1  A    between atoms: O_1  and  C_2 
REMARK    2  A    between atoms: C_2  and  C_3 
REMARK    3  A    between atoms: C_2  and  C_16 
REMARK    4  A    between atoms: C_3  and  N_4 
ROOT
HETATM    1  N   UNL     1     -42.494 -51.904  12.522  1.00  0.00    -0.338 N 
HETATM    2  C   UNL     1     -42.769 -50.566  12.618  1.00  0.00     0.184 A 
HETATM    3  N   UNL     1     -43.978 -50.350  13.081  1.00  0.00    -0.350 N 
ATOM      4  HN  UNL     1     -44.420 -49.448  13.260  1.00  0.00     0.166 HD
HETATM    5  C   UNL     1     -44.521 -51.592  13.276  1.00  0.00     0.063 A 
HETATM    6  C   UNL     1     -45.794 -51.934  13.756  1.00  0.00     0.077 A 
HETATM    7  C   UNL     1     -46.110 -53.287  13.870  1.00  0.00     0.157 A 
HETATM    8  F   UNL     1     -47.322 -53.637  14.329  1.00  0.00    -0.203 F 
HETATM    9  C   UNL     1     -45.193 -54.274  13.518  1.00  0.00     0.157 A 
HETATM   10  F   UNL     1     -45.530 -55.566  13.641  1.00  0.00    -0.203 F 
HETATM   11  C   UNL     1     -43.919 -53.958  13.039  1.00  0.00     0.077 A 
HETATM   12  C   UNL     1     -43.611 -52.596  12.929  1.00  0.00     0.065 A 
ENDROOT
BRANCH   1  13
HETATM   13  C   UNL     1     -41.214 -52.454  12.104  1.00  0.00     0.166 C 
BRANCH  13  14
HETATM   14  C   UNL     1     -40.047 -51.843  12.895  1.00  0.00     0.169 C 
BRANCH  14  15
HETATM   15  O   UNL     1     -38.939 -51.594  12.022  1.00  0.00    -0.389 OA
HETATM   16  H   UNL     1     -39.283 -51.564  11.112  1.00  0.00     0.210 HD
ENDBRANCH  14  15
BRANCH  14  17
HETATM   17  C   UNL     1     -39.581 -52.746  14.022  1.00  0.00    -0.028 A 
HETATM   18  C   UNL     1     -39.612 -54.141  13.868  1.00  0.00     0.010 A 
HETATM   19  C   UNL     1     -39.246 -54.984  14.922  1.00  0.00     0.001 A 
HETATM   20  C   UNL     1     -38.838 -54.446  16.140  1.00  0.00     0.000 A 
HETATM   21  C   UNL     1     -38.777 -53.065  16.301  1.00  0.00     0.001 A 
HETATM   22  C   UNL     1     -39.137 -52.222  15.248  1.00  0.00     0.010 A 
ENDBRANCH  14  17
ENDBRANCH  13  14
ENDBRANCH   1  13
TORSDOF 4
ENDMDL
MODEL 6
REMARK VINA RESULT:      -6.3      4.560      5.926
REMARK  4 active torsions:
REMARK  status: ('A' for Active; 'I' for Inactive)
REMARK    1  A    between atoms: O_1  and  C_2 
REMARK    2  A    between atoms: C_2  and  C_3 
REMARK    3  A    between atoms: C_2  and  C_16 
REMARK    4  A    between atoms: C_3  and  N_4 
ROOT
HETATM    1  N   UNL     1     -41.947 -52.979  12.867  1.00  0.00    -0.338 N 
HETATM    2  C   UNL     1     -41.517 -51.797  12.326  1.00  0.00     0.184 A 
HETATM    3  N   UNL     1     -42.437 -50.864  12.398  1.00  0.00    -0.350 N 
ATOM      4  HN  UNL     1     -42.364 -49.897  12.082  1.00  0.00     0.166 HD
HETATM    5  C   UNL     1     -43.518 -51.465  12.989  1.00  0.00     0.063 A 
HETATM    6  C   UNL     1     -44.771 -50.918  13.301  1.00  0.00     0.077 A 
HETATM    7  C   UNL     1     -45.713 -51.742  13.913  1.00  0.00     0.157 A 
HETATM    8  F   UNL     1     -46.918 -51.239  14.222  1.00  0.00    -0.203 F 
HETATM    9  C   UNL     1     -45.423 -53.072  14.208  1.00  0.00     0.157 A 
HETATM   10  F   UNL     1     -46.352 -53.838  14.799  1.00  0.00    -0.203 F 
HETATM   11  C   UNL     1     -44.181 -53.639  13.909  1.00  0.00     0.077 A 
HETATM   12  C   UNL     1     -43.242 -52.801  13.294  1.00  0.00     0.065 A 
ENDROOT
BRANCH   1  13
HETATM   13  C   UNL     1     -41.128 -54.175  12.992  1.00  0.00     0.166 C 
BRANCH  13  14
HETATM   14  C   UNL     1     -39.968 -53.969  13.978  1.00  0.00     0.169 C 
BRANCH  14  15
HETATM   15  O   UNL     1     -38.722 -54.275  13.342  1.00  0.00    -0.389 OA
HETATM   16  H   UNL     1     -38.878 -55.019  12.734  1.00  0.00     0.210 HD
ENDBRANCH  14  15
BRANCH  14  17
HETATM   17  C   UNL     1     -40.105 -54.837  15.215  1.00  0.00    -0.028 A 
HETATM   18  C   UNL     1     -38.966 -55.409  15.806  1.00  0.00     0.010 A 
HETATM   19  C   UNL     1     -39.086 -56.263  16.906  1.00  0.00     0.001 A 
HETATM   20  C   UNL     1     -40.341 -56.552  17.436  1.00  0.00     0.000 A 
HETATM   21  C   UNL     1     -41.477 -55.973  16.880  1.00  0.00     0.001 A 
HETATM   22  C   UNL     1     -41.359 -55.116  15.783  1.00  0.00     0.010 A 
ENDBRANCH  14  17
ENDBRANCH  13  14
ENDBRANCH   1  13
TORSDOF 4
ENDMDL
MODEL 7
REMARK VINA RESULT:      -5.9      5.084      7.276
REMARK  4 active torsions:
REMARK  status: ('A' for Active; 'I' for Inactive)
REMARK    1  A    between atoms: O_1  and  C_2 
REMARK    2  A    between atoms: C_2  and  C_3 
REMARK    3  A    between atoms: C_2  and  C_16 
REMARK    4  A    between atoms: C_3  and  N_4 
ROOT
HETATM    1  N   UNL     1     -42.222 -53.401  13.385  1.00  0.00    -0.338 N 
HETATM    2  C   UNL     1     -41.794 -54.264  14.358  1.00  0.00     0.184 A 
HETATM    3  N   UNL     1     -40.561 -54.005  14.730  1.00  0.00    -0.350 N 
ATOM      4  HN  UNL     1     -40.016 -54.489  15.444  1.00  0.00     0.166 HD
HETATM    5  C   UNL     1     -40.162 -52.948  13.955  1.00  0.00     0.063 A 
HETATM    6  C   UNL     1     -38.930 -52.277  13.945  1.00  0.00     0.077 A 
HETATM    7  C   UNL     1     -38.770 -51.215  13.057  1.00  0.00     0.157 A 
HETATM    8  F   UNL     1     -37.600 -50.557  13.031  1.00  0.00    -0.203 F 
HETATM    9  C   UNL     1     -39.799 -50.827  12.203  1.00  0.00     0.157 A 
HETATM   10  F   UNL     1     -39.612 -49.800  11.363  1.00  0.00    -0.203 F 
HETATM   11  C   UNL     1     -41.036 -51.479  12.197  1.00  0.00     0.077 A 
HETATM   12  C   UNL     1     -41.186 -52.545  13.094  1.00  0.00     0.065 A 
ENDROOT
BRANCH   1  13
HETATM   13  C   UNL     1     -43.563 -53.395  12.821  1.00  0.00     0.166 C 
BRANCH  13  14
HETATM   14  C   UNL     1     -44.563 -54.130  13.726  1.00  0.00     0.169 C 
BRANCH  14  15
HETATM   15  O   UNL     1     -45.428 -54.954  12.936  1.00  0.00    -0.389 OA
HETATM   16  H   UNL     1     -45.432 -55.842  13.335  1.00  0.00     0.210 HD
ENDBRANCH  14  15
BRANCH  14  17
HETATM   17  C   UNL     1     -45.417 -53.172  14.536  1.00  0.00    -0.028 A 
HETATM   18  C   UNL     1     -45.573 -53.360  15.919  1.00  0.00     0.010 A 
HETATM   19  C   UNL     1     -46.409 -52.523  16.664  1.00  0.00     0.001 A 
HETATM   20  C   UNL     1     -47.095 -51.483  16.041  1.00  0.00     0.000 A 
HETATM   21  C   UNL     1     -46.931 -51.266  14.676  1.00  0.00     0.001 A 
HETATM   22  C   UNL     1     -46.094 -52.099  13.931  1.00  0.00     0.010 A 
ENDBRANCH  14  17
ENDBRANCH  13  14
ENDBRANCH   1  13
TORSDOF 4
ENDMDL
MODEL 8
REMARK VINA RESULT:      -5.8      1.484      2.158
REMARK  4 active torsions:
REMARK  status: ('A' for Active; 'I' for Inactive)
REMARK    1  A    between atoms: O_1  and  C_2 
REMARK    2  A    between atoms: C_2  and  C_3 
REMARK    3  A    between atoms: C_2  and  C_16 
REMARK    4  A    between atoms: C_3  and  N_4 
ROOT
HETATM    1  N   UNL     1     -40.508 -48.570  11.305  1.00  0.00    -0.338 N 
HETATM    2  C   UNL     1     -39.742 -47.894  12.217  1.00  0.00     0.184 A 
HETATM    3  N   UNL     1     -40.106 -46.637  12.321  1.00  0.00    -0.350 N 
ATOM      4  HN  UNL     1     -39.709 -45.927  12.936  1.00  0.00     0.166 HD
HETATM    5  C   UNL     1     -41.133 -46.480  11.428  1.00  0.00     0.063 A 
HETATM    6  C   UNL     1     -41.882 -45.331  11.136  1.00  0.00     0.077 A 
HETATM    7  C   UNL     1     -42.891 -45.431  10.180  1.00  0.00     0.157 A 
HETATM    8  F   UNL     1     -43.621 -44.344   9.885  1.00  0.00    -0.203 F 
HETATM    9  C   UNL     1     -43.151 -46.634   9.529  1.00  0.00     0.157 A 
HETATM   10  F   UNL     1     -44.130 -46.696   8.615  1.00  0.00    -0.203 F 
HETATM   11  C   UNL     1     -42.420 -47.793   9.805  1.00  0.00     0.077 A 
HETATM   12  C   UNL     1     -41.409 -47.682  10.768  1.00  0.00     0.065 A 
ENDROOT
BRANCH   1  13
HETATM   13  C   UNL     1     -40.386 -49.992  11.021  1.00  0.00     0.166 C 
BRANCH  13  14
HETATM   14  C   UNL     1     -40.012 -50.793  12.277  1.00  0.00     0.169 C 
BRANCH  14  15
HETATM   15  O   UNL     1     -38.712 -51.374  12.121  1.00  0.00    -0.389 OA
HETATM   16  H   UNL     1     -38.581 -52.000  12.854  1.00  0.00     0.210 HD
ENDBRANCH  14  15
BRANCH  14  17
HETATM   17  C   UNL     1     -41.005 -51.903  12.568  1.00  0.00    -0.028 A 
HETATM   18  C   UNL     1     -42.385 -51.651  12.504  1.00  0.00     0.010 A 
HETATM   19  C   UNL     1     -43.308 -52.648  12.833  1.00  0.00     0.001 A 
HETATM   20  C   UNL     1     -42.868 -53.910  13.223  1.00  0.00     0.000 A 
HETATM   21  C   UNL     1     -41.504 -54.184  13.267  1.00  0.00     0.001 A 
HETATM   22  C   UNL     1     -40.581 -53.192  12.935  1.00  0.00     0.010 A 
ENDBRANCH  14  17
ENDBRANCH  13  14
ENDBRANCH   1  13
TORSDOF 4
ENDMDL
MODEL 9
REMARK VINA RESULT:      -5.8      5.997      6.815
REMARK  4 active torsions:
REMARK  status: ('A' for Active; 'I' for Inactive)
REMARK    1  A    between atoms: O_1  and  C_2 
REMARK    2  A    between atoms: C_2  and  C_3 
REMARK    3  A    between atoms: C_2  and  C_16 
REMARK    4  A    between atoms: C_3  and  N_4 
ROOT
HETATM    1  N   UNL     1     -43.230 -53.643  14.526  1.00  0.00    -0.338 N 
HETATM    2  C   UNL     1     -42.686 -54.132  13.369  1.00  0.00     0.184 A 
HETATM    3  N   UNL     1     -43.391 -53.788  12.316  1.00  0.00    -0.350 N 
ATOM      4  HN  UNL     1     -43.195 -54.010  11.340  1.00  0.00     0.166 HD
HETATM    5  C   UNL     1     -44.447 -53.065  12.806  1.00  0.00     0.063 A 
HETATM    6  C   UNL     1     -45.504 -52.462  12.109  1.00  0.00     0.077 A 
HETATM    7  C   UNL     1     -46.463 -51.768  12.844  1.00  0.00     0.157 A 
HETATM    8  F   UNL     1     -47.483 -51.182  12.197  1.00  0.00    -0.203 F 
HETATM    9  C   UNL     1     -46.380 -51.673  14.230  1.00  0.00     0.157 A 
HETATM   10  F   UNL     1     -47.319 -50.997  14.906  1.00  0.00    -0.203 F 
HETATM   11  C   UNL     1     -45.335 -52.264  14.947  1.00  0.00     0.077 A 
HETATM   12  C   UNL     1     -44.376 -52.958  14.199  1.00  0.00     0.065 A 
ENDROOT
BRANCH   1  13
HETATM   13  C   UNL     1     -42.639 -53.803  15.846  1.00  0.00     0.166 C 
BRANCH  13  14
HETATM   14  C   UNL     1     -42.383 -55.281  16.179  1.00  0.00     0.169 C 
BRANCH  14  15
HETATM   15  O   UNL     1     -43.139 -55.662  17.334  1.00  0.00    -0.389 OA
HETATM   16  H   UNL     1     -43.303 -54.857  17.856  1.00  0.00     0.210 HD
ENDBRANCH  14  15
BRANCH  14  17
HETATM   17  C   UNL     1     -40.917 -55.565  16.446  1.00  0.00    -0.028 A 
HETATM   18  C   UNL     1     -39.929 -54.689  15.967  1.00  0.00     0.010 A 
HETATM   19  C   UNL     1     -38.573 -54.974  16.150  1.00  0.00     0.001 A 
HETATM   20  C   UNL     1     -38.184 -56.131  16.821  1.00  0.00     0.000 A 
HETATM   21  C   UNL     1     -39.150 -56.996  17.325  1.00  0.00     0.001 A 
HETATM   22  C   UNL     1     -40.505 -56.711  17.146  1.00  0.00     0.010 A 
ENDBRANCH  14  17
ENDBRANCH  13  14
ENDBRANCH   1  13
TORSDOF 4
ENDMDL
