MODEL 1
REMARK VINA RESULT:      -6.3      0.000      0.000
REMARK  4 active torsions:
REMARK  status: ('A' for Active; 'I' for Inactive)
REMARK    1  A    between atoms: C_2  and  C_3 
REMARK       I    between atoms: N_5  and  C_10 
REMARK       I    between atoms: C_10  and  N_12 
REMARK    2  A    between atoms: N_12  and  C_13 
REMARK    3  A    between atoms: C_13  and  C_14 
REMARK    4  A    between atoms: C_14  and  C_15 
ROOT
HETATM    1  C   UNL     1     -41.029 -54.030  13.784  1.00  0.00     0.139 C 
HETATM    2  C   UNL     1     -40.780 -53.232  12.490  1.00  0.00     0.159 C 
HETATM    3  N   UNL     1     -41.816 -52.216  12.298  1.00  0.00    -0.329 N 
HETATM    4  C   UNL     1     -43.174 -52.775  12.318  1.00  0.00     0.159 C 
HETATM    5  C   UNL     1     -43.387 -53.561  13.624  1.00  0.00     0.136 C 
HETATM    6  C   UNL     1     -44.748 -54.239  13.659  1.00  0.00     0.041 C 
HETATM    7  O   UNL     1     -42.374 -54.574  13.785  1.00  0.00    -0.378 OA
HETATM    8  C   UNL     1     -41.445 -50.910  12.091  1.00  0.00     0.318 C 
HETATM    9  O   UNL     1     -40.272 -50.551  12.060  1.00  0.00    -0.247 OA
HETATM   10  N   UNL     1     -42.474 -50.026  11.900  1.00  0.00    -0.343 N 
HETATM   11  H   UNL     1     -43.284 -50.218  12.469  1.00  0.00     0.164 HD
ENDROOT
BRANCH  10  12
HETATM   12  C   UNL     1     -42.216 -48.610  11.695  1.00  0.00     0.129 C 
BRANCH  12  13
HETATM   13  C   UNL     1     -42.094 -48.203  10.222  1.00  0.00     0.063 C 
BRANCH  13  14
HETATM   14  C   UNL     1     -42.729 -46.881   9.957  1.00  0.00    -0.001 A 
HETATM   15  C   UNL     1     -43.998 -46.612   9.372  1.00  0.00     0.037 A 
HETATM   16  C   UNL     1     -45.017 -47.562   8.867  1.00  0.00     0.071 C 
HETATM   17  N   UNL     1     -44.226 -45.296   9.289  1.00  0.00    -0.265 N 
HETATM   18  O   UNL     1     -43.109 -44.683   9.820  1.00  0.00    -0.242 OA
ATOM     19  HN  UNL     1     -45.056 -44.838   8.911  1.00  0.00     0.194 HD
HETATM   20  C   UNL     1     -42.217 -45.628  10.213  1.00  0.00     0.081 A 
HETATM   21  C   UNL     1     -40.952 -45.135  10.791  1.00  0.00     0.079 C 
ENDBRANCH  13  14
ENDBRANCH  12  13
ENDBRANCH  10  12
BRANCH   1  22
HETATM   22  C   UNL     1     -40.784 -53.241  15.083  1.00  0.00     0.029 C 
HETATM   23  C   UNL     1     -39.476 -52.471  15.121  1.00  0.00     0.007 C 
ENDBRANCH   1  22
TORSDOF 4
ENDMDL
MODEL 2
REMARK VINA RESULT:      -6.2      2.197      7.497
REMARK  4 active torsions:
REMARK  status: ('A' for Active; 'I' for Inactive)
REMARK    1  A    between atoms: C_2  and  C_3 
REMARK       I    between atoms: N_5  and  C_10 
REMARK       I    between atoms: C_10  and  N_12 
REMARK    2  A    between atoms: N_12  and  C_13 
REMARK    3  A    between atoms: C_13  and  C_14 
REMARK    4  A    between atoms: C_14  and  C_15 
ROOT
HETATM    1  C   UNL     1     -41.940 -45.683  11.302  1.00  0.00     0.139 C 
HETATM    2  C   UNL     1     -42.739 -46.373  12.424  1.00  0.00     0.159 C 
HETATM    3  N   UNL     1     -43.114 -47.733  12.035  1.00  0.00    -0.329 N 
HETATM    4  C   UNL     1     -43.846 -47.780  10.762  1.00  0.00     0.159 C 
HETATM    5  C   UNL     1     -43.018 -47.086   9.666  1.00  0.00     0.136 C 
HETATM    6  C   UNL     1     -43.768 -47.025   8.345  1.00  0.00     0.041 C 
HETATM    7  O   UNL     1     -42.679 -45.739  10.055  1.00  0.00    -0.378 OA
HETATM    8  C   UNL     1     -42.798 -48.780  12.865  1.00  0.00     0.318 C 
HETATM    9  O   UNL     1     -42.209 -48.627  13.930  1.00  0.00    -0.247 OA
HETATM   10  N   UNL     1     -43.203 -50.017  12.437  1.00  0.00    -0.343 N 
HETATM   11  H   UNL     1     -43.126 -50.146  11.440  1.00  0.00     0.164 HD
ENDROOT
BRANCH  10  12
HETATM   12  C   UNL     1     -42.908 -51.211  13.212  1.00  0.00     0.129 C 
BRANCH  12  13
HETATM   13  C   UNL     1     -43.293 -52.521  12.514  1.00  0.00     0.063 C 
BRANCH  13  14
HETATM   14  C   UNL     1     -44.423 -53.205  13.203  1.00  0.00    -0.001 A 
HETATM   15  C   UNL     1     -45.819 -52.959  13.068  1.00  0.00     0.037 A 
HETATM   16  C   UNL     1     -46.517 -51.962  12.221  1.00  0.00     0.071 C 
HETATM   17  N   UNL     1     -46.534 -53.771  13.855  1.00  0.00    -0.265 N 
HETATM   18  O   UNL     1     -45.617 -54.563  14.516  1.00  0.00    -0.242 OA
ATOM     19  HN  UNL     1     -47.550 -53.800  13.947  1.00  0.00     0.194 HD
HETATM   20  C   UNL     1     -44.361 -54.222  14.131  1.00  0.00     0.081 A 
HETATM   21  C   UNL     1     -43.256 -54.967  14.762  1.00  0.00     0.079 C 
ENDBRANCH  13  14
ENDBRANCH  12  13
ENDBRANCH  10  12
BRANCH   1  22
HETATM   22  C   UNL     1     -40.518 -46.234  11.092  1.00  0.00     0.029 C 
HETATM   23  C   UNL     1     -39.584 -45.309  10.333  1.00  0.00     0.007 C 
ENDBRANCH   1  22
TORSDOF 4
ENDMDL
MODEL 3
REMARK VINA RESULT:      -6.0      3.269      5.163
REMARK  4 active torsions:
REMARK  status: ('A' for Active; 'I' for Inactive)
REMARK    1  A    between atoms: C_2  and  C_3 
REMARK       I    between atoms: N_5  and  C_10 
REMARK       I    between atoms: C_10  and  N_12 
REMARK    2  A    between atoms: N_12  and  C_13 
REMARK    3  A    between atoms: C_13  and  C_14 
REMARK    4  A    between atoms: C_14  and  C_15 
ROOT
HETATM    1  C   UNL     1     -46.109 -53.846  14.939  1.00  0.00     0.139 C 
HETATM    2  C   UNL     1     -45.037 -54.733  14.277  1.00  0.00     0.159 C 
HETATM    3  N   UNL     1     -44.199 -53.946  13.371  1.00  0.00    -0.329 N 
HETATM    4  C   UNL     1     -44.978 -53.218  12.360  1.00  0.00     0.159 C 
HETATM    5  C   UNL     1     -46.034 -52.342  13.058  1.00  0.00     0.136 C 
HETATM    6  C   UNL     1     -46.931 -51.633  12.056  1.00  0.00     0.041 C 
HETATM    7  O   UNL     1     -46.867 -53.137  13.926  1.00  0.00    -0.378 OA
HETATM    8  C   UNL     1     -42.834 -53.986  13.515  1.00  0.00     0.318 C 
HETATM    9  O   UNL     1     -42.278 -54.657  14.379  1.00  0.00    -0.247 OA
HETATM   10  N   UNL     1     -42.121 -53.238  12.616  1.00  0.00    -0.343 N 
HETATM   11  H   UNL     1     -42.561 -52.362  12.380  1.00  0.00     0.164 HD
ENDROOT
BRANCH  10  12
HETATM   12  C   UNL     1     -40.671 -53.175  12.677  1.00  0.00     0.129 C 
BRANCH  12  13
HETATM   13  C   UNL     1     -40.129 -51.993  13.491  1.00  0.00     0.063 C 
BRANCH  13  14
HETATM   14  C   UNL     1     -39.677 -50.877  12.614  1.00  0.00    -0.001 A 
HETATM   15  C   UNL     1     -40.469 -49.891  11.959  1.00  0.00     0.037 A 
HETATM   16  C   UNL     1     -41.940 -49.714  11.968  1.00  0.00     0.071 C 
HETATM   17  N   UNL     1     -39.708 -49.050  11.248  1.00  0.00    -0.265 N 
HETATM   18  O   UNL     1     -38.407 -49.471  11.428  1.00  0.00    -0.242 OA
ATOM     19  HN  UNL     1     -40.026 -48.258  10.689  1.00  0.00     0.194 HD
HETATM   20  C   UNL     1     -38.390 -50.562  12.236  1.00  0.00     0.081 A 
HETATM   21  C   UNL     1     -37.067 -51.151  12.516  1.00  0.00     0.079 C 
ENDBRANCH  13  14
ENDBRANCH  12  13
ENDBRANCH  10  12
BRANCH   1  22
HETATM   22  C   UNL     1     -45.566 -52.849  15.979  1.00  0.00     0.029 C 
HETATM   23  C   UNL     1     -46.624 -51.995  16.653  1.00  0.00     0.007 C 
ENDBRANCH   1  22
TORSDOF 4
ENDMDL
MODEL 4
REMARK VINA RESULT:      -5.9      3.576      5.343
REMARK  4 active torsions:
REMARK  status: ('A' for Active; 'I' for Inactive)
REMARK    1  A    between atoms: C_2  and  C_3 
REMARK       I    between atoms: N_5  and  C_10 
REMARK       I    between atoms: C_10  and  N_12 
REMARK    2  A    between atoms: N_12  and  C_13 
REMARK    3  A    between atoms: C_13  and  C_14 
REMARK    4  A    between atoms: C_14  and  C_15 
ROOT
HETATM    1  C   UNL     1     -45.001 -54.320  14.413  1.00  0.00     0.139 C 
HETATM    2  C   UNL     1     -44.589 -53.842  13.007  1.00  0.00     0.159 C 
HETATM    3  N   UNL     1     -44.347 -52.398  13.000  1.00  0.00    -0.329 N 
HETATM    4  C   UNL     1     -45.489 -51.625  13.505  1.00  0.00     0.159 C 
HETATM    5  C   UNL     1     -45.869 -52.128  14.909  1.00  0.00     0.136 C 
HETATM    6  C   UNL     1     -47.105 -51.423  15.446  1.00  0.00     0.041 C 
HETATM    7  O   UNL     1     -46.129 -53.546  14.893  1.00  0.00    -0.378 OA
HETATM    8  C   UNL     1     -43.154 -51.920  12.514  1.00  0.00     0.318 C 
HETATM    9  O   UNL     1     -42.272 -52.656  12.082  1.00  0.00    -0.247 OA
HETATM   10  N   UNL     1     -43.015 -50.557  12.524  1.00  0.00    -0.343 N 
HETATM   11  H   UNL     1     -43.425 -50.114  13.331  1.00  0.00     0.164 HD
ENDROOT
BRANCH  10  12
HETATM   12  C   UNL     1     -41.791 -49.927  12.059  1.00  0.00     0.129 C 
BRANCH  12  13
HETATM   13  C   UNL     1     -40.805 -49.573  13.180  1.00  0.00     0.063 C 
BRANCH  13  14
HETATM   14  C   UNL     1     -39.729 -50.595  13.315  1.00  0.00    -0.001 A 
HETATM   15  C   UNL     1     -39.661 -51.691  14.221  1.00  0.00     0.037 A 
HETATM   16  C   UNL     1     -40.627 -52.105  15.266  1.00  0.00     0.071 C 
HETATM   17  N   UNL     1     -38.534 -52.393  14.051  1.00  0.00    -0.265 N 
HETATM   18  O   UNL     1     -37.848 -51.767  13.031  1.00  0.00    -0.242 OA
ATOM     19  HN  UNL     1     -38.242 -53.222  14.570  1.00  0.00     0.194 HD
HETATM   20  C   UNL     1     -38.558 -50.694  12.597  1.00  0.00     0.081 A 
HETATM   21  C   UNL     1     -37.950 -49.901  11.512  1.00  0.00     0.079 C 
ENDBRANCH  13  14
ENDBRANCH  12  13
ENDBRANCH  10  12
BRANCH   1  22
HETATM   22  C   UNL     1     -43.869 -54.298  15.457  1.00  0.00     0.029 C 
HETATM   23  C   UNL     1     -42.698 -55.212  15.142  1.00  0.00     0.007 C 
ENDBRANCH   1  22
TORSDOF 4
ENDMDL
MODEL 5
REMARK VINA RESULT:      -5.9      3.270      5.222
REMARK  4 active torsions:
REMARK  status: ('A' for Active; 'I' for Inactive)
REMARK    1  A    between atoms: C_2  and  C_3 
REMARK       I    between atoms: N_5  and  C_10 
REMARK       I    between atoms: C_10  and  N_12 
REMARK    2  A    between atoms: N_12  and  C_13 
REMARK    3  A    between atoms: C_13  and  C_14 
REMARK    4  A    between atoms: C_14  and  C_15 
ROOT
HETATM    1  C   UNL     1     -46.101 -53.677  15.015  1.00  0.00     0.139 C 
HETATM    2  C   UNL     1     -45.031 -54.614  14.422  1.00  0.00     0.159 C 
HETATM    3  N   UNL     1     -44.178 -53.894  13.475  1.00  0.00    -0.329 N 
HETATM    4  C   UNL     1     -44.941 -53.227  12.412  1.00  0.00     0.159 C 
HETATM    5  C   UNL     1     -45.997 -52.300  13.041  1.00  0.00     0.136 C 
HETATM    6  C   UNL     1     -46.878 -51.651  11.986  1.00  0.00     0.041 C 
HETATM    7  O   UNL     1     -46.844 -53.030  13.951  1.00  0.00    -0.378 OA
HETATM    8  C   UNL     1     -42.815 -53.934  13.635  1.00  0.00     0.318 C 
HETATM    9  O   UNL     1     -42.272 -54.552  14.546  1.00  0.00    -0.247 OA
HETATM   10  N   UNL     1     -42.088 -53.252  12.695  1.00  0.00    -0.343 N 
HETATM   11  H   UNL     1     -42.518 -52.390  12.399  1.00  0.00     0.164 HD
ENDROOT
BRANCH  10  12
HETATM   12  C   UNL     1     -40.637 -53.196  12.766  1.00  0.00     0.129 C 
BRANCH  12  13
HETATM   13  C   UNL     1     -40.093 -51.969  13.507  1.00  0.00     0.063 C 
BRANCH  13  14
HETATM   14  C   UNL     1     -39.956 -50.791  12.604  1.00  0.00    -0.001 A 
HETATM   15  C   UNL     1     -38.777 -50.278  11.994  1.00  0.00     0.037 A 
HETATM   16  C   UNL     1     -37.381 -50.767  12.095  1.00  0.00     0.071 C 
HETATM   17  N   UNL     1     -39.045 -49.198  11.250  1.00  0.00    -0.265 N 
HETATM   18  O   UNL     1     -40.404 -48.988  11.362  1.00  0.00    -0.242 OA
ATOM     19  HN  UNL     1     -38.380 -48.644  10.710  1.00  0.00     0.194 HD
HETATM   20  C   UNL     1     -40.945 -49.934  12.172  1.00  0.00     0.081 A 
HETATM   21  C   UNL     1     -42.397 -49.841  12.411  1.00  0.00     0.079 C 
ENDBRANCH  13  14
ENDBRANCH  12  13
ENDBRANCH  10  12
BRANCH   1  22
HETATM   22  C   UNL     1     -45.559 -52.619  15.993  1.00  0.00     0.029 C 
HETATM   23  C   UNL     1     -46.592 -51.621  16.485  1.00  0.00     0.007 C 
ENDBRANCH   1  22
TORSDOF 4
ENDMDL
MODEL 6
REMARK VINA RESULT:      -5.8      3.833      6.484
REMARK  4 active torsions:
REMARK  status: ('A' for Active; 'I' for Inactive)
REMARK    1  A    between atoms: C_2  and  C_3 
REMARK       I    between atoms: N_5  and  C_10 
REMARK       I    between atoms: C_10  and  N_12 
REMARK    2  A    between atoms: N_12  and  C_13 
REMARK    3  A    between atoms: C_13  and  C_14 
REMARK    4  A    between atoms: C_14  and  C_15 
ROOT
HETATM    1  C   UNL     1     -38.856 -51.117  13.106  1.00  0.00     0.139 C 
HETATM    2  C   UNL     1     -40.005 -50.893  12.103  1.00  0.00     0.159 C 
HETATM    3  N   UNL     1     -41.214 -51.598  12.533  1.00  0.00    -0.329 N 
HETATM    4  C   UNL     1     -40.988 -53.031  12.764  1.00  0.00     0.159 C 
HETATM    5  C   UNL     1     -39.838 -53.214  13.771  1.00  0.00     0.136 C 
HETATM    6  C   UNL     1     -39.499 -54.682  13.980  1.00  0.00     0.041 C 
HETATM    7  O   UNL     1     -38.648 -52.536  13.320  1.00  0.00    -0.378 OA
HETATM    8  C   UNL     1     -42.393 -50.903  12.640  1.00  0.00     0.318 C 
HETATM    9  O   UNL     1     -42.481 -49.705  12.390  1.00  0.00    -0.247 OA
HETATM   10  N   UNL     1     -43.481 -51.639  13.028  1.00  0.00    -0.343 N 
HETATM   11  H   UNL     1     -43.268 -52.345  13.716  1.00  0.00     0.164 HD
ENDROOT
BRANCH  10  12
HETATM   12  C   UNL     1     -44.783 -51.017  13.203  1.00  0.00     0.129 C 
BRANCH  12  13
HETATM   13  C   UNL     1     -45.952 -52.009  13.234  1.00  0.00     0.063 C 
BRANCH  13  14
HETATM   14  C   UNL     1     -45.966 -52.810  14.491  1.00  0.00    -0.001 A 
HETATM   15  C   UNL     1     -46.333 -52.391  15.801  1.00  0.00     0.037 A 
HETATM   16  C   UNL     1     -46.789 -51.060  16.266  1.00  0.00     0.071 C 
HETATM   17  N   UNL     1     -46.214 -53.391  16.682  1.00  0.00    -0.265 N 
HETATM   18  O   UNL     1     -45.767 -54.480  15.962  1.00  0.00    -0.242 OA
ATOM     19  HN  UNL     1     -46.413 -53.356  17.683  1.00  0.00     0.194 HD
HETATM   20  C   UNL     1     -45.616 -54.132  14.659  1.00  0.00     0.081 A 
HETATM   21  C   UNL     1     -45.125 -55.185  13.751  1.00  0.00     0.079 C 
ENDBRANCH  13  14
ENDBRANCH  12  13
ENDBRANCH  10  12
BRANCH   1  22
HETATM   22  C   UNL     1     -39.036 -50.405  14.459  1.00  0.00     0.029 C 
HETATM   23  C   UNL     1     -37.753 -49.879  15.075  1.00  0.00     0.007 C 
ENDBRANCH   1  22
TORSDOF 4
ENDMDL
MODEL 7
REMARK VINA RESULT:      -5.7      3.884      5.820
REMARK  4 active torsions:
REMARK  status: ('A' for Active; 'I' for Inactive)
REMARK    1  A    between atoms: C_2  and  C_3 
REMARK       I    between atoms: N_5  and  C_10 
REMARK       I    between atoms: C_10  and  N_12 
REMARK    2  A    between atoms: N_12  and  C_13 
REMARK    3  A    between atoms: C_13  and  C_14 
REMARK    4  A    between atoms: C_14  and  C_15 
ROOT
HETATM    1  C   UNL     1     -46.598 -52.037  14.549  1.00  0.00     0.139 C 
HETATM    2  C   UNL     1     -45.734 -51.759  15.794  1.00  0.00     0.159 C 
HETATM    3  N   UNL     1     -44.413 -52.375  15.657  1.00  0.00    -0.329 N 
HETATM    4  C   UNL     1     -44.480 -53.814  15.374  1.00  0.00     0.159 C 
HETATM    5  C   UNL     1     -45.348 -54.053  14.125  1.00  0.00     0.136 C 
HETATM    6  C   UNL     1     -45.528 -55.535  13.838  1.00  0.00     0.041 C 
HETATM    7  O   UNL     1     -46.653 -53.463  14.287  1.00  0.00    -0.378 OA
HETATM    8  C   UNL     1     -43.291 -51.602  15.832  1.00  0.00     0.318 C 
HETATM    9  O   UNL     1     -43.346 -50.406  16.100  1.00  0.00    -0.247 OA
HETATM   10  N   UNL     1     -42.095 -52.258  15.707  1.00  0.00    -0.343 N 
HETATM   11  H   UNL     1     -42.094 -52.963  14.986  1.00  0.00     0.164 HD
ENDROOT
BRANCH  10  12
HETATM   12  C   UNL     1     -40.834 -51.549  15.844  1.00  0.00     0.129 C 
BRANCH  12  13
HETATM   13  C   UNL     1     -39.769 -51.962  14.821  1.00  0.00     0.063 C 
BRANCH  13  14
HETATM   14  C   UNL     1     -40.265 -51.833  13.422  1.00  0.00    -0.001 A 
HETATM   15  C   UNL     1     -40.843 -52.836  12.594  1.00  0.00     0.037 A 
HETATM   16  C   UNL     1     -41.101 -54.265  12.893  1.00  0.00     0.071 C 
HETATM   17  N   UNL     1     -41.163 -52.347  11.389  1.00  0.00    -0.265 N 
HETATM   18  O   UNL     1     -40.799 -51.016  11.411  1.00  0.00    -0.242 OA
ATOM     19  HN  UNL     1     -41.589 -52.855  10.613  1.00  0.00     0.194 HD
HETATM   20  C   UNL     1     -40.260 -50.713  12.620  1.00  0.00     0.081 A 
HETATM   21  C   UNL     1     -39.800 -49.323  12.803  1.00  0.00     0.079 C 
ENDBRANCH  13  14
ENDBRANCH  12  13
ENDBRANCH  10  12
BRANCH   1  22
HETATM   22  C   UNL     1     -46.156 -51.289  13.279  1.00  0.00     0.029 C 
HETATM   23  C   UNL     1     -46.938 -51.645  12.027  1.00  0.00     0.007 C 
ENDBRANCH   1  22
TORSDOF 4
ENDMDL
MODEL 8
REMARK VINA RESULT:      -5.7      3.846      6.455
REMARK  4 active torsions:
REMARK  status: ('A' for Active; 'I' for Inactive)
REMARK    1  A    between atoms: C_2  and  C_3 
REMARK       I    between atoms: N_5  and  C_10 
REMARK       I    between atoms: C_10  and  N_12 
REMARK    2  A    between atoms: N_12  and  C_13 
REMARK    3  A    between atoms: C_13  and  C_14 
REMARK    4  A    between atoms: C_14  and  C_15 
ROOT
HETATM    1  C   UNL     1     -38.753 -48.749  12.523  1.00  0.00     0.139 C 
HETATM    2  C   UNL     1     -39.021 -50.059  11.757  1.00  0.00     0.159 C 
HETATM    3  N   UNL     1     -39.311 -51.152  12.685  1.00  0.00    -0.329 N 
HETATM    4  C   UNL     1     -38.260 -51.339  13.694  1.00  0.00     0.159 C 
HETATM    5  C   UNL     1     -38.021 -50.013  14.439  1.00  0.00     0.136 C 
HETATM    6  C   UNL     1     -36.878 -50.123  15.435  1.00  0.00     0.041 C 
HETATM    7  O   UNL     1     -37.712 -48.952  13.512  1.00  0.00    -0.378 OA
HETATM    8  C   UNL     1     -40.458 -51.890  12.517  1.00  0.00     0.318 C 
HETATM    9  O   UNL     1     -41.260 -51.670  11.615  1.00  0.00    -0.247 OA
HETATM   10  N   UNL     1     -40.644 -52.907  13.415  1.00  0.00    -0.343 N 
HETATM   11  H   UNL     1     -40.343 -52.682  14.350  1.00  0.00     0.164 HD
ENDROOT
BRANCH  10  12
HETATM   12  C   UNL     1     -41.830 -53.746  13.361  1.00  0.00     0.129 C 
BRANCH  12  13
HETATM   13  C   UNL     1     -42.865 -53.436  14.450  1.00  0.00     0.063 C 
BRANCH  13  14
HETATM   14  C   UNL     1     -44.171 -53.014  13.869  1.00  0.00    -0.001 A 
HETATM   15  C   UNL     1     -45.312 -53.816  13.586  1.00  0.00     0.037 A 
HETATM   16  C   UNL     1     -45.507 -55.272  13.784  1.00  0.00     0.071 C 
HETATM   17  N   UNL     1     -46.302 -53.085  13.060  1.00  0.00    -0.265 N 
HETATM   18  O   UNL     1     -45.824 -51.792  12.991  1.00  0.00    -0.242 OA
ATOM     19  HN  UNL     1     -47.223 -53.415  12.769  1.00  0.00     0.194 HD
HETATM   20  C   UNL     1     -44.554 -51.752  13.469  1.00  0.00     0.081 A 
HETATM   21  C   UNL     1     -43.886 -50.437  13.449  1.00  0.00     0.079 C 
ENDBRANCH  13  14
ENDBRANCH  12  13
ENDBRANCH  10  12
BRANCH   1  22
HETATM   22  C   UNL     1     -39.993 -48.127  13.189  1.00  0.00     0.029 C 
HETATM   23  C   UNL     1     -39.779 -46.735  13.756  1.00  0.00     0.007 C 
ENDBRANCH   1  22
TORSDOF 4
ENDMDL
MODEL 9
REMARK VINA RESULT:      -5.7      2.284      3.118
REMARK  4 active torsions:
REMARK  status: ('A' for Active; 'I' for Inactive)
REMARK    1  A    between atoms: C_2  and  C_3 
REMARK       I    between atoms: N_5  and  C_10 
REMARK       I    between atoms: C_10  and  N_12 
REMARK    2  A    between atoms: N_12  and  C_13 
REMARK    3  A    between atoms: C_13  and  C_14 
REMARK    4  A    between atoms: C_14  and  C_15 
ROOT
HETATM    1  C   UNL     1     -45.034 -52.060  15.884  1.00  0.00     0.139 C 
HETATM    2  C   UNL     1     -43.731 -51.252  15.724  1.00  0.00     0.159 C 
HETATM    3  N   UNL     1     -43.470 -50.962  14.313  1.00  0.00    -0.329 N 
HETATM    4  C   UNL     1     -43.447 -52.169  13.476  1.00  0.00     0.159 C 
HETATM    5  C   UNL     1     -44.763 -52.947  13.660  1.00  0.00     0.136 C 
HETATM    6  C   UNL     1     -44.757 -54.255  12.886  1.00  0.00     0.041 C 
HETATM    7  O   UNL     1     -44.991 -53.246  15.052  1.00  0.00    -0.378 OA
HETATM    8  C   UNL     1     -43.246 -49.663  13.925  1.00  0.00     0.318 C 
HETATM    9  O   UNL     1     -43.256 -48.725  14.715  1.00  0.00    -0.247 OA
HETATM   10  N   UNL     1     -42.990 -49.480  12.592  1.00  0.00    -0.343 N 
HETATM   11  H   UNL     1     -43.529 -50.082  11.989  1.00  0.00     0.164 HD
ENDROOT
BRANCH  10  12
HETATM   12  C   UNL     1     -42.761 -48.151  12.050  1.00  0.00     0.129 C 
BRANCH  12  13
HETATM   13  C   UNL     1     -42.726 -48.098  10.517  1.00  0.00     0.063 C 
BRANCH  13  14
HETATM   14  C   UNL     1     -43.286 -46.820   9.993  1.00  0.00    -0.001 A 
HETATM   15  C   UNL     1     -44.501 -46.613   9.283  1.00  0.00     0.037 A 
HETATM   16  C   UNL     1     -45.526 -47.603   8.872  1.00  0.00     0.071 C 
HETATM   17  N   UNL     1     -44.668 -45.323   8.969  1.00  0.00    -0.265 N 
HETATM   18  O   UNL     1     -43.563 -44.665   9.469  1.00  0.00    -0.242 OA
ATOM     19  HN  UNL     1     -45.452 -44.910   8.462  1.00  0.00     0.194 HD
HETATM   20  C   UNL     1     -42.738 -45.558  10.074  1.00  0.00     0.081 A 
HETATM   21  C   UNL     1     -41.494 -45.015  10.651  1.00  0.00     0.079 C 
ENDBRANCH  13  14
ENDBRANCH  12  13
ENDBRANCH  10  12
BRANCH   1  22
HETATM   22  C   UNL     1     -46.321 -51.266  15.598  1.00  0.00     0.029 C 
HETATM   23  C   UNL     1     -47.510 -51.655  16.458  1.00  0.00     0.007 C 
ENDBRANCH   1  22
TORSDOF 4
ENDMDL
