MODEL 1
REMARK VINA RESULT:      -5.7      0.000      0.000
REMARK  3 active torsions:
REMARK  status: ('A' for Active; 'I' for Inactive)
REMARK    1  A    between atoms: N_6  and  C_7 
REMARK    2  A    between atoms: C_7  and  C_8 
REMARK       I    between atoms: C_8  and  N_10 
REMARK    3  A    between atoms: N_10  and  C_11 
ROOT
HETATM    1  C   UNL     1     -41.674 -48.895  11.856  1.00  0.00     0.237 C 
HETATM    2  O   UNL     1     -41.711 -48.494  13.017  1.00  0.00    -0.272 OA
HETATM    3  N   UNL     1     -41.668 -50.226  11.505  1.00  0.00    -0.355 N 
HETATM    4  H   UNL     1     -41.878 -50.411  10.522  1.00  0.00     0.162 HD
ENDROOT
BRANCH   1   5
HETATM    5  C   UNL     1     -41.536 -47.940  10.686  1.00  0.00     0.250 C 
BRANCH   5   6
HETATM    6  N   UNL     1     -42.751 -47.843   9.891  1.00  0.00    -0.294 N 
HETATM    7  N   UNL     1     -42.688 -47.975   8.542  1.00  0.00    -0.308 N 
HETATM    8  C   UNL     1     -43.953 -47.778   8.149  1.00  0.00     0.127 A 
ATOM      9  HN  UNL     1     -41.872 -48.176   7.965  1.00  0.00     0.186 HD
HETATM   10  C   UNL     1     -44.795 -47.496   9.232  1.00  0.00     0.044 A 
HETATM   11 BR   UNL     1     -46.621 -47.131   9.126  1.00  0.00    -0.048 Br
HETATM   12  C   UNL     1     -44.002 -47.532  10.347  1.00  0.00     0.131 A 
ENDBRANCH   5   6
ENDBRANCH   1   5
BRANCH   3  13
HETATM   13  C   UNL     1     -41.837 -51.344  12.419  1.00  0.00     0.084 C 
HETATM   14  C   UNL     1     -43.296 -51.633  12.791  1.00  0.00     0.025 C 
HETATM   15  C   UNL     1     -43.357 -52.686  13.899  1.00  0.00     0.002 C 
HETATM   16  C   UNL     1     -42.596 -53.961  13.532  1.00  0.00     0.000 C 
HETATM   17  C   UNL     1     -41.178 -53.683  13.032  1.00  0.00     0.002 C 
HETATM   18  C   UNL     1     -41.153 -52.624  11.931  1.00  0.00     0.025 C 
ENDBRANCH   3  13
TORSDOF 3
ENDMDL
MODEL 2
REMARK VINA RESULT:      -5.4      2.432      3.184
REMARK  3 active torsions:
REMARK  status: ('A' for Active; 'I' for Inactive)
REMARK    1  A    between atoms: N_6  and  C_7 
REMARK    2  A    between atoms: C_7  and  C_8 
REMARK       I    between atoms: C_8  and  N_10 
REMARK    3  A    between atoms: N_10  and  C_11 
ROOT
HETATM    1  C   UNL     1     -42.071 -50.813  12.518  1.00  0.00     0.237 C 
HETATM    2  O   UNL     1     -42.887 -50.068  13.055  1.00  0.00    -0.272 OA
HETATM    3  N   UNL     1     -42.084 -52.184  12.648  1.00  0.00    -0.355 N 
HETATM    4  H   UNL     1     -41.509 -52.684  11.967  1.00  0.00     0.162 HD
ENDROOT
BRANCH   1   5
HETATM    5  C   UNL     1     -40.898 -50.271  11.724  1.00  0.00     0.250 C 
BRANCH   5   6
HETATM    6  N   UNL     1     -41.105 -48.902  11.277  1.00  0.00    -0.294 N 
HETATM    7  N   UNL     1     -42.183 -48.596  10.512  1.00  0.00    -0.308 N 
HETATM    8  C   UNL     1     -42.022 -47.294  10.249  1.00  0.00     0.127 A 
ATOM      9  HN  UNL     1     -42.937 -49.212  10.210  1.00  0.00     0.186 HD
HETATM   10  C   UNL     1     -40.842 -46.792  10.815  1.00  0.00     0.044 A 
HETATM   11 BR   UNL     1     -40.223 -45.040  10.667  1.00  0.00    -0.048 Br
HETATM   12  C   UNL     1     -40.258 -47.846  11.465  1.00  0.00     0.131 A 
ENDBRANCH   5   6
ENDBRANCH   1   5
BRANCH   3  13
HETATM   13  C   UNL     1     -43.117 -52.962  13.311  1.00  0.00     0.084 C 
HETATM   14  C   UNL     1     -44.370 -53.193  12.460  1.00  0.00     0.025 C 
HETATM   15  C   UNL     1     -45.467 -53.844  13.305  1.00  0.00     0.002 C 
HETATM   16  C   UNL     1     -44.992 -55.128  13.985  1.00  0.00     0.000 C 
HETATM   17  C   UNL     1     -43.671 -54.950  14.734  1.00  0.00     0.002 C 
HETATM   18  C   UNL     1     -42.601 -54.294  13.863  1.00  0.00     0.025 C 
ENDBRANCH   3  13
TORSDOF 3
ENDMDL
MODEL 3
REMARK VINA RESULT:      -5.2      4.041      5.196
REMARK  3 active torsions:
REMARK  status: ('A' for Active; 'I' for Inactive)
REMARK    1  A    between atoms: N_6  and  C_7 
REMARK    2  A    between atoms: C_7  and  C_8 
REMARK       I    between atoms: C_8  and  N_10 
REMARK    3  A    between atoms: N_10  and  C_11 
ROOT
HETATM    1  C   UNL     1     -42.162 -52.915  12.862  1.00  0.00     0.237 C 
HETATM    2  O   UNL     1     -41.849 -53.620  13.818  1.00  0.00    -0.272 OA
HETATM    3  N   UNL     1     -43.428 -52.413  12.661  1.00  0.00    -0.355 N 
HETATM    4  H   UNL     1     -43.486 -51.658  11.974  1.00  0.00     0.162 HD
ENDROOT
BRANCH   1   5
HETATM    5  C   UNL     1     -41.183 -52.604  11.746  1.00  0.00     0.250 C 
BRANCH   5   6
HETATM    6  N   UNL     1     -40.488 -51.340  11.941  1.00  0.00    -0.294 N 
HETATM    7  N   UNL     1     -40.603 -50.356  11.014  1.00  0.00    -0.308 N 
HETATM    8  C   UNL     1     -39.806 -49.388  11.485  1.00  0.00     0.127 A 
ATOM      9  HN  UNL     1     -41.162 -50.353  10.162  1.00  0.00     0.186 HD
HETATM   10  C   UNL     1     -39.175 -49.769  12.676  1.00  0.00     0.044 A 
HETATM   11 BR   UNL     1     -37.964 -48.734  13.646  1.00  0.00    -0.048 Br
HETATM   12  C   UNL     1     -39.618 -51.035  12.951  1.00  0.00     0.131 A 
ENDBRANCH   5   6
ENDBRANCH   1   5
BRANCH   3  13
HETATM   13  C   UNL     1     -44.538 -52.519  13.594  1.00  0.00     0.084 C 
HETATM   14  C   UNL     1     -45.529 -51.352  13.524  1.00  0.00     0.025 C 
HETATM   15  C   UNL     1     -46.542 -51.453  14.666  1.00  0.00     0.002 C 
HETATM   16  C   UNL     1     -47.253 -52.807  14.694  1.00  0.00     0.000 C 
HETATM   17  C   UNL     1     -46.284 -53.989  14.633  1.00  0.00     0.002 C 
HETATM   18  C   UNL     1     -45.284 -53.852  13.485  1.00  0.00     0.025 C 
ENDBRANCH   3  13
TORSDOF 3
ENDMDL
MODEL 4
REMARK VINA RESULT:      -5.0      2.238      2.992
REMARK  3 active torsions:
REMARK  status: ('A' for Active; 'I' for Inactive)
REMARK    1  A    between atoms: N_6  and  C_7 
REMARK    2  A    between atoms: C_7  and  C_8 
REMARK       I    between atoms: C_8  and  N_10 
REMARK    3  A    between atoms: N_10  and  C_11 
ROOT
HETATM    1  C   UNL     1     -41.488 -46.975  11.295  1.00  0.00     0.237 C 
HETATM    2  O   UNL     1     -42.040 -46.886  12.389  1.00  0.00    -0.272 OA
HETATM    3  N   UNL     1     -40.438 -47.828  11.034  1.00  0.00    -0.355 N 
HETATM    4  H   UNL     1     -40.241 -47.973  10.042  1.00  0.00     0.162 HD
ENDROOT
BRANCH   1   5
HETATM    5  C   UNL     1     -41.860 -46.070  10.137  1.00  0.00     0.250 C 
BRANCH   5   6
HETATM    6  N   UNL     1     -43.212 -46.304   9.651  1.00  0.00    -0.294 N 
HETATM    7  N   UNL     1     -44.000 -45.253   9.313  1.00  0.00    -0.308 N 
HETATM    8  C   UNL     1     -45.160 -45.827   8.972  1.00  0.00     0.127 A 
ATOM      9  HN  UNL     1     -43.764 -44.261   9.317  1.00  0.00     0.186 HD
HETATM   10  C   UNL     1     -45.113 -47.219   9.122  1.00  0.00     0.044 A 
HETATM   11 BR   UNL     1     -46.519 -48.398   8.787  1.00  0.00    -0.048 Br
HETATM   12  C   UNL     1     -43.853 -47.509   9.571  1.00  0.00     0.131 A 
ENDBRANCH   5   6
ENDBRANCH   1   5
BRANCH   3  13
HETATM   13  C   UNL     1     -39.916 -48.832  11.946  1.00  0.00     0.084 C 
HETATM   14  C   UNL     1     -40.600 -50.198  11.833  1.00  0.00     0.025 C 
HETATM   15  C   UNL     1     -40.123 -51.120  12.956  1.00  0.00     0.002 C 
HETATM   16  C   UNL     1     -38.600 -51.245  12.998  1.00  0.00     0.000 C 
HETATM   17  C   UNL     1     -37.892 -49.889  12.980  1.00  0.00     0.002 C 
HETATM   18  C   UNL     1     -38.396 -48.993  11.850  1.00  0.00     0.025 C 
ENDBRANCH   3  13
TORSDOF 3
ENDMDL
MODEL 5
REMARK VINA RESULT:      -5.0      2.468      3.354
REMARK  3 active torsions:
REMARK  status: ('A' for Active; 'I' for Inactive)
REMARK    1  A    between atoms: N_6  and  C_7 
REMARK    2  A    between atoms: C_7  and  C_8 
REMARK       I    between atoms: C_8  and  N_10 
REMARK    3  A    between atoms: N_10  and  C_11 
ROOT
HETATM    1  C   UNL     1     -41.217 -51.283  12.748  1.00  0.00     0.237 C 
HETATM    2  O   UNL     1     -41.892 -50.764  13.634  1.00  0.00    -0.272 OA
HETATM    3  N   UNL     1     -41.287 -52.616  12.412  1.00  0.00    -0.355 N 
HETATM    4  H   UNL     1     -40.859 -52.855  11.515  1.00  0.00     0.162 HD
ENDROOT
BRANCH   1   5
HETATM    5  C   UNL     1     -40.158 -50.503  11.993  1.00  0.00     0.250 C 
BRANCH   5   6
HETATM    6  N   UNL     1     -40.644 -49.221  11.504  1.00  0.00    -0.294 N 
HETATM    7  N   UNL     1     -41.799 -49.163  10.794  1.00  0.00    -0.308 N 
HETATM    8  C   UNL     1     -41.902 -47.868  10.469  1.00  0.00     0.127 A 
ATOM      9  HN  UNL     1     -42.437 -49.924  10.563  1.00  0.00     0.186 HD
HETATM   10  C   UNL     1     -40.811 -47.127  10.941  1.00  0.00     0.044 A 
HETATM   11 BR   UNL     1     -40.545 -45.299  10.684  1.00  0.00    -0.048 Br
HETATM   12  C   UNL     1     -40.004 -48.017  11.597  1.00  0.00     0.131 A 
ENDBRANCH   5   6
ENDBRANCH   1   5
BRANCH   3  13
HETATM   13  C   UNL     1     -42.243 -53.574  12.943  1.00  0.00     0.084 C 
HETATM   14  C   UNL     1     -42.079 -53.859  14.439  1.00  0.00     0.025 C 
HETATM   15  C   UNL     1     -42.991 -55.014  14.858  1.00  0.00     0.002 C 
HETATM   16  C   UNL     1     -44.452 -54.767  14.479  1.00  0.00     0.000 C 
HETATM   17  C   UNL     1     -44.625 -54.352  13.018  1.00  0.00     0.002 C 
HETATM   18  C   UNL     1     -43.696 -53.201  12.634  1.00  0.00     0.025 C 
ENDBRANCH   3  13
TORSDOF 3
ENDMDL
MODEL 6
REMARK VINA RESULT:      -4.9      2.415      2.897
REMARK  3 active torsions:
REMARK  status: ('A' for Active; 'I' for Inactive)
REMARK    1  A    between atoms: N_6  and  C_7 
REMARK    2  A    between atoms: C_7  and  C_8 
REMARK       I    between atoms: C_8  and  N_10 
REMARK    3  A    between atoms: N_10  and  C_11 
ROOT
HETATM    1  C   UNL     1     -42.162 -49.067  12.100  1.00  0.00     0.237 C 
HETATM    2  O   UNL     1     -41.561 -48.704  13.108  1.00  0.00    -0.272 OA
HETATM    3  N   UNL     1     -42.422 -50.384  11.795  1.00  0.00    -0.355 N 
HETATM    4  H   UNL     1     -43.127 -50.525  11.069  1.00  0.00     0.162 HD
ENDROOT
BRANCH   1   5
HETATM    5  C   UNL     1     -42.598 -48.081  11.034  1.00  0.00     0.250 C 
BRANCH   5   6
HETATM    6  N   UNL     1     -41.741 -46.907  10.967  1.00  0.00    -0.294 N 
HETATM    7  N   UNL     1     -40.419 -47.049  10.697  1.00  0.00    -0.308 N 
HETATM    8  C   UNL     1     -39.948 -45.798  10.770  1.00  0.00     0.127 A 
ATOM      9  HN  UNL     1     -39.906 -47.906  10.489  1.00  0.00     0.186 HD
HETATM   10  C   UNL     1     -40.953 -44.884  11.111  1.00  0.00     0.044 A 
HETATM   11 BR   UNL     1     -40.721 -43.049  11.345  1.00  0.00    -0.048 Br
HETATM   12  C   UNL     1     -42.101 -45.617  11.245  1.00  0.00     0.131 A 
ENDBRANCH   5   6
ENDBRANCH   1   5
BRANCH   3  13
HETATM   13  C   UNL     1     -42.156 -51.522  12.660  1.00  0.00     0.084 C 
HETATM   14  C   UNL     1     -43.416 -52.193  13.217  1.00  0.00     0.025 C 
HETATM   15  C   UNL     1     -43.035 -53.243  14.262  1.00  0.00     0.002 C 
HETATM   16  C   UNL     1     -42.034 -54.265  13.720  1.00  0.00     0.000 C 
HETATM   17  C   UNL     1     -40.828 -53.613  13.042  1.00  0.00     0.002 C 
HETATM   18  C   UNL     1     -41.245 -52.567  12.010  1.00  0.00     0.025 C 
ENDBRANCH   3  13
TORSDOF 3
ENDMDL
MODEL 7
REMARK VINA RESULT:      -4.8      4.537      6.381
REMARK  3 active torsions:
REMARK  status: ('A' for Active; 'I' for Inactive)
REMARK    1  A    between atoms: N_6  and  C_7 
REMARK    2  A    between atoms: C_7  and  C_8 
REMARK       I    between atoms: C_8  and  N_10 
REMARK    3  A    between atoms: N_10  and  C_11 
ROOT
HETATM    1  C   UNL     1     -40.427 -51.671  13.633  1.00  0.00     0.237 C 
HETATM    2  O   UNL     1     -41.339 -51.035  14.155  1.00  0.00    -0.272 OA
HETATM    3  N   UNL     1     -39.129 -51.220  13.549  1.00  0.00    -0.355 N 
HETATM    4  H   UNL     1     -38.440 -51.939  13.314  1.00  0.00     0.162 HD
ENDROOT
BRANCH   1   5
HETATM    5  C   UNL     1     -40.675 -52.996  12.939  1.00  0.00     0.250 C 
BRANCH   5   6
HETATM    6  N   UNL     1     -42.087 -53.341  12.870  1.00  0.00    -0.294 N 
HETATM    7  N   UNL     1     -42.904 -52.676  12.015  1.00  0.00    -0.308 N 
HETATM    8  C   UNL     1     -44.109 -53.207  12.257  1.00  0.00     0.127 A 
ATOM      9  HN  UNL     1     -42.659 -51.947  11.347  1.00  0.00     0.186 HD
HETATM   10  C   UNL     1     -44.057 -54.171  13.272  1.00  0.00     0.044 A 
HETATM   11 BR   UNL     1     -45.511 -55.130  13.938  1.00  0.00    -0.048 Br
HETATM   12  C   UNL     1     -42.747 -54.237  13.663  1.00  0.00     0.131 A 
ENDBRANCH   5   6
ENDBRANCH   1   5
BRANCH   3  13
HETATM   13  C   UNL     1     -38.611 -50.011  14.168  1.00  0.00     0.084 C 
HETATM   14  C   UNL     1     -37.210 -50.167  14.769  1.00  0.00     0.025 C 
HETATM   15  C   UNL     1     -36.836 -48.914  15.562  1.00  0.00     0.002 C 
HETATM   16  C   UNL     1     -36.962 -47.638  14.728  1.00  0.00     0.000 C 
HETATM   17  C   UNL     1     -38.309 -47.527  14.012  1.00  0.00     0.002 C 
HETATM   18  C   UNL     1     -38.653 -48.798  13.235  1.00  0.00     0.025 C 
ENDBRANCH   3  13
TORSDOF 3
ENDMDL
MODEL 8
REMARK VINA RESULT:      -4.8      5.582      7.703
REMARK  3 active torsions:
REMARK  status: ('A' for Active; 'I' for Inactive)
REMARK    1  A    between atoms: N_6  and  C_7 
REMARK    2  A    between atoms: C_7  and  C_8 
REMARK       I    between atoms: C_8  and  N_10 
REMARK    3  A    between atoms: N_10  and  C_11 
ROOT
HETATM    1  C   UNL     1     -41.730 -52.944  13.565  1.00  0.00     0.237 C 
HETATM    2  O   UNL     1     -41.359 -51.855  13.995  1.00  0.00    -0.272 OA
HETATM    3  N   UNL     1     -43.052 -53.295  13.405  1.00  0.00    -0.355 N 
HETATM    4  H   UNL     1     -43.208 -54.119  12.821  1.00  0.00     0.162 HD
ENDROOT
BRANCH   1   5
HETATM    5  C   UNL     1     -40.746 -54.055  13.253  1.00  0.00     0.250 C 
BRANCH   5   6
HETATM    6  N   UNL     1     -40.082 -54.570  14.441  1.00  0.00    -0.294 N 
HETATM    7  N   UNL     1     -38.764 -54.888  14.394  1.00  0.00    -0.308 N 
HETATM    8  C   UNL     1     -38.514 -55.369  15.618  1.00  0.00     0.127 A 
ATOM      9  HN  UNL     1     -38.117 -54.784  13.613  1.00  0.00     0.186 HD
HETATM   10  C   UNL     1     -39.666 -55.384  16.415  1.00  0.00     0.044 A 
HETATM   11 BR   UNL     1     -39.766 -56.002  18.171  1.00  0.00    -0.048 Br
HETATM   12  C   UNL     1     -40.670 -54.875  15.637  1.00  0.00     0.131 A 
ENDBRANCH   5   6
ENDBRANCH   1   5
BRANCH   3  13
HETATM   13  C   UNL     1     -44.190 -52.409  13.585  1.00  0.00     0.084 C 
HETATM   14  C   UNL     1     -45.389 -52.741  12.690  1.00  0.00     0.025 C 
HETATM   15  C   UNL     1     -46.451 -51.647  12.807  1.00  0.00     0.002 C 
HETATM   16  C   UNL     1     -46.871 -51.397  14.256  1.00  0.00     0.000 C 
HETATM   17  C   UNL     1     -45.680 -51.192  15.193  1.00  0.00     0.002 C 
HETATM   18  C   UNL     1     -44.637 -52.300  15.045  1.00  0.00     0.025 C 
ENDBRANCH   3  13
TORSDOF 3
ENDMDL
MODEL 9
REMARK VINA RESULT:      -4.8      3.946      7.019
REMARK  3 active torsions:
REMARK  status: ('A' for Active; 'I' for Inactive)
REMARK    1  A    between atoms: N_6  and  C_7 
REMARK    2  A    between atoms: C_7  and  C_8 
REMARK       I    between atoms: C_8  and  N_10 
REMARK    3  A    between atoms: N_10  and  C_11 
ROOT
HETATM    1  C   UNL     1     -40.182 -48.610  11.796  1.00  0.00     0.237 C 
HETATM    2  O   UNL     1     -41.302 -48.644  12.298  1.00  0.00    -0.272 OA
HETATM    3  N   UNL     1     -39.529 -47.445  11.457  1.00  0.00    -0.355 N 
HETATM    4  H   UNL     1     -38.528 -47.551  11.280  1.00  0.00     0.162 HD
ENDROOT
BRANCH   1   5
HETATM    5  C   UNL     1     -39.441 -49.876  11.412  1.00  0.00     0.250 C 
BRANCH   5   6
HETATM    6  N   UNL     1     -40.041 -51.074  11.979  1.00  0.00    -0.294 N 
HETATM    7  N   UNL     1     -41.114 -51.644  11.374  1.00  0.00    -0.308 N 
HETATM    8  C   UNL     1     -41.424 -52.665  12.182  1.00  0.00     0.127 A 
ATOM      9  HN  UNL     1     -41.574 -51.361  10.509  1.00  0.00     0.186 HD
HETATM   10  C   UNL     1     -40.577 -52.720  13.297  1.00  0.00     0.044 A 
HETATM   11 BR   UNL     1     -40.679 -53.965  14.681  1.00  0.00    -0.048 Br
HETATM   12  C   UNL     1     -39.698 -51.680  13.155  1.00  0.00     0.131 A 
ENDBRANCH   5   6
ENDBRANCH   1   5
BRANCH   3  13
HETATM   13  C   UNL     1     -39.989 -46.099  11.756  1.00  0.00     0.084 C 
HETATM   14  C   UNL     1     -39.437 -45.525  13.064  1.00  0.00     0.025 C 
HETATM   15  C   UNL     1     -40.126 -44.198  13.388  1.00  0.00     0.002 C 
HETATM   16  C   UNL     1     -40.028 -43.196  12.236  1.00  0.00     0.000 C 
HETATM   17  C   UNL     1     -40.452 -43.791  10.893  1.00  0.00     0.002 C 
HETATM   18  C   UNL     1     -39.750 -45.117  10.606  1.00  0.00     0.025 C 
ENDBRANCH   3  13
TORSDOF 3
ENDMDL
