MODEL 1
REMARK VINA RESULT:      -5.9      0.000      0.000
REMARK  5 active torsions:
REMARK  status: ('A' for Active; 'I' for Inactive)
REMARK    1  A    between atoms: N_6  and  S_8 
REMARK    2  A    between atoms: S_8  and  N_11 
REMARK    3  A    between atoms: N_11  and  C_12 
REMARK    4  A    between atoms: C_12  and  C_13 
REMARK    5  A    between atoms: C_13  and  C_14 
ROOT
HETATM    1  N   UNL     1     -42.054 -50.219  11.742  1.00  0.00    -0.206 NA
HETATM    2  H   UNL     1     -42.606 -49.570  12.306  1.00  0.00     0.140 HD
ENDROOT
BRANCH   1   3
HETATM    3  S   UNL     1     -41.705 -51.535  12.724  1.00  0.00     0.280 S 
HETATM    4  O   UNL     1     -40.962 -51.031  13.852  1.00  0.00    -0.194 OA
HETATM    5  O   UNL     1     -41.220 -52.627  11.918  1.00  0.00    -0.194 OA
BRANCH   3   6
HETATM    6  N   UNL     1     -43.271 -51.947  13.246  1.00  0.00    -0.197 NA
HETATM    7  C   UNL     1     -43.747 -53.151  12.490  1.00  0.00     0.108 C 
HETATM    8  C   UNL     1     -45.121 -53.601  12.960  1.00  0.00     0.016 C 
HETATM    9  C   UNL     1     -46.127 -52.460  12.887  1.00  0.00     0.007 C 
HETATM   10  C   UNL     1     -45.635 -51.229  13.653  1.00  0.00    -0.004 C 
HETATM   11  C   UNL     1     -45.656 -51.453  15.168  1.00  0.00     0.011 C 
HETATM   12  C   UNL     1     -44.244 -50.814  13.153  1.00  0.00     0.112 C 
ENDBRANCH   3   6
ENDBRANCH   1   3
BRANCH   1  13
HETATM   13  C   UNL     1     -40.866 -49.497  11.186  1.00  0.00     0.111 C 
BRANCH  13  14
HETATM   14  C   UNL     1     -40.953 -47.977  11.319  1.00  0.00     0.072 C 
BRANCH  14  15
HETATM   15  C   UNL     1     -41.980 -47.398  10.382  1.00  0.00     0.010 A 
HETATM   16  C   UNL     1     -42.406 -46.077  10.541  1.00  0.00     0.025 A 
HETATM   17  C   UNL     1     -43.349 -45.562   9.661  1.00  0.00     0.003 A 
HETATM   18  C   UNL     1     -43.839 -46.372   8.644  1.00  0.00     0.017 A 
HETATM   19  C   UNL     1     -43.360 -47.667   8.552  1.00  0.00     0.088 A 
HETATM   20  N   UNL     1     -42.448 -48.198   9.394  1.00  0.00    -0.369 N 
ATOM     21  HN  UNL     1     -42.126 -49.160   9.292  1.00  0.00     0.165 HD
ENDBRANCH  14  15
ENDBRANCH  13  14
ENDBRANCH   1  13
TORSDOF 5
ENDMDL
MODEL 2
REMARK VINA RESULT:      -5.8      3.525      6.413
REMARK  5 active torsions:
REMARK  status: ('A' for Active; 'I' for Inactive)
REMARK    1  A    between atoms: N_6  and  S_8 
REMARK    2  A    between atoms: S_8  and  N_11 
REMARK    3  A    between atoms: N_11  and  C_12 
REMARK    4  A    between atoms: C_12  and  C_13 
REMARK    5  A    between atoms: C_13  and  C_14 
ROOT
HETATM    1  N   UNL     1     -41.274 -52.236  14.350  1.00  0.00    -0.206 NA
HETATM    2  H   UNL     1     -41.787 -51.355  14.293  1.00  0.00     0.140 HD
ENDROOT
BRANCH   1   3
HETATM    3  S   UNL     1     -40.744 -52.589  12.796  1.00  0.00     0.280 S 
HETATM    4  O   UNL     1     -41.743 -52.083  11.888  1.00  0.00    -0.194 OA
HETATM    5  O   UNL     1     -40.282 -53.952  12.739  1.00  0.00    -0.194 OA
BRANCH   3   6
HETATM    6  N   UNL     1     -39.373 -51.585  12.709  1.00  0.00    -0.197 NA
HETATM    7  C   UNL     1     -38.867 -51.314  14.094  1.00  0.00     0.108 C 
HETATM    8  C   UNL     1     -37.603 -50.468  14.073  1.00  0.00     0.016 C 
HETATM    9  C   UNL     1     -37.819 -49.179  13.293  1.00  0.00     0.007 C 
HETATM   10  C   UNL     1     -38.343 -49.457  11.882  1.00  0.00    -0.004 C 
HETATM   11  C   UNL     1     -37.272 -50.087  10.988  1.00  0.00     0.011 C 
HETATM   12  C   UNL     1     -39.613 -50.318  11.950  1.00  0.00     0.112 C 
ENDBRANCH   3   6
ENDBRANCH   1   3
BRANCH   1  13
HETATM   13  C   UNL     1     -42.150 -53.273  14.983  1.00  0.00     0.111 C 
BRANCH  13  14
HETATM   14  C   UNL     1     -43.397 -52.697  15.653  1.00  0.00     0.072 C 
BRANCH  14  15
HETATM   15  C   UNL     1     -44.487 -52.421  14.650  1.00  0.00     0.010 A 
HETATM   16  C   UNL     1     -45.582 -51.632  15.008  1.00  0.00     0.025 A 
HETATM   17  C   UNL     1     -46.571 -51.386  14.065  1.00  0.00     0.003 A 
HETATM   18  C   UNL     1     -46.443 -51.927  12.792  1.00  0.00     0.017 A 
HETATM   19  C   UNL     1     -45.324 -52.693  12.517  1.00  0.00     0.088 A 
HETATM   20  N   UNL     1     -44.348 -52.955  13.413  1.00  0.00    -0.369 N 
ATOM     21  HN  UNL     1     -43.541 -53.529  13.169  1.00  0.00     0.165 HD
ENDBRANCH  14  15
ENDBRANCH  13  14
ENDBRANCH   1  13
TORSDOF 5
ENDMDL
MODEL 3
REMARK VINA RESULT:      -5.6      3.683      6.461
REMARK  5 active torsions:
REMARK  status: ('A' for Active; 'I' for Inactive)
REMARK    1  A    between atoms: N_6  and  S_8 
REMARK    2  A    between atoms: S_8  and  N_11 
REMARK    3  A    between atoms: N_11  and  C_12 
REMARK    4  A    between atoms: C_12  and  C_13 
REMARK    5  A    between atoms: C_13  and  C_14 
ROOT
HETATM    1  N   UNL     1     -40.857 -52.948  11.966  1.00  0.00    -0.206 NA
HETATM    2  H   UNL     1     -40.964 -53.927  11.694  1.00  0.00     0.140 HD
ENDROOT
BRANCH   1   3
HETATM    3  S   UNL     1     -40.024 -52.939  13.423  1.00  0.00     0.280 S 
HETATM    4  O   UNL     1     -39.318 -54.194  13.510  1.00  0.00    -0.194 OA
HETATM    5  O   UNL     1     -40.893 -52.478  14.476  1.00  0.00    -0.194 OA
BRANCH   3   6
HETATM    6  N   UNL     1     -38.896 -51.702  13.119  1.00  0.00    -0.197 NA
HETATM    7  C   UNL     1     -38.373 -51.175  14.422  1.00  0.00     0.108 C 
HETATM    8  C   UNL     1     -37.313 -50.105  14.208  1.00  0.00     0.016 C 
HETATM    9  C   UNL     1     -37.836 -48.985  13.319  1.00  0.00     0.007 C 
HETATM   10  C   UNL     1     -38.376 -49.527  11.993  1.00  0.00    -0.004 C 
HETATM   11  C   UNL     1     -37.254 -50.034  11.083  1.00  0.00     0.011 C 
HETATM   12  C   UNL     1     -39.436 -50.607  12.255  1.00  0.00     0.112 C 
ENDBRANCH   3   6
ENDBRANCH   1   3
BRANCH   1  13
HETATM   13  C   UNL     1     -42.206 -52.296  11.991  1.00  0.00     0.111 C 
BRANCH  13  14
HETATM   14  C   UNL     1     -43.340 -53.249  12.364  1.00  0.00     0.072 C 
BRANCH  14  15
HETATM   15  C   UNL     1     -44.394 -52.559  13.191  1.00  0.00     0.010 A 
HETATM   16  C   UNL     1     -45.696 -52.437  12.702  1.00  0.00     0.025 A 
HETATM   17  C   UNL     1     -46.652 -51.802  13.484  1.00  0.00     0.003 A 
HETATM   18  C   UNL     1     -46.289 -51.311  14.732  1.00  0.00     0.017 A 
HETATM   19  C   UNL     1     -44.979 -51.479  15.144  1.00  0.00     0.088 A 
HETATM   20  N   UNL     1     -44.025 -52.086  14.405  1.00  0.00    -0.369 N 
ATOM     21  HN  UNL     1     -43.069 -52.184  14.746  1.00  0.00     0.165 HD
ENDBRANCH  14  15
ENDBRANCH  13  14
ENDBRANCH   1  13
TORSDOF 5
ENDMDL
MODEL 4
REMARK VINA RESULT:      -5.5      3.497      4.385
REMARK  5 active torsions:
REMARK  status: ('A' for Active; 'I' for Inactive)
REMARK    1  A    between atoms: N_6  and  S_8 
REMARK    2  A    between atoms: S_8  and  N_11 
REMARK    3  A    between atoms: N_11  and  C_12 
REMARK    4  A    between atoms: C_12  and  C_13 
REMARK    5  A    between atoms: C_13  and  C_14 
ROOT
HETATM    1  N   UNL     1     -42.516 -54.205  12.995  1.00  0.00    -0.206 NA
HETATM    2  H   UNL     1     -43.096 -53.571  12.443  1.00  0.00     0.140 HD
ENDROOT
BRANCH   1   3
HETATM    3  S   UNL     1     -43.163 -54.227  14.544  1.00  0.00     0.280 S 
HETATM    4  O   UNL     1     -42.137 -53.742  15.434  1.00  0.00    -0.194 OA
HETATM    5  O   UNL     1     -43.839 -55.480  14.770  1.00  0.00    -0.194 OA
BRANCH   3   6
HETATM    6  N   UNL     1     -44.359 -53.027  14.389  1.00  0.00    -0.197 NA
HETATM    7  C   UNL     1     -44.453 -52.251  15.669  1.00  0.00     0.108 C 
HETATM    8  C   UNL     1     -45.468 -51.123  15.566  1.00  0.00     0.016 C 
HETATM    9  C   UNL     1     -46.828 -51.646  15.126  1.00  0.00     0.007 C 
HETATM   10  C   UNL     1     -46.727 -52.444  13.823  1.00  0.00    -0.004 C 
HETATM   11  C   UNL     1     -46.431 -51.542  12.622  1.00  0.00     0.011 C 
HETATM   12  C   UNL     1     -45.689 -53.566  13.968  1.00  0.00     0.112 C 
ENDBRANCH   3   6
ENDBRANCH   1   3
BRANCH   1  13
HETATM   13  C   UNL     1     -41.086 -53.769  12.900  1.00  0.00     0.111 C 
BRANCH  13  14
HETATM   14  C   UNL     1     -40.900 -52.423  12.203  1.00  0.00     0.072 C 
BRANCH  14  15
HETATM   15  C   UNL     1     -41.470 -51.293  13.020  1.00  0.00     0.010 A 
HETATM   16  C   UNL     1     -42.511 -50.516  12.508  1.00  0.00     0.025 A 
HETATM   17  C   UNL     1     -43.025 -49.484  13.282  1.00  0.00     0.003 A 
HETATM   18  C   UNL     1     -42.494 -49.255  14.545  1.00  0.00     0.017 A 
HETATM   19  C   UNL     1     -41.467 -50.075  14.980  1.00  0.00     0.088 A 
HETATM   20  N   UNL     1     -40.943 -51.083  14.250  1.00  0.00    -0.369 N 
ATOM     21  HN  UNL     1     -40.183 -51.661  14.608  1.00  0.00     0.165 HD
ENDBRANCH  14  15
ENDBRANCH  13  14
ENDBRANCH   1  13
TORSDOF 5
ENDMDL
MODEL 5
REMARK VINA RESULT:      -5.4      2.066      2.933
REMARK  5 active torsions:
REMARK  status: ('A' for Active; 'I' for Inactive)
REMARK    1  A    between atoms: N_6  and  S_8 
REMARK    2  A    between atoms: S_8  and  N_11 
REMARK    3  A    between atoms: N_11  and  C_12 
REMARK    4  A    between atoms: C_12  and  C_13 
REMARK    5  A    between atoms: C_13  and  C_14 
ROOT
HETATM    1  N   UNL     1     -42.953 -52.046  12.467  1.00  0.00    -0.206 NA
HETATM    2  H   UNL     1     -42.964 -51.361  13.225  1.00  0.00     0.140 HD
ENDROOT
BRANCH   1   3
HETATM    3  S   UNL     1     -43.548 -53.481  13.104  1.00  0.00     0.280 S 
HETATM    4  O   UNL     1     -42.447 -54.133  13.769  1.00  0.00    -0.194 OA
HETATM    5  O   UNL     1     -44.348 -54.156  12.114  1.00  0.00    -0.194 OA
BRANCH   3   6
HETATM    6  N   UNL     1     -44.610 -52.871  14.285  1.00  0.00    -0.197 NA
HETATM    7  C   UNL     1     -46.003 -53.342  13.992  1.00  0.00     0.108 C 
HETATM    8  C   UNL     1     -46.987 -52.874  15.052  1.00  0.00     0.016 C 
HETATM    9  C   UNL     1     -46.931 -51.362  15.224  1.00  0.00     0.007 C 
HETATM   10  C   UNL     1     -45.507 -50.883  15.516  1.00  0.00    -0.004 C 
HETATM   11  C   UNL     1     -45.043 -51.289  16.918  1.00  0.00     0.011 C 
HETATM   12  C   UNL     1     -44.547 -51.383  14.426  1.00  0.00     0.112 C 
ENDBRANCH   3   6
ENDBRANCH   1   3
BRANCH   1  13
HETATM   13  C   UNL     1     -41.571 -52.120  11.894  1.00  0.00     0.111 C 
BRANCH  13  14
HETATM   14  C   UNL     1     -40.590 -51.136  12.530  1.00  0.00     0.072 C 
BRANCH  14  15
HETATM   15  C   UNL     1     -40.734 -49.755  11.947  1.00  0.00     0.010 A 
HETATM   16  C   UNL     1     -39.749 -48.793  12.179  1.00  0.00     0.025 A 
HETATM   17  C   UNL     1     -39.900 -47.528  11.625  1.00  0.00     0.003 A 
HETATM   18  C   UNL     1     -41.022 -47.256  10.853  1.00  0.00     0.017 A 
HETATM   19  C   UNL     1     -41.949 -48.268  10.668  1.00  0.00     0.088 A 
HETATM   20  N   UNL     1     -41.833 -49.505  11.196  1.00  0.00    -0.369 N 
ATOM     21  HN  UNL     1     -42.543 -50.220  11.037  1.00  0.00     0.165 HD
ENDBRANCH  14  15
ENDBRANCH  13  14
ENDBRANCH   1  13
TORSDOF 5
ENDMDL
MODEL 6
REMARK VINA RESULT:      -5.4      4.881      6.521
REMARK  5 active torsions:
REMARK  status: ('A' for Active; 'I' for Inactive)
REMARK    1  A    between atoms: N_6  and  S_8 
REMARK    2  A    between atoms: S_8  and  N_11 
REMARK    3  A    between atoms: N_11  and  C_12 
REMARK    4  A    between atoms: C_12  and  C_13 
REMARK    5  A    between atoms: C_13  and  C_14 
ROOT
HETATM    1  N   UNL     1     -44.385 -52.315  17.001  1.00  0.00    -0.206 NA
HETATM    2  H   UNL     1     -44.508 -52.053  16.021  1.00  0.00     0.140 HD
ENDROOT
BRANCH   1   3
HETATM    3  S   UNL     1     -43.319 -53.612  17.023  1.00  0.00     0.280 S 
HETATM    4  O   UNL     1     -44.108 -54.807  16.851  1.00  0.00    -0.194 OA
HETATM    5  O   UNL     1     -42.393 -53.460  18.117  1.00  0.00    -0.194 OA
BRANCH   3   6
HETATM    6  N   UNL     1     -42.457 -53.319  15.585  1.00  0.00    -0.197 NA
HETATM    7  C   UNL     1     -42.927 -52.032  14.977  1.00  0.00     0.108 C 
HETATM    8  C   UNL     1     -42.147 -51.689  13.718  1.00  0.00     0.016 C 
HETATM    9  C   UNL     1     -42.194 -52.833  12.714  1.00  0.00     0.007 C 
HETATM   10  C   UNL     1     -41.721 -54.148  13.340  1.00  0.00    -0.004 C 
HETATM   11  C   UNL     1     -40.213 -54.143  13.608  1.00  0.00     0.011 C 
HETATM   12  C   UNL     1     -42.529 -54.451  14.610  1.00  0.00     0.112 C 
ENDBRANCH   3   6
ENDBRANCH   1   3
BRANCH   1  13
HETATM   13  C   UNL     1     -45.729 -52.576  17.610  1.00  0.00     0.111 C 
BRANCH  13  14
HETATM   14  C   UNL     1     -46.898 -52.207  16.699  1.00  0.00     0.072 C 
BRANCH  14  15
HETATM   15  C   UNL     1     -46.550 -52.403  15.246  1.00  0.00     0.010 A 
HETATM   16  C   UNL     1     -46.607 -51.323  14.362  1.00  0.00     0.025 A 
HETATM   17  C   UNL     1     -46.275 -51.526  13.029  1.00  0.00     0.003 A 
HETATM   18  C   UNL     1     -45.892 -52.794  12.612  1.00  0.00     0.017 A 
HETATM   19  C   UNL     1     -45.856 -53.808  13.553  1.00  0.00     0.088 A 
HETATM   20  N   UNL     1     -46.177 -53.645  14.854  1.00  0.00    -0.369 N 
ATOM     21  HN  UNL     1     -46.140 -54.422  15.514  1.00  0.00     0.165 HD
ENDBRANCH  14  15
ENDBRANCH  13  14
ENDBRANCH   1  13
TORSDOF 5
ENDMDL
MODEL 7
REMARK VINA RESULT:      -5.4      4.185      5.089
REMARK  5 active torsions:
REMARK  status: ('A' for Active; 'I' for Inactive)
REMARK    1  A    between atoms: N_6  and  S_8 
REMARK    2  A    between atoms: S_8  and  N_11 
REMARK    3  A    between atoms: N_11  and  C_12 
REMARK    4  A    between atoms: C_12  and  C_13 
REMARK    5  A    between atoms: C_13  and  C_14 
ROOT
HETATM    1  N   UNL     1     -42.480 -54.079  13.079  1.00  0.00    -0.206 NA
HETATM    2  H   UNL     1     -43.011 -54.686  12.452  1.00  0.00     0.140 HD
ENDROOT
BRANCH   1   3
HETATM    3  S   UNL     1     -43.213 -54.183  14.586  1.00  0.00     0.280 S 
HETATM    4  O   UNL     1     -42.241 -53.743  15.556  1.00  0.00    -0.194 OA
HETATM    5  O   UNL     1     -43.893 -55.448  14.708  1.00  0.00    -0.194 OA
BRANCH   3   6
HETATM    6  N   UNL     1     -44.405 -52.979  14.426  1.00  0.00    -0.197 NA
HETATM    7  C   UNL     1     -44.453 -52.159  15.680  1.00  0.00     0.108 C 
HETATM    8  C   UNL     1     -45.462 -51.026  15.569  1.00  0.00     0.016 C 
HETATM    9  C   UNL     1     -46.840 -51.554  15.192  1.00  0.00     0.007 C 
HETATM   10  C   UNL     1     -46.786 -52.398  13.916  1.00  0.00    -0.004 C 
HETATM   11  C   UNL     1     -46.523 -51.542  12.674  1.00  0.00     0.011 C 
HETATM   12  C   UNL     1     -45.752 -53.523  14.068  1.00  0.00     0.112 C 
ENDBRANCH   3   6
ENDBRANCH   1   3
BRANCH   1  13
HETATM   13  C   UNL     1     -42.412 -52.704  12.489  1.00  0.00     0.111 C 
BRANCH  13  14
HETATM   14  C   UNL     1     -41.078 -52.392  11.813  1.00  0.00     0.072 C 
BRANCH  14  15
HETATM   15  C   UNL     1     -40.065 -51.874  12.800  1.00  0.00     0.010 A 
HETATM   16  C   UNL     1     -39.305 -50.743  12.494  1.00  0.00     0.025 A 
HETATM   17  C   UNL     1     -38.382 -50.281  13.423  1.00  0.00     0.003 A 
HETATM   18  C   UNL     1     -38.243 -50.951  14.631  1.00  0.00     0.017 A 
HETATM   19  C   UNL     1     -39.038 -52.061  14.859  1.00  0.00     0.088 A 
HETATM   20  N   UNL     1     -39.941 -52.538  13.975  1.00  0.00    -0.369 N 
ATOM     21  HN  UNL     1     -40.504 -53.363  14.181  1.00  0.00     0.165 HD
ENDBRANCH  14  15
ENDBRANCH  13  14
ENDBRANCH   1  13
TORSDOF 5
ENDMDL
MODEL 8
REMARK VINA RESULT:      -5.4      1.431      5.933
REMARK  5 active torsions:
REMARK  status: ('A' for Active; 'I' for Inactive)
REMARK    1  A    between atoms: N_6  and  S_8 
REMARK    2  A    between atoms: S_8  and  N_11 
REMARK    3  A    between atoms: N_11  and  C_12 
REMARK    4  A    between atoms: C_12  and  C_13 
REMARK    5  A    between atoms: C_13  and  C_14 
ROOT
HETATM    1  N   UNL     1     -41.961 -50.976  11.748  1.00  0.00    -0.206 NA
HETATM    2  H   UNL     1     -42.075 -50.833  10.744  1.00  0.00     0.140 HD
ENDROOT
BRANCH   1   3
HETATM    3  S   UNL     1     -41.025 -49.703  12.315  1.00  0.00     0.280 S 
HETATM    4  O   UNL     1     -39.653 -50.021  12.006  1.00  0.00    -0.194 OA
HETATM    5  O   UNL     1     -41.443 -49.349  13.648  1.00  0.00    -0.194 OA
BRANCH   3   6
HETATM    6  N   UNL     1     -41.542 -48.460  11.274  1.00  0.00    -0.197 NA
HETATM    7  C   UNL     1     -40.729 -47.227  11.530  1.00  0.00     0.108 C 
HETATM    8  C   UNL     1     -41.109 -46.100  10.583  1.00  0.00     0.016 C 
HETATM    9  C   UNL     1     -42.603 -45.809  10.647  1.00  0.00     0.007 C 
HETATM   10  C   UNL     1     -43.430 -47.072  10.393  1.00  0.00    -0.004 C 
HETATM   11  C   UNL     1     -43.349 -47.525   8.933  1.00  0.00     0.011 C 
HETATM   12  C   UNL     1     -43.010 -48.185  11.364  1.00  0.00     0.112 C 
ENDBRANCH   3   6
ENDBRANCH   1   3
BRANCH   1  13
HETATM   13  C   UNL     1     -41.400 -52.345  11.987  1.00  0.00     0.111 C 
BRANCH  13  14
HETATM   14  C   UNL     1     -42.256 -53.205  12.915  1.00  0.00     0.072 C 
BRANCH  14  15
HETATM   15  C   UNL     1     -43.614 -52.593  13.141  1.00  0.00     0.010 A 
HETATM   16  C   UNL     1     -44.732 -53.109  12.483  1.00  0.00     0.025 A 
HETATM   17  C   UNL     1     -45.974 -52.533  12.713  1.00  0.00     0.003 A 
HETATM   18  C   UNL     1     -46.072 -51.463  13.594  1.00  0.00     0.017 A 
HETATM   19  C   UNL     1     -44.916 -51.016  14.210  1.00  0.00     0.088 A 
HETATM   20  N   UNL     1     -43.694 -51.551  14.003  1.00  0.00    -0.369 N 
ATOM     21  HN  UNL     1     -42.867 -51.187  14.476  1.00  0.00     0.165 HD
ENDBRANCH  14  15
ENDBRANCH  13  14
ENDBRANCH   1  13
TORSDOF 5
ENDMDL
MODEL 9
REMARK VINA RESULT:      -5.3      3.244      6.467
REMARK  5 active torsions:
REMARK  status: ('A' for Active; 'I' for Inactive)
REMARK    1  A    between atoms: N_6  and  S_8 
REMARK    2  A    between atoms: S_8  and  N_11 
REMARK    3  A    between atoms: N_11  and  C_12 
REMARK    4  A    between atoms: C_12  and  C_13 
REMARK    5  A    between atoms: C_13  and  C_14 
ROOT
HETATM    1  N   UNL     1     -41.853 -52.451  14.270  1.00  0.00    -0.206 NA
HETATM    2  H   UNL     1     -42.629 -51.810  14.095  1.00  0.00     0.140 HD
ENDROOT
BRANCH   1   3
HETATM    3  S   UNL     1     -40.963 -52.531  12.848  1.00  0.00     0.280 S 
HETATM    4  O   UNL     1     -41.882 -52.284  11.764  1.00  0.00    -0.194 OA
HETATM    5  O   UNL     1     -40.110 -53.692  12.875  1.00  0.00    -0.194 OA
BRANCH   3   6
HETATM    6  N   UNL     1     -39.968 -51.164  13.037  1.00  0.00    -0.197 NA
HETATM    7  C   UNL     1     -40.036 -50.324  11.797  1.00  0.00     0.108 C 
HETATM    8  C   UNL     1     -39.210 -49.055  11.935  1.00  0.00     0.016 C 
HETATM    9  C   UNL     1     -37.771 -49.376  12.316  1.00  0.00     0.007 C 
HETATM   10  C   UNL     1     -37.704 -50.240  13.578  1.00  0.00    -0.004 C 
HETATM   11  C   UNL     1     -38.102 -49.455  14.831  1.00  0.00     0.011 C 
HETATM   12  C   UNL     1     -38.557 -51.505  13.398  1.00  0.00     0.112 C 
ENDBRANCH   3   6
ENDBRANCH   1   3
BRANCH   1  13
HETATM   13  C   UNL     1     -42.397 -53.757  14.764  1.00  0.00     0.111 C 
BRANCH  13  14
HETATM   14  C   UNL     1     -43.585 -54.272  13.953  1.00  0.00     0.072 C 
BRANCH  14  15
HETATM   15  C   UNL     1     -44.713 -53.274  13.927  1.00  0.00     0.010 A 
HETATM   16  C   UNL     1     -45.686 -53.292  14.929  1.00  0.00     0.025 A 
HETATM   17  C   UNL     1     -46.713 -52.358  14.888  1.00  0.00     0.003 A 
HETATM   18  C   UNL     1     -46.741 -51.428  13.856  1.00  0.00     0.017 A 
HETATM   19  C   UNL     1     -45.735 -51.474  12.907  1.00  0.00     0.088 A 
HETATM   20  N   UNL     1     -44.727 -52.373  12.916  1.00  0.00    -0.369 N 
ATOM     21  HN  UNL     1     -44.008 -52.373  12.193  1.00  0.00     0.165 HD
ENDBRANCH  14  15
ENDBRANCH  13  14
ENDBRANCH   1  13
TORSDOF 5
ENDMDL
