MODEL 1
REMARK VINA RESULT:      -5.3      0.000      0.000
REMARK  4 active torsions:
REMARK  status: ('A' for Active; 'I' for Inactive)
REMARK    1  A    between atoms: C_2  and  N_3 
REMARK       I    between atoms: N_3  and  C_4 
REMARK    2  A    between atoms: C_4  and  C_6 
REMARK    3  A    between atoms: C_6  and  C_7 
REMARK    4  A    between atoms: C_10  and  N_13 
ROOT
HETATM    1  C   UNL     1     -40.922 -50.681  11.902  1.00  0.00     0.026 A 
HETATM    2  C   UNL     1     -40.088 -51.573  12.548  1.00  0.00     0.078 A 
HETATM    3  S   UNL     1     -40.997 -52.901  13.135  1.00  0.00    -0.064 SA
HETATM    4  C   UNL     1     -42.436 -52.172  12.550  1.00  0.00     0.155 A 
HETATM    5  N   UNL     1     -42.259 -51.050  11.894  1.00  0.00    -0.339 N 
ATOM      6  HN  UNL     1     -43.003 -50.521  11.438  1.00  0.00     0.168 HD
ENDROOT
BRANCH   1   7
HETATM    7  C   UNL     1     -40.539 -49.383  11.268  1.00  0.00     0.160 C 
BRANCH   7   8
HETATM    8  C   UNL     1     -41.719 -48.480  10.948  1.00  0.00     0.223 C 
HETATM    9  N   UNL     1     -41.957 -48.249   9.613  1.00  0.00    -0.361 N 
HETATM   10  H   UNL     1     -41.384 -48.750   8.932  1.00  0.00     0.162 HD
HETATM   11  O   UNL     1     -42.444 -48.042  11.841  1.00  0.00    -0.273 OA
BRANCH   9  12
HETATM   12  C   UNL     1     -43.075 -47.461   9.142  1.00  0.00     0.118 C 
HETATM   13  C   UNL     1     -43.493 -47.868   7.742  1.00  0.00     0.026 C 
ENDBRANCH   9  12
ENDBRANCH   7   8
ENDBRANCH   1   7
BRANCH   4  14
HETATM   14  N   UNL     1     -43.636 -52.783  12.837  1.00  0.00    -0.278 N 
HETATM   15  C   UNL     1     -43.965 -54.189  12.835  1.00  0.00     0.155 C 
HETATM   16  C   UNL     1     -45.297 -54.261  13.565  1.00  0.00     0.145 C 
HETATM   17  N   UNL     1     -45.773 -52.910  13.545  1.00  0.00    -0.341 N 
HETATM   18  C   UNL     1     -44.744 -52.020  13.229  1.00  0.00     0.324 C 
HETATM   19  H   UNL     1     -46.581 -52.556  14.043  1.00  0.00     0.164 HD
HETATM   20  O   UNL     1     -44.884 -50.814  13.328  1.00  0.00    -0.247 OA
ENDBRANCH   4  14
TORSDOF 4
ENDMDL
MODEL 2
REMARK VINA RESULT:      -5.3      5.214      6.453
REMARK  4 active torsions:
REMARK  status: ('A' for Active; 'I' for Inactive)
REMARK    1  A    between atoms: C_2  and  N_3 
REMARK       I    between atoms: N_3  and  C_4 
REMARK    2  A    between atoms: C_4  and  C_6 
REMARK    3  A    between atoms: C_6  and  C_7 
REMARK    4  A    between atoms: C_10  and  N_13 
ROOT
HETATM    1  C   UNL     1     -40.707 -46.220  10.594  1.00  0.00     0.026 A 
HETATM    2  C   UNL     1     -40.786 -47.425  11.264  1.00  0.00     0.078 A 
HETATM    3  S   UNL     1     -42.295 -48.172  10.947  1.00  0.00    -0.064 SA
HETATM    4  C   UNL     1     -42.761 -46.820   9.998  1.00  0.00     0.155 A 
HETATM    5  N   UNL     1     -41.837 -45.901   9.856  1.00  0.00    -0.339 N 
ATOM      6  HN  UNL     1     -41.935 -45.064   9.281  1.00  0.00     0.168 HD
ENDROOT
BRANCH   1   7
HETATM    7  C   UNL     1     -39.575 -45.245  10.617  1.00  0.00     0.160 C 
BRANCH   7   8
HETATM    8  C   UNL     1     -39.747 -44.123  11.626  1.00  0.00     0.223 C 
HETATM    9  N   UNL     1     -40.353 -42.980  11.160  1.00  0.00    -0.361 N 
HETATM   10  H   UNL     1     -40.712 -42.985  10.204  1.00  0.00     0.162 HD
HETATM   11  O   UNL     1     -39.414 -44.270  12.802  1.00  0.00    -0.273 OA
BRANCH   9  12
HETATM   12  C   UNL     1     -40.642 -41.844  12.009  1.00  0.00     0.118 C 
HETATM   13  C   UNL     1     -41.685 -40.935  11.388  1.00  0.00     0.026 C 
ENDBRANCH   9  12
ENDBRANCH   7   8
ENDBRANCH   1   7
BRANCH   4  14
HETATM   14  N   UNL     1     -44.045 -46.789   9.501  1.00  0.00    -0.278 N 
HETATM   15  C   UNL     1     -44.990 -47.870   9.348  1.00  0.00     0.155 C 
HETATM   16  C   UNL     1     -46.317 -47.173   9.095  1.00  0.00     0.145 C 
HETATM   17  N   UNL     1     -45.941 -45.839   8.734  1.00  0.00    -0.341 N 
HETATM   18  C   UNL     1     -44.617 -45.577   9.091  1.00  0.00     0.324 C 
HETATM   19  H   UNL     1     -46.571 -45.056   8.609  1.00  0.00     0.164 HD
HETATM   20  O   UNL     1     -44.146 -44.454   9.037  1.00  0.00    -0.247 OA
ENDBRANCH   4  14
TORSDOF 4
ENDMDL
MODEL 3
REMARK VINA RESULT:      -5.3      2.363      2.960
REMARK  4 active torsions:
REMARK  status: ('A' for Active; 'I' for Inactive)
REMARK    1  A    between atoms: C_2  and  N_3 
REMARK       I    between atoms: N_3  and  C_4 
REMARK    2  A    between atoms: C_4  and  C_6 
REMARK    3  A    between atoms: C_6  and  C_7 
REMARK    4  A    between atoms: C_10  and  N_13 
ROOT
HETATM    1  C   UNL     1     -42.181 -48.605  11.521  1.00  0.00     0.026 A 
HETATM    2  C   UNL     1     -42.662 -48.111  12.718  1.00  0.00     0.078 A 
HETATM    3  S   UNL     1     -42.928 -49.399  13.817  1.00  0.00    -0.064 SA
HETATM    4  C   UNL     1     -42.450 -50.523  12.611  1.00  0.00     0.155 A 
HETATM    5  N   UNL     1     -42.045 -49.985  11.486  1.00  0.00    -0.339 N 
ATOM      6  HN  UNL     1     -41.679 -50.510  10.691  1.00  0.00     0.168 HD
ENDROOT
BRANCH   1   7
HETATM    7  C   UNL     1     -41.842 -47.826  10.292  1.00  0.00     0.160 C 
BRANCH   7   8
HETATM    8  C   UNL     1     -43.021 -47.082   9.688  1.00  0.00     0.223 C 
HETATM    9  N   UNL     1     -44.205 -47.779   9.619  1.00  0.00    -0.361 N 
HETATM   10  H   UNL     1     -44.236 -48.709  10.040  1.00  0.00     0.162 HD
HETATM   11  O   UNL     1     -42.919 -45.904   9.344  1.00  0.00    -0.273 OA
BRANCH   9  12
HETATM   12  C   UNL     1     -45.431 -47.194   9.125  1.00  0.00     0.118 C 
HETATM   13  C   UNL     1     -46.491 -48.249   8.872  1.00  0.00     0.026 C 
ENDBRANCH   9  12
ENDBRANCH   7   8
ENDBRANCH   1   7
BRANCH   4  14
HETATM   14  N   UNL     1     -42.558 -51.865  12.897  1.00  0.00    -0.278 N 
HETATM   15  C   UNL     1     -43.648 -52.579  13.521  1.00  0.00     0.155 C 
HETATM   16  C   UNL     1     -43.344 -54.042  13.241  1.00  0.00     0.145 C 
HETATM   17  N   UNL     1     -41.963 -54.039  12.862  1.00  0.00    -0.341 N 
HETATM   18  C   UNL     1     -41.533 -52.751  12.540  1.00  0.00     0.324 C 
HETATM   19  H   UNL     1     -41.446 -54.827  12.491  1.00  0.00     0.164 HD
HETATM   20  O   UNL     1     -40.448 -52.545  12.026  1.00  0.00    -0.247 OA
ENDBRANCH   4  14
TORSDOF 4
ENDMDL
MODEL 4
REMARK VINA RESULT:      -5.3      5.179      7.745
REMARK  4 active torsions:
REMARK  status: ('A' for Active; 'I' for Inactive)
REMARK    1  A    between atoms: C_2  and  N_3 
REMARK       I    between atoms: N_3  and  C_4 
REMARK    2  A    between atoms: C_4  and  C_6 
REMARK    3  A    between atoms: C_6  and  C_7 
REMARK    4  A    between atoms: C_10  and  N_13 
ROOT
HETATM    1  C   UNL     1     -41.578 -46.601  10.630  1.00  0.00     0.026 A 
HETATM    2  C   UNL     1     -40.245 -46.524  10.983  1.00  0.00     0.078 A 
HETATM    3  S   UNL     1     -39.905 -44.982  11.646  1.00  0.00    -0.064 SA
HETATM    4  C   UNL     1     -41.527 -44.504  11.359  1.00  0.00     0.155 A 
HETATM    5  N   UNL     1     -42.302 -45.444  10.872  1.00  0.00    -0.339 N 
ATOM      6  HN  UNL     1     -43.301 -45.338  10.696  1.00  0.00     0.168 HD
ENDROOT
BRANCH   1   7
HETATM    7  C   UNL     1     -42.280 -47.759   9.997  1.00  0.00     0.160 C 
BRANCH   7   8
HETATM    8  C   UNL     1     -43.526 -47.375   9.218  1.00  0.00     0.223 C 
HETATM    9  N   UNL     1     -44.717 -47.857   9.707  1.00  0.00    -0.361 N 
HETATM   10  H   UNL     1     -44.698 -48.370  10.590  1.00  0.00     0.162 HD
HETATM   11  O   UNL     1     -43.459 -46.624   8.244  1.00  0.00    -0.273 OA
BRANCH   9  12
HETATM   12  C   UNL     1     -45.996 -47.534   9.113  1.00  0.00     0.118 C 
HETATM   13  C   UNL     1     -46.612 -48.738   8.426  1.00  0.00     0.026 C 
ENDBRANCH   9  12
ENDBRANCH   7   8
ENDBRANCH   1   7
BRANCH   4  14
HETATM   14  N   UNL     1     -41.874 -43.197  11.621  1.00  0.00    -0.278 N 
HETATM   15  C   UNL     1     -41.248 -42.250  12.514  1.00  0.00     0.155 C 
HETATM   16  C   UNL     1     -41.842 -40.910  12.111  1.00  0.00     0.145 C 
HETATM   17  N   UNL     1     -43.000 -41.263  11.345  1.00  0.00    -0.341 N 
HETATM   18  C   UNL     1     -42.952 -42.602  10.952  1.00  0.00     0.324 C 
HETATM   19  H   UNL     1     -43.580 -40.625  10.814  1.00  0.00     0.164 HD
HETATM   20  O   UNL     1     -43.743 -43.065  10.149  1.00  0.00    -0.247 OA
ENDBRANCH   4  14
TORSDOF 4
ENDMDL
MODEL 5
REMARK VINA RESULT:      -5.1      2.494      5.475
REMARK  4 active torsions:
REMARK  status: ('A' for Active; 'I' for Inactive)
REMARK    1  A    between atoms: C_2  and  N_3 
REMARK       I    between atoms: N_3  and  C_4 
REMARK    2  A    between atoms: C_4  and  C_6 
REMARK    3  A    between atoms: C_6  and  C_7 
REMARK    4  A    between atoms: C_10  and  N_13 
ROOT
HETATM    1  C   UNL     1     -41.887 -53.087  13.175  1.00  0.00     0.026 A 
HETATM    2  C   UNL     1     -41.058 -53.641  14.130  1.00  0.00     0.078 A 
HETATM    3  S   UNL     1     -39.564 -52.802  14.164  1.00  0.00    -0.064 SA
HETATM    4  C   UNL     1     -40.096 -51.809  12.870  1.00  0.00     0.155 A 
HETATM    5  N   UNL     1     -41.329 -52.025  12.479  1.00  0.00    -0.339 N 
ATOM      6  HN  UNL     1     -41.812 -51.485  11.760  1.00  0.00     0.168 HD
ENDROOT
BRANCH   1   7
HETATM    7  C   UNL     1     -43.266 -53.531  12.807  1.00  0.00     0.160 C 
BRANCH   7   8
HETATM    8  C   UNL     1     -44.333 -52.469  13.011  1.00  0.00     0.223 C 
HETATM    9  N   UNL     1     -45.482 -52.616  12.270  1.00  0.00    -0.361 N 
HETATM   10  H   UNL     1     -45.575 -53.456  11.696  1.00  0.00     0.162 HD
HETATM   11  O   UNL     1     -44.185 -51.573  13.842  1.00  0.00    -0.273 OA
BRANCH   9  12
HETATM   12  C   UNL     1     -46.613 -51.723  12.392  1.00  0.00     0.118 C 
HETATM   13  C   UNL     1     -47.374 -51.605  11.086  1.00  0.00     0.026 C 
ENDBRANCH   9  12
ENDBRANCH   7   8
ENDBRANCH   1   7
BRANCH   4  14
HETATM   14  N   UNL     1     -39.201 -50.910  12.333  1.00  0.00    -0.278 N 
HETATM   15  C   UNL     1     -37.759 -50.907  12.405  1.00  0.00     0.155 C 
HETATM   16  C   UNL     1     -37.336 -49.900  11.347  1.00  0.00     0.145 C 
HETATM   17  N   UNL     1     -38.533 -49.161  11.078  1.00  0.00    -0.341 N 
HETATM   18  C   UNL     1     -39.657 -49.831  11.563  1.00  0.00     0.324 C 
HETATM   19  H   UNL     1     -38.658 -48.481  10.338  1.00  0.00     0.164 HD
HETATM   20  O   UNL     1     -40.788 -49.470  11.291  1.00  0.00    -0.247 OA
ENDBRANCH   4  14
TORSDOF 4
ENDMDL
MODEL 6
REMARK VINA RESULT:      -5.1      3.839      5.137
REMARK  4 active torsions:
REMARK  status: ('A' for Active; 'I' for Inactive)
REMARK    1  A    between atoms: C_2  and  N_3 
REMARK       I    between atoms: N_3  and  C_4 
REMARK    2  A    between atoms: C_4  and  C_6 
REMARK    3  A    between atoms: C_6  and  C_7 
REMARK    4  A    between atoms: C_10  and  N_13 
ROOT
HETATM    1  C   UNL     1     -41.616 -46.328  10.658  1.00  0.00     0.026 A 
HETATM    2  C   UNL     1     -41.134 -45.639  11.754  1.00  0.00     0.078 A 
HETATM    3  S   UNL     1     -39.980 -46.596  12.584  1.00  0.00    -0.064 SA
HETATM    4  C   UNL     1     -40.247 -47.877  11.474  1.00  0.00     0.155 A 
HETATM    5  N   UNL     1     -41.081 -47.598  10.500  1.00  0.00    -0.339 N 
ATOM      6  HN  UNL     1     -41.306 -48.230   9.731  1.00  0.00     0.168 HD
ENDROOT
BRANCH   1   7
HETATM    7  C   UNL     1     -42.650 -45.867   9.683  1.00  0.00     0.160 C 
BRANCH   7   8
HETATM    8  C   UNL     1     -43.501 -46.987   9.109  1.00  0.00     0.223 C 
HETATM    9  N   UNL     1     -44.854 -46.895   9.335  1.00  0.00    -0.361 N 
HETATM   10  H   UNL     1     -45.205 -46.055   9.801  1.00  0.00     0.162 HD
HETATM   11  O   UNL     1     -42.997 -47.882   8.430  1.00  0.00    -0.273 OA
BRANCH   9  12
HETATM   12  C   UNL     1     -45.804 -47.848   8.806  1.00  0.00     0.118 C 
HETATM   13  C   UNL     1     -47.231 -47.457   9.139  1.00  0.00     0.026 C 
ENDBRANCH   9  12
ENDBRANCH   7   8
ENDBRANCH   1   7
BRANCH   4  14
HETATM   14  N   UNL     1     -39.611 -49.076  11.703  1.00  0.00    -0.278 N 
HETATM   15  C   UNL     1     -38.197 -49.353  11.804  1.00  0.00     0.155 C 
HETATM   16  C   UNL     1     -38.133 -50.747  12.407  1.00  0.00     0.145 C 
HETATM   17  N   UNL     1     -39.454 -51.266  12.214  1.00  0.00    -0.341 N 
HETATM   18  C   UNL     1     -40.356 -50.244  11.914  1.00  0.00     0.324 C 
HETATM   19  H   UNL     1     -39.814 -52.131  12.597  1.00  0.00     0.164 HD
HETATM   20  O   UNL     1     -41.558 -50.437  11.884  1.00  0.00    -0.247 OA
ENDBRANCH   4  14
TORSDOF 4
ENDMDL
MODEL 7
REMARK VINA RESULT:      -5.0      2.057      5.856
REMARK  4 active torsions:
REMARK  status: ('A' for Active; 'I' for Inactive)
REMARK    1  A    between atoms: C_2  and  N_3 
REMARK       I    between atoms: N_3  and  C_4 
REMARK    2  A    between atoms: C_4  and  C_6 
REMARK    3  A    between atoms: C_6  and  C_7 
REMARK    4  A    between atoms: C_10  and  N_13 
ROOT
HETATM    1  C   UNL     1     -42.166 -51.408  12.684  1.00  0.00     0.026 A 
HETATM    2  C   UNL     1     -41.770 -51.129  13.977  1.00  0.00     0.078 A 
HETATM    3  S   UNL     1     -41.206 -49.515  14.080  1.00  0.00    -0.064 SA
HETATM    4  C   UNL     1     -41.465 -49.320  12.395  1.00  0.00     0.155 A 
HETATM    5  N   UNL     1     -42.006 -50.354  11.796  1.00  0.00    -0.339 N 
ATOM      6  HN  UNL     1     -42.272 -50.380  10.812  1.00  0.00     0.168 HD
ENDROOT
BRANCH   1   7
HETATM    7  C   UNL     1     -42.697 -52.703  12.160  1.00  0.00     0.160 C 
BRANCH   7   8
HETATM    8  C   UNL     1     -44.163 -52.944  12.477  1.00  0.00     0.223 C 
HETATM    9  N   UNL     1     -44.946 -51.820  12.605  1.00  0.00    -0.361 N 
HETATM   10  H   UNL     1     -44.517 -50.914  12.407  1.00  0.00     0.162 HD
HETATM   11  O   UNL     1     -44.617 -54.086  12.549  1.00  0.00    -0.273 OA
BRANCH   9  12
HETATM   12  C   UNL     1     -46.370 -51.881  12.848  1.00  0.00     0.118 C 
HETATM   13  C   UNL     1     -46.713 -51.465  14.265  1.00  0.00     0.026 C 
ENDBRANCH   9  12
ENDBRANCH   7   8
ENDBRANCH   1   7
BRANCH   4  14
HETATM   14  N   UNL     1     -41.064 -48.140  11.809  1.00  0.00    -0.278 N 
HETATM   15  C   UNL     1     -40.030 -47.221  12.226  1.00  0.00     0.155 C 
HETATM   16  C   UNL     1     -39.821 -46.323  11.018  1.00  0.00     0.145 C 
HETATM   17  N   UNL     1     -40.989 -46.544  10.219  1.00  0.00    -0.341 N 
HETATM   18  C   UNL     1     -41.660 -47.700  10.620  1.00  0.00     0.324 C 
HETATM   19  H   UNL     1     -41.141 -46.199   9.279  1.00  0.00     0.164 HD
HETATM   20  O   UNL     1     -42.576 -48.171   9.969  1.00  0.00    -0.247 OA
ENDBRANCH   4  14
TORSDOF 4
ENDMDL
MODEL 8
REMARK VINA RESULT:      -5.0      1.337      1.494
REMARK  4 active torsions:
REMARK  status: ('A' for Active; 'I' for Inactive)
REMARK    1  A    between atoms: C_2  and  N_3 
REMARK       I    between atoms: N_3  and  C_4 
REMARK    2  A    between atoms: C_4  and  C_6 
REMARK    3  A    between atoms: C_6  and  C_7 
REMARK    4  A    between atoms: C_10  and  N_13 
ROOT
HETATM    1  C   UNL     1     -41.501 -51.844  12.290  1.00  0.00     0.026 A 
HETATM    2  C   UNL     1     -40.780 -52.881  12.849  1.00  0.00     0.078 A 
HETATM    3  S   UNL     1     -41.849 -54.075  13.455  1.00  0.00    -0.064 SA
HETATM    4  C   UNL     1     -43.188 -53.106  12.993  1.00  0.00     0.155 A 
HETATM    5  N   UNL     1     -42.877 -52.000  12.361  1.00  0.00    -0.339 N 
ATOM      6  HN  UNL     1     -43.555 -51.344  11.973  1.00  0.00     0.168 HD
ENDROOT
BRANCH   1   7
HETATM    7  C   UNL     1     -40.959 -50.596  11.671  1.00  0.00     0.160 C 
BRANCH   7   8
HETATM    8  C   UNL     1     -41.895 -49.404  11.764  1.00  0.00     0.223 C 
HETATM    9  N   UNL     1     -42.123 -48.723  10.591  1.00  0.00    -0.361 N 
HETATM   10  H   UNL     1     -41.717 -49.100   9.732  1.00  0.00     0.162 HD
HETATM   11  O   UNL     1     -42.455 -49.117  12.822  1.00  0.00    -0.273 OA
BRANCH   9  12
HETATM   12  C   UNL     1     -43.033 -47.602  10.499  1.00  0.00     0.118 C 
HETATM   13  C   UNL     1     -42.289 -46.281  10.462  1.00  0.00     0.026 C 
ENDBRANCH   9  12
ENDBRANCH   7   8
ENDBRANCH   1   7
BRANCH   4  14
HETATM   14  N   UNL     1     -44.449 -53.535  13.342  1.00  0.00    -0.278 N 
HETATM   15  C   UNL     1     -44.870 -54.830  13.825  1.00  0.00     0.155 C 
HETATM   16  C   UNL     1     -46.271 -54.588  14.364  1.00  0.00     0.145 C 
HETATM   17  N   UNL     1     -46.650 -53.333  13.787  1.00  0.00    -0.341 N 
HETATM   18  C   UNL     1     -45.538 -52.654  13.287  1.00  0.00     0.324 C 
HETATM   19  H   UNL     1     -47.479 -52.798  14.018  1.00  0.00     0.164 HD
HETATM   20  O   UNL     1     -45.605 -51.497  12.913  1.00  0.00    -0.247 OA
ENDBRANCH   4  14
TORSDOF 4
ENDMDL
MODEL 9
REMARK VINA RESULT:      -4.9      1.925      5.909
REMARK  4 active torsions:
REMARK  status: ('A' for Active; 'I' for Inactive)
REMARK    1  A    between atoms: C_2  and  N_3 
REMARK       I    between atoms: N_3  and  C_4 
REMARK    2  A    between atoms: C_4  and  C_6 
REMARK    3  A    between atoms: C_6  and  C_7 
REMARK    4  A    between atoms: C_10  and  N_13 
ROOT
HETATM    1  C   UNL     1     -40.884 -50.992  11.886  1.00  0.00     0.026 A 
HETATM    2  C   UNL     1     -39.596 -50.627  12.226  1.00  0.00     0.078 A 
HETATM    3  S   UNL     1     -39.428 -48.925  12.133  1.00  0.00    -0.064 SA
HETATM    4  C   UNL     1     -41.050 -48.797  11.589  1.00  0.00     0.155 A 
HETATM    5  N   UNL     1     -41.709 -49.930  11.546  1.00  0.00    -0.339 N 
ATOM      6  HN  UNL     1     -42.694 -50.019  11.297  1.00  0.00     0.168 HD
ENDROOT
BRANCH   1   7
HETATM    7  C   UNL     1     -41.442 -52.376  11.816  1.00  0.00     0.160 C 
BRANCH   7   8
HETATM    8  C   UNL     1     -42.773 -52.542  12.529  1.00  0.00     0.223 C 
HETATM    9  N   UNL     1     -43.419 -53.741  12.332  1.00  0.00    -0.361 N 
HETATM   10  H   UNL     1     -42.936 -54.460  11.791  1.00  0.00     0.162 HD
HETATM   11  O   UNL     1     -43.203 -51.669  13.284  1.00  0.00    -0.273 OA
BRANCH   9  12
HETATM   12  C   UNL     1     -44.665 -54.077  12.985  1.00  0.00     0.118 C 
HETATM   13  C   UNL     1     -44.433 -54.879  14.251  1.00  0.00     0.026 C 
ENDBRANCH   9  12
ENDBRANCH   7   8
ENDBRANCH   1   7
BRANCH   4  14
HETATM   14  N   UNL     1     -41.513 -47.555  11.215  1.00  0.00    -0.278 N 
HETATM   15  C   UNL     1     -40.765 -46.355  10.920  1.00  0.00     0.155 C 
HETATM   16  C   UNL     1     -41.774 -45.446  10.238  1.00  0.00     0.145 C 
HETATM   17  N   UNL     1     -43.040 -46.028  10.568  1.00  0.00    -0.341 N 
HETATM   18  C   UNL     1     -42.885 -47.334  11.037  1.00  0.00     0.324 C 
HETATM   19  H   UNL     1     -43.938 -45.756  10.187  1.00  0.00     0.164 HD
HETATM   20  O   UNL     1     -43.838 -48.073  11.208  1.00  0.00    -0.247 OA
ENDBRANCH   4  14
TORSDOF 4
ENDMDL
