MODEL 1
REMARK VINA RESULT:      -6.0      0.000      0.000
REMARK  5 active torsions:
REMARK  status: ('A' for Active; 'I' for Inactive)
REMARK    1  A    between atoms: C_4  and  C_5 
REMARK    2  A    between atoms: C_5  and  C_6 
REMARK    3  A    between atoms: C_6  and  N_7 
REMARK       I    between atoms: N_7  and  C_8 
REMARK       I    between atoms: C_8  and  N_10 
REMARK    4  A    between atoms: C_13  and  C_14 
REMARK    5  A    between atoms: C_14  and  O_15 
ROOT
HETATM    1  N   UNL     1     -41.882 -49.718  11.460  1.00  0.00    -0.343 N 
HETATM    2  C   UNL     1     -41.109 -50.714  12.004  1.00  0.00     0.318 C 
HETATM    3  O   UNL     1     -39.889 -50.734  11.864  1.00  0.00    -0.247 OA
HETATM    4  N   UNL     1     -41.814 -51.682  12.702  1.00  0.00    -0.334 N 
HETATM    5  C   UNL     1     -41.060 -52.691  13.448  1.00  0.00     0.128 C 
HETATM    6  C   UNL     1     -41.562 -54.105  13.155  1.00  0.00     0.027 C 
HETATM    7  C   UNL     1     -43.084 -54.238  13.333  1.00  0.00     0.012 C 
HETATM    8  C   UNL     1     -43.786 -53.156  12.503  1.00  0.00     0.027 C 
HETATM    9  C   UNL     1     -43.270 -51.755  12.820  1.00  0.00     0.128 C 
HETATM   10  H   UNL     1     -42.626 -49.418  12.070  1.00  0.00     0.164 HD
ENDROOT
BRANCH   1  11
HETATM   11  C   UNL     1     -41.253 -48.660  10.685  1.00  0.00     0.129 C 
BRANCH  11  12
HETATM   12  C   UNL     1     -42.116 -47.399  10.661  1.00  0.00     0.061 C 
BRANCH  12  13
HETATM   13  C   UNL     1     -43.319 -47.542   9.800  1.00  0.00    -0.023 A 
HETATM   14  C   UNL     1     -44.646 -47.537  10.177  1.00  0.00     0.118 A 
HETATM   15  N   UNL     1     -45.373 -47.702   9.034  1.00  0.00    -0.308 N 
HETATM   16  C   UNL     1     -46.808 -47.758   8.914  1.00  0.00     0.177 C 
HETATM   17  N   UNL     1     -44.610 -47.819   7.933  1.00  0.00    -0.310 N 
HETATM   18  C   UNL     1     -43.362 -47.719   8.398  1.00  0.00     0.115 A 
ATOM     19  HN  UNL     1     -44.913 -47.953   6.969  1.00  0.00     0.186 HD
ENDBRANCH  12  13
ENDBRANCH  11  12
ENDBRANCH   1  11
BRANCH   7  20
HETATM   20  C   UNL     1     -43.516 -54.180  14.805  1.00  0.00     0.168 C 
BRANCH  20  21
HETATM   21  O   UNL     1     -43.547 -55.485  15.369  1.00  0.00    -0.400 OA
HETATM   22  H   UNL     1     -44.207 -56.003  14.876  1.00  0.00     0.209 HD
ENDBRANCH  20  21
ENDBRANCH   7  20
TORSDOF 5
ENDMDL
MODEL 2
REMARK VINA RESULT:      -6.0      2.334      2.867
REMARK  5 active torsions:
REMARK  status: ('A' for Active; 'I' for Inactive)
REMARK    1  A    between atoms: C_4  and  C_5 
REMARK    2  A    between atoms: C_5  and  C_6 
REMARK    3  A    between atoms: C_6  and  N_7 
REMARK       I    between atoms: N_7  and  C_8 
REMARK       I    between atoms: C_8  and  N_10 
REMARK    4  A    between atoms: C_13  and  C_14 
REMARK    5  A    between atoms: C_14  and  O_15 
ROOT
HETATM    1  N   UNL     1     -43.241 -49.199  14.035  1.00  0.00    -0.343 N 
HETATM    2  C   UNL     1     -43.116 -50.432  13.442  1.00  0.00     0.318 C 
HETATM    3  O   UNL     1     -42.224 -50.673  12.635  1.00  0.00    -0.247 OA
HETATM    4  N   UNL     1     -44.076 -51.358  13.820  1.00  0.00    -0.334 N 
HETATM    5  C   UNL     1     -43.928 -52.741  13.362  1.00  0.00     0.128 C 
HETATM    6  C   UNL     1     -45.225 -53.280  12.761  1.00  0.00     0.027 C 
HETATM    7  C   UNL     1     -46.433 -53.082  13.693  1.00  0.00     0.012 C 
HETATM    8  C   UNL     1     -46.517 -51.606  14.102  1.00  0.00     0.027 C 
HETATM    9  C   UNL     1     -45.211 -51.096  14.704  1.00  0.00     0.128 C 
HETATM   10  H   UNL     1     -43.493 -49.253  15.009  1.00  0.00     0.164 HD
ENDROOT
BRANCH   1  11
HETATM   11  C   UNL     1     -42.304 -48.140  13.696  1.00  0.00     0.129 C 
BRANCH  11  12
HETATM   12  C   UNL     1     -42.947 -47.100  12.779  1.00  0.00     0.061 C 
BRANCH  12  13
HETATM   13  C   UNL     1     -42.807 -47.440  11.338  1.00  0.00    -0.023 A 
HETATM   14  C   UNL     1     -43.733 -47.279  10.328  1.00  0.00     0.118 A 
HETATM   15  N   UNL     1     -43.143 -47.739   9.186  1.00  0.00    -0.308 N 
HETATM   16  C   UNL     1     -43.714 -47.774   7.864  1.00  0.00     0.177 C 
HETATM   17  N   UNL     1     -41.894 -48.195   9.383  1.00  0.00    -0.310 N 
HETATM   18  C   UNL     1     -41.689 -48.011  10.689  1.00  0.00     0.115 A 
ATOM     19  HN  UNL     1     -41.253 -48.590   8.694  1.00  0.00     0.186 HD
ENDBRANCH  12  13
ENDBRANCH  11  12
ENDBRANCH   1  11
BRANCH   7  20
HETATM   20  C   UNL     1     -46.392 -54.001  14.921  1.00  0.00     0.168 C 
BRANCH  20  21
HETATM   21  O   UNL     1     -46.984 -55.259  14.625  1.00  0.00    -0.400 OA
HETATM   22  H   UNL     1     -47.059 -55.329  13.658  1.00  0.00     0.209 HD
ENDBRANCH  20  21
ENDBRANCH   7  20
TORSDOF 5
ENDMDL
MODEL 3
REMARK VINA RESULT:      -5.6      1.772      2.364
REMARK  5 active torsions:
REMARK  status: ('A' for Active; 'I' for Inactive)
REMARK    1  A    between atoms: C_4  and  C_5 
REMARK    2  A    between atoms: C_5  and  C_6 
REMARK    3  A    between atoms: C_6  and  N_7 
REMARK       I    between atoms: N_7  and  C_8 
REMARK       I    between atoms: C_8  and  N_10 
REMARK    4  A    between atoms: C_13  and  C_14 
REMARK    5  A    between atoms: C_14  and  O_15 
ROOT
HETATM    1  N   UNL     1     -41.864 -50.551  11.942  1.00  0.00    -0.343 N 
HETATM    2  C   UNL     1     -41.970 -51.898  12.189  1.00  0.00     0.318 C 
HETATM    3  O   UNL     1     -41.124 -52.695  11.794  1.00  0.00    -0.247 OA
HETATM    4  N   UNL     1     -43.099 -52.272  12.901  1.00  0.00    -0.334 N 
HETATM    5  C   UNL     1     -43.213 -53.663  13.346  1.00  0.00     0.128 C 
HETATM    6  C   UNL     1     -44.578 -54.258  13.000  1.00  0.00     0.027 C 
HETATM    7  C   UNL     1     -45.744 -53.375  13.479  1.00  0.00     0.012 C 
HETATM    8  C   UNL     1     -45.548 -51.950  12.949  1.00  0.00     0.027 C 
HETATM    9  C   UNL     1     -44.181 -51.378  13.314  1.00  0.00     0.128 C 
HETATM   10  H   UNL     1     -42.143 -49.983  12.726  1.00  0.00     0.164 HD
ENDROOT
BRANCH   1  11
HETATM   11  C   UNL     1     -40.732 -50.045  11.183  1.00  0.00     0.129 C 
BRANCH  11  12
HETATM   12  C   UNL     1     -40.569 -48.536  11.366  1.00  0.00     0.061 C 
BRANCH  12  13
HETATM   13  C   UNL     1     -41.779 -47.774  10.958  1.00  0.00    -0.023 A 
HETATM   14  C   UNL     1     -42.426 -47.785   9.739  1.00  0.00     0.118 A 
HETATM   15  N   UNL     1     -43.478 -46.922   9.853  1.00  0.00    -0.308 N 
HETATM   16  C   UNL     1     -44.452 -46.598   8.842  1.00  0.00     0.177 C 
HETATM   17  N   UNL     1     -43.559 -46.343  11.064  1.00  0.00    -0.310 N 
HETATM   18  C   UNL     1     -42.529 -46.863  11.736  1.00  0.00     0.115 A 
ATOM     19  HN  UNL     1     -44.247 -45.666  11.392  1.00  0.00     0.186 HD
ENDBRANCH  12  13
ENDBRANCH  11  12
ENDBRANCH   1  11
BRANCH   7  20
HETATM   20  C   UNL     1     -45.908 -53.387  15.005  1.00  0.00     0.168 C 
BRANCH  20  21
HETATM   21  O   UNL     1     -46.213 -54.697  15.465  1.00  0.00    -0.400 OA
HETATM   22  H   UNL     1     -47.172 -54.739  15.620  1.00  0.00     0.209 HD
ENDBRANCH  20  21
ENDBRANCH   7  20
TORSDOF 5
ENDMDL
MODEL 4
REMARK VINA RESULT:      -5.5      3.910      6.159
REMARK  5 active torsions:
REMARK  status: ('A' for Active; 'I' for Inactive)
REMARK    1  A    between atoms: C_4  and  C_5 
REMARK    2  A    between atoms: C_5  and  C_6 
REMARK    3  A    between atoms: C_6  and  N_7 
REMARK       I    between atoms: N_7  and  C_8 
REMARK       I    between atoms: C_8  and  N_10 
REMARK    4  A    between atoms: C_13  and  C_14 
REMARK    5  A    between atoms: C_14  and  O_15 
ROOT
HETATM    1  N   UNL     1     -42.307 -53.788  15.397  1.00  0.00    -0.343 N 
HETATM    2  C   UNL     1     -43.599 -54.250  15.336  1.00  0.00     0.318 C 
HETATM    3  O   UNL     1     -43.860 -55.393  14.973  1.00  0.00    -0.247 OA
HETATM    4  N   UNL     1     -44.565 -53.325  15.701  1.00  0.00    -0.334 N 
HETATM    5  C   UNL     1     -45.953 -53.777  15.817  1.00  0.00     0.128 C 
HETATM    6  C   UNL     1     -46.915 -52.848  15.077  1.00  0.00     0.027 C 
HETATM    7  C   UNL     1     -46.728 -51.372  15.469  1.00  0.00     0.012 C 
HETATM    8  C   UNL     1     -45.254 -50.988  15.295  1.00  0.00     0.027 C 
HETATM    9  C   UNL     1     -44.317 -51.927  16.050  1.00  0.00     0.128 C 
HETATM   10  H   UNL     1     -42.133 -53.210  16.204  1.00  0.00     0.164 HD
ENDROOT
BRANCH   1  11
HETATM   11  C   UNL     1     -41.211 -54.664  15.014  1.00  0.00     0.129 C 
BRANCH  11  12
HETATM   12  C   UNL     1     -40.012 -53.864  14.507  1.00  0.00     0.061 C 
BRANCH  12  13
HETATM   13  C   UNL     1     -40.349 -52.992  13.351  1.00  0.00    -0.023 A 
HETATM   14  C   UNL     1     -40.087 -51.647  13.189  1.00  0.00     0.118 A 
HETATM   15  N   UNL     1     -40.592 -51.299  11.969  1.00  0.00    -0.308 N 
HETATM   16  C   UNL     1     -40.557 -49.998  11.351  1.00  0.00     0.177 C 
HETATM   17  N   UNL     1     -41.171 -52.326  11.324  1.00  0.00    -0.310 N 
HETATM   18  C   UNL     1     -41.022 -53.355  12.162  1.00  0.00     0.115 A 
ATOM     19  HN  UNL     1     -41.620 -52.321  10.408  1.00  0.00     0.186 HD
ENDBRANCH  12  13
ENDBRANCH  11  12
ENDBRANCH   1  11
BRANCH   7  20
HETATM   20  C   UNL     1     -47.222 -51.069  16.890  1.00  0.00     0.168 C 
BRANCH  20  21
HETATM   21  O   UNL     1     -48.586 -51.444  17.036  1.00  0.00    -0.400 OA
HETATM   22  H   UNL     1     -48.633 -52.114  17.740  1.00  0.00     0.209 HD
ENDBRANCH  20  21
ENDBRANCH   7  20
TORSDOF 5
ENDMDL
MODEL 5
REMARK VINA RESULT:      -5.4      3.439      6.578
REMARK  5 active torsions:
REMARK  status: ('A' for Active; 'I' for Inactive)
REMARK    1  A    between atoms: C_4  and  C_5 
REMARK    2  A    between atoms: C_5  and  C_6 
REMARK    3  A    between atoms: C_6  and  N_7 
REMARK       I    between atoms: N_7  and  C_8 
REMARK       I    between atoms: C_8  and  N_10 
REMARK    4  A    between atoms: C_13  and  C_14 
REMARK    5  A    between atoms: C_14  and  O_15 
ROOT
HETATM    1  N   UNL     1     -44.420 -51.877  12.516  1.00  0.00    -0.343 N 
HETATM    2  C   UNL     1     -43.302 -52.669  12.623  1.00  0.00     0.318 C 
HETATM    3  O   UNL     1     -43.383 -53.877  12.825  1.00  0.00    -0.247 OA
HETATM    4  N   UNL     1     -42.098 -51.994  12.498  1.00  0.00    -0.334 N 
HETATM    5  C   UNL     1     -40.862 -52.778  12.440  1.00  0.00     0.128 C 
HETATM    6  C   UNL     1     -39.804 -52.240  13.402  1.00  0.00     0.027 C 
HETATM    7  C   UNL     1     -39.566 -50.729  13.230  1.00  0.00     0.012 C 
HETATM    8  C   UNL     1     -40.908 -49.993  13.325  1.00  0.00     0.027 C 
HETATM    9  C   UNL     1     -41.943 -50.547  12.350  1.00  0.00     0.128 C 
HETATM   10  H   UNL     1     -44.339 -51.176  11.797  1.00  0.00     0.164 HD
ENDROOT
BRANCH   1  11
HETATM   11  C   UNL     1     -45.739 -52.472  12.655  1.00  0.00     0.129 C 
BRANCH  11  12
HETATM   12  C   UNL     1     -46.646 -51.615  13.537  1.00  0.00     0.061 C 
BRANCH  12  13
HETATM   13  C   UNL     1     -46.627 -52.035  14.963  1.00  0.00    -0.023 A 
HETATM   14  C   UNL     1     -46.001 -53.130  15.522  1.00  0.00     0.118 A 
HETATM   15  N   UNL     1     -46.275 -53.090  16.859  1.00  0.00    -0.308 N 
HETATM   16  C   UNL     1     -45.835 -54.021  17.867  1.00  0.00     0.177 C 
HETATM   17  N   UNL     1     -47.043 -52.044  17.210  1.00  0.00    -0.310 N 
HETATM   18  C   UNL     1     -47.254 -51.402  16.060  1.00  0.00     0.115 A 
ATOM     19  HN  UNL     1     -47.384 -51.799  18.140  1.00  0.00     0.186 HD
ENDBRANCH  12  13
ENDBRANCH  11  12
ENDBRANCH   1  11
BRANCH   7  20
HETATM   20  C   UNL     1     -38.833 -50.389  11.925  1.00  0.00     0.168 C 
BRANCH  20  21
HETATM   21  O   UNL     1     -37.717 -51.251  11.739  1.00  0.00    -0.400 OA
HETATM   22  H   UNL     1     -36.917 -50.752  11.979  1.00  0.00     0.209 HD
ENDBRANCH  20  21
ENDBRANCH   7  20
TORSDOF 5
ENDMDL
MODEL 6
REMARK VINA RESULT:      -5.4      3.319      6.341
REMARK  5 active torsions:
REMARK  status: ('A' for Active; 'I' for Inactive)
REMARK    1  A    between atoms: C_4  and  C_5 
REMARK    2  A    between atoms: C_5  and  C_6 
REMARK    3  A    between atoms: C_6  and  N_7 
REMARK       I    between atoms: N_7  and  C_8 
REMARK       I    between atoms: C_8  and  N_10 
REMARK    4  A    between atoms: C_13  and  C_14 
REMARK    5  A    between atoms: C_14  and  O_15 
ROOT
HETATM    1  N   UNL     1     -41.719 -52.686  12.787  1.00  0.00    -0.343 N 
HETATM    2  C   UNL     1     -40.554 -51.987  12.582  1.00  0.00     0.318 C 
HETATM    3  O   UNL     1     -39.453 -52.506  12.742  1.00  0.00    -0.247 OA
HETATM    4  N   UNL     1     -40.728 -50.667  12.198  1.00  0.00    -0.334 N 
HETATM    5  C   UNL     1     -39.547 -49.895  11.804  1.00  0.00     0.128 C 
HETATM    6  C   UNL     1     -39.500 -48.536  12.503  1.00  0.00     0.027 C 
HETATM    7  C   UNL     1     -40.813 -47.749  12.347  1.00  0.00     0.012 C 
HETATM    8  C   UNL     1     -41.985 -48.628  12.801  1.00  0.00     0.027 C 
HETATM    9  C   UNL     1     -42.011 -49.974  12.083  1.00  0.00     0.128 C 
HETATM   10  H   UNL     1     -42.429 -52.478  12.103  1.00  0.00     0.164 HD
ENDROOT
BRANCH   1  11
HETATM   11  C   UNL     1     -41.660 -54.074  13.216  1.00  0.00     0.129 C 
BRANCH  11  12
HETATM   12  C   UNL     1     -42.616 -54.337  14.380  1.00  0.00     0.061 C 
BRANCH  12  13
HETATM   13  C   UNL     1     -43.970 -53.766  14.153  1.00  0.00    -0.023 A 
HETATM   14  C   UNL     1     -44.523 -52.633  14.713  1.00  0.00     0.118 A 
HETATM   15  N   UNL     1     -45.784 -52.524  14.199  1.00  0.00    -0.308 N 
HETATM   16  C   UNL     1     -46.754 -51.497  14.480  1.00  0.00     0.177 C 
HETATM   17  N   UNL     1     -46.092 -53.514  13.342  1.00  0.00    -0.310 N 
HETATM   18  C   UNL     1     -44.990 -54.266  13.312  1.00  0.00     0.115 A 
ATOM     19  HN  UNL     1     -46.965 -53.656  12.834  1.00  0.00     0.186 HD
ENDBRANCH  12  13
ENDBRANCH  11  12
ENDBRANCH   1  11
BRANCH   7  20
HETATM   20  C   UNL     1     -41.025 -47.226  10.920  1.00  0.00     0.168 C 
BRANCH  20  21
HETATM   21  O   UNL     1     -39.869 -46.536  10.463  1.00  0.00    -0.400 OA
HETATM   22  H   UNL     1     -39.321 -47.173   9.973  1.00  0.00     0.209 HD
ENDBRANCH  20  21
ENDBRANCH   7  20
TORSDOF 5
ENDMDL
MODEL 7
REMARK VINA RESULT:      -5.3      1.749      2.183
REMARK  5 active torsions:
REMARK  status: ('A' for Active; 'I' for Inactive)
REMARK    1  A    between atoms: C_4  and  C_5 
REMARK    2  A    between atoms: C_5  and  C_6 
REMARK    3  A    between atoms: C_6  and  N_7 
REMARK       I    between atoms: N_7  and  C_8 
REMARK       I    between atoms: C_8  and  N_10 
REMARK    4  A    between atoms: C_13  and  C_14 
REMARK    5  A    between atoms: C_14  and  O_15 
ROOT
HETATM    1  N   UNL     1     -42.074 -49.560  11.637  1.00  0.00    -0.343 N 
HETATM    2  C   UNL     1     -41.276 -50.579  12.096  1.00  0.00     0.318 C 
HETATM    3  O   UNL     1     -40.060 -50.576  11.924  1.00  0.00    -0.247 OA
HETATM    4  N   UNL     1     -41.952 -51.599  12.748  1.00  0.00    -0.334 N 
HETATM    5  C   UNL     1     -41.167 -52.645  13.408  1.00  0.00     0.128 C 
HETATM    6  C   UNL     1     -41.662 -54.043  13.036  1.00  0.00     0.027 C 
HETATM    7  C   UNL     1     -43.178 -54.206  13.245  1.00  0.00     0.012 C 
HETATM    8  C   UNL     1     -43.912 -53.083  12.504  1.00  0.00     0.027 C 
HETATM    9  C   UNL     1     -43.404 -51.699  12.898  1.00  0.00     0.128 C 
HETATM   10  H   UNL     1     -42.805 -49.310  12.284  1.00  0.00     0.164 HD
ENDROOT
BRANCH   1  11
HETATM   11  C   UNL     1     -41.477 -48.447  10.917  1.00  0.00     0.129 C 
BRANCH  11  12
HETATM   12  C   UNL     1     -42.374 -47.980   9.771  1.00  0.00     0.061 C 
BRANCH  12  13
HETATM   13  C   UNL     1     -42.803 -46.564   9.917  1.00  0.00    -0.023 A 
HETATM   14  C   UNL     1     -42.272 -45.591  10.738  1.00  0.00     0.118 A 
HETATM   15  N   UNL     1     -43.004 -44.459  10.518  1.00  0.00    -0.308 N 
HETATM   16  C   UNL     1     -42.827 -43.172  11.141  1.00  0.00     0.177 C 
HETATM   17  N   UNL     1     -43.981 -44.629   9.610  1.00  0.00    -0.310 N 
HETATM   18  C   UNL     1     -43.857 -45.906   9.243  1.00  0.00     0.115 A 
ATOM     19  HN  UNL     1     -44.658 -43.942   9.279  1.00  0.00     0.186 HD
ENDBRANCH  12  13
ENDBRANCH  11  12
ENDBRANCH   1  11
BRANCH   7  20
HETATM   20  C   UNL     1     -43.571 -54.249  14.728  1.00  0.00     0.168 C 
BRANCH  20  21
HETATM   21  O   UNL     1     -43.385 -55.556  15.257  1.00  0.00    -0.400 OA
HETATM   22  H   UNL     1     -43.185 -55.464  16.204  1.00  0.00     0.209 HD
ENDBRANCH  20  21
ENDBRANCH   7  20
TORSDOF 5
ENDMDL
MODEL 8
REMARK VINA RESULT:      -5.3      3.763      5.001
REMARK  5 active torsions:
REMARK  status: ('A' for Active; 'I' for Inactive)
REMARK    1  A    between atoms: C_4  and  C_5 
REMARK    2  A    between atoms: C_5  and  C_6 
REMARK    3  A    between atoms: C_6  and  N_7 
REMARK       I    between atoms: N_7  and  C_8 
REMARK       I    between atoms: C_8  and  N_10 
REMARK    4  A    between atoms: C_13  and  C_14 
REMARK    5  A    between atoms: C_14  and  O_15 
ROOT
HETATM    1  N   UNL     1     -40.369 -48.150  11.821  1.00  0.00    -0.343 N 
HETATM    2  C   UNL     1     -39.500 -49.139  12.214  1.00  0.00     0.318 C 
HETATM    3  O   UNL     1     -39.501 -50.248  11.686  1.00  0.00    -0.247 OA
HETATM    4  N   UNL     1     -38.646 -48.787  13.248  1.00  0.00    -0.334 N 
HETATM    5  C   UNL     1     -37.583 -49.721  13.623  1.00  0.00     0.128 C 
HETATM    6  C   UNL     1     -37.539 -49.952  15.133  1.00  0.00     0.027 C 
HETATM    7  C   UNL     1     -37.491 -48.635  15.929  1.00  0.00     0.012 C 
HETATM    8  C   UNL     1     -38.649 -47.734  15.483  1.00  0.00     0.027 C 
HETATM    9  C   UNL     1     -38.665 -47.516  13.973  1.00  0.00     0.128 C 
HETATM   10  H   UNL     1     -39.942 -47.238  11.797  1.00  0.00     0.164 HD
ENDROOT
BRANCH   1  11
HETATM   11  C   UNL     1     -41.328 -48.414  10.761  1.00  0.00     0.129 C 
BRANCH  11  12
HETATM   12  C   UNL     1     -42.022 -47.131  10.307  1.00  0.00     0.061 C 
BRANCH  12  13
HETATM   13  C   UNL     1     -43.275 -47.392   9.550  1.00  0.00    -0.023 A 
HETATM   14  C   UNL     1     -44.571 -47.421  10.026  1.00  0.00     0.118 A 
HETATM   15  N   UNL     1     -45.369 -47.703   8.954  1.00  0.00    -0.308 N 
HETATM   16  C   UNL     1     -46.803 -47.833   8.947  1.00  0.00     0.177 C 
HETATM   17  N   UNL     1     -44.681 -47.865   7.811  1.00  0.00    -0.310 N 
HETATM   18  C   UNL     1     -43.410 -47.673   8.172  1.00  0.00     0.115 A 
ATOM     19  HN  UNL     1     -45.045 -48.083   6.883  1.00  0.00     0.186 HD
ENDBRANCH  12  13
ENDBRANCH  11  12
ENDBRANCH   1  11
BRANCH   7  20
HETATM   20  C   UNL     1     -36.142 -47.915  15.803  1.00  0.00     0.168 C 
BRANCH  20  21
HETATM   21  O   UNL     1     -35.092 -48.725  16.318  1.00  0.00    -0.400 OA
HETATM   22  H   UNL     1     -35.291 -49.648  16.084  1.00  0.00     0.209 HD
ENDBRANCH  20  21
ENDBRANCH   7  20
TORSDOF 5
ENDMDL
MODEL 9
REMARK VINA RESULT:      -5.3      2.926      3.890
REMARK  5 active torsions:
REMARK  status: ('A' for Active; 'I' for Inactive)
REMARK    1  A    between atoms: C_4  and  C_5 
REMARK    2  A    between atoms: C_5  and  C_6 
REMARK    3  A    between atoms: C_6  and  N_7 
REMARK       I    between atoms: N_7  and  C_8 
REMARK       I    between atoms: C_8  and  N_10 
REMARK    4  A    between atoms: C_13  and  C_14 
REMARK    5  A    between atoms: C_14  and  O_15 
ROOT
HETATM    1  N   UNL     1     -41.587 -50.760  13.395  1.00  0.00    -0.343 N 
HETATM    2  C   UNL     1     -42.250 -51.773  12.745  1.00  0.00     0.318 C 
HETATM    3  O   UNL     1     -41.811 -52.274  11.714  1.00  0.00    -0.247 OA
HETATM    4  N   UNL     1     -43.441 -52.162  13.338  1.00  0.00    -0.334 N 
HETATM    5  C   UNL     1     -44.132 -53.338  12.805  1.00  0.00     0.128 C 
HETATM    6  C   UNL     1     -45.616 -53.061  12.565  1.00  0.00     0.027 C 
HETATM    7  C   UNL     1     -46.311 -52.464  13.802  1.00  0.00     0.012 C 
HETATM    8  C   UNL     1     -45.529 -51.232  14.273  1.00  0.00     0.027 C 
HETATM    9  C   UNL     1     -44.053 -51.538  14.511  1.00  0.00     0.128 C 
HETATM   10  H   UNL     1     -41.612 -50.853  14.399  1.00  0.00     0.164 HD
ENDROOT
BRANCH   1  11
HETATM   11  C   UNL     1     -40.337 -50.253  12.852  1.00  0.00     0.129 C 
BRANCH  11  12
HETATM   12  C   UNL     1     -40.063 -48.826  13.326  1.00  0.00     0.061 C 
BRANCH  12  13
HETATM   13  C   UNL     1     -40.238 -47.818  12.248  1.00  0.00    -0.023 A 
HETATM   14  C   UNL     1     -39.745 -46.530  12.194  1.00  0.00     0.118 A 
HETATM   15  N   UNL     1     -40.176 -46.001  11.011  1.00  0.00    -0.308 N 
HETATM   16  C   UNL     1     -39.913 -44.680  10.500  1.00  0.00     0.177 C 
HETATM   17  N   UNL     1     -40.922 -46.856  10.290  1.00  0.00    -0.310 N 
HETATM   18  C   UNL     1     -40.958 -47.960  11.040  1.00  0.00     0.115 A 
ATOM     19  HN  UNL     1     -41.359 -46.698   9.382  1.00  0.00     0.186 HD
ENDBRANCH  12  13
ENDBRANCH  11  12
ENDBRANCH   1  11
BRANCH   7  20
HETATM   20  C   UNL     1     -46.484 -53.484  14.935  1.00  0.00     0.168 C 
BRANCH  20  21
HETATM   21  O   UNL     1     -46.972 -54.719  14.427  1.00  0.00    -0.400 OA
HETATM   22  H   UNL     1     -47.939 -54.719  14.532  1.00  0.00     0.209 HD
ENDBRANCH  20  21
ENDBRANCH   7  20
TORSDOF 5
ENDMDL
