MODEL 1
REMARK VINA RESULT:      -5.8      0.000      0.000
REMARK  7 active torsions:
REMARK  status: ('A' for Active; 'I' for Inactive)
REMARK    1  A    between atoms: C_2  and  N_3 
REMARK    2  A    between atoms: C_6  and  N_9 
REMARK       I    between atoms: N_9  and  C_10 
REMARK    3  A    between atoms: C_10  and  C_12 
REMARK    4  A    between atoms: C_12  and  N_13 
REMARK    5  A    between atoms: N_13  and  C_14 
REMARK    6  A    between atoms: C_14  and  C_15 
REMARK    7  A    between atoms: C_15  and  N_16 
ROOT
HETATM    1  N   UNL     1     -42.431 -50.543  12.319  1.00  0.00    -0.355 N 
HETATM    2  C   UNL     1     -41.687 -49.389  12.444  1.00  0.00     0.246 C 
HETATM    3  O   UNL     1     -41.458 -48.834  13.516  1.00  0.00    -0.272 OA
HETATM    4  H   UNL     1     -42.399 -51.040  11.438  1.00  0.00     0.162 HD
ENDROOT
BRANCH   2   5
HETATM    5  C   UNL     1     -41.110 -48.871  11.121  1.00  0.00     0.371 C 
BRANCH   5   6
HETATM    6  N   UNL     1     -42.161 -48.696  10.099  1.00  0.00     0.093 N 
HETATM    7  H   UNL     1     -42.884 -49.396  10.298  1.00  0.00     0.316 HD
BRANCH   6   8
HETATM    8  C   UNL     1     -42.810 -47.370  10.133  1.00  0.00     0.291 C 
BRANCH   8   9
HETATM    9  C   UNL     1     -43.466 -46.963   8.808  1.00  0.00     0.178 C 
BRANCH   9  10
HETATM   10  N   UNL     1     -44.806 -47.489   8.618  1.00  0.00    -0.302 N 
HETATM   11  C   UNL     1     -45.884 -47.232   9.418  1.00  0.00     0.111 A 
HETATM   12  C   UNL     1     -46.909 -48.012   8.936  1.00  0.00     0.037 A 
HETATM   13  C   UNL     1     -46.344 -48.719   7.861  1.00  0.00     0.108 A 
HETATM   14  N   UNL     1     -45.057 -48.417   7.675  1.00  0.00    -0.310 N 
ATOM     15  HN  UNL     1     -44.414 -48.799   6.982  1.00  0.00     0.186 HD
ENDBRANCH   9  10
ENDBRANCH   8   9
ENDBRANCH   6   8
ENDBRANCH   5   6
ENDBRANCH   2   5
BRANCH   1  16
HETATM   16  C   UNL     1     -42.932 -51.273  13.482  1.00  0.00     0.087 C 
HETATM   17  C   UNL     1     -42.852 -52.790  13.271  1.00  0.00     0.055 C 
HETATM   18  C   UNL     1     -43.945 -53.292  12.325  1.00  0.00     0.274 C 
HETATM   19  N   UNL     1     -45.306 -52.903  12.729  1.00  0.00     0.088 N 
HETATM   20  C   UNL     1     -45.394 -51.440  12.857  1.00  0.00     0.274 C 
HETATM   21  C   UNL     1     -44.362 -50.836  13.814  1.00  0.00     0.055 C 
BRANCH  19  22
HETATM   22  C   UNL     1     -45.799 -53.580  13.939  1.00  0.00     0.268 C 
HETATM   23  C   UNL     1     -45.656 -55.099  13.900  1.00  0.00     0.037 C 
ENDBRANCH  19  22
ENDBRANCH   1  16
TORSDOF 7
ENDMDL
MODEL 2
REMARK VINA RESULT:      -5.4      1.520      1.916
REMARK  7 active torsions:
REMARK  status: ('A' for Active; 'I' for Inactive)
REMARK    1  A    between atoms: C_2  and  N_3 
REMARK    2  A    between atoms: C_6  and  N_9 
REMARK       I    between atoms: N_9  and  C_10 
REMARK    3  A    between atoms: C_10  and  C_12 
REMARK    4  A    between atoms: C_12  and  N_13 
REMARK    5  A    between atoms: N_13  and  C_14 
REMARK    6  A    between atoms: C_14  and  C_15 
REMARK    7  A    between atoms: C_15  and  N_16 
ROOT
HETATM    1  N   UNL     1     -41.364 -51.620  12.803  1.00  0.00    -0.355 N 
HETATM    2  C   UNL     1     -40.220 -50.889  13.046  1.00  0.00     0.246 C 
HETATM    3  O   UNL     1     -39.774 -50.668  14.168  1.00  0.00    -0.272 OA
HETATM    4  H   UNL     1     -41.545 -51.925  11.855  1.00  0.00     0.162 HD
ENDROOT
BRANCH   2   5
HETATM    5  C   UNL     1     -39.504 -50.409  11.777  1.00  0.00     0.371 C 
BRANCH   5   6
HETATM    6  N   UNL     1     -40.460 -49.924  10.762  1.00  0.00     0.093 N 
HETATM    7  H   UNL     1     -41.298 -50.511  10.841  1.00  0.00     0.316 HD
BRANCH   6   8
HETATM    8  C   UNL     1     -40.885 -48.523  10.965  1.00  0.00     0.291 C 
BRANCH   8   9
HETATM    9  C   UNL     1     -42.386 -48.358  11.230  1.00  0.00     0.178 C 
BRANCH   9  10
HETATM   10  N   UNL     1     -43.150 -47.907  10.081  1.00  0.00    -0.302 N 
HETATM   11  C   UNL     1     -44.424 -47.413  10.114  1.00  0.00     0.111 A 
HETATM   12  C   UNL     1     -44.789 -47.214   8.804  1.00  0.00     0.037 A 
HETATM   13  C   UNL     1     -43.678 -47.639   8.055  1.00  0.00     0.108 A 
HETATM   14  N   UNL     1     -42.683 -48.080   8.829  1.00  0.00    -0.310 N 
ATOM     15  HN  UNL     1     -41.782 -48.460   8.541  1.00  0.00     0.186 HD
ENDBRANCH   9  10
ENDBRANCH   8   9
ENDBRANCH   6   8
ENDBRANCH   5   6
ENDBRANCH   2   5
BRANCH   1  16
HETATM   16  C   UNL     1     -42.097 -52.292  13.874  1.00  0.00     0.087 C 
HETATM   17  C   UNL     1     -42.487 -53.721  13.477  1.00  0.00     0.055 C 
HETATM   18  C   UNL     1     -43.659 -53.739  12.492  1.00  0.00     0.274 C 
HETATM   19  N   UNL     1     -44.840 -52.995  12.960  1.00  0.00     0.088 N 
HETATM   20  C   UNL     1     -44.471 -51.606  13.268  1.00  0.00     0.274 C 
HETATM   21  C   UNL     1     -43.327 -51.475  14.277  1.00  0.00     0.055 C 
BRANCH  19  22
HETATM   22  C   UNL     1     -45.551 -53.627  14.084  1.00  0.00     0.268 C 
HETATM   23  C   UNL     1     -45.729 -55.134  13.935  1.00  0.00     0.037 C 
ENDBRANCH  19  22
ENDBRANCH   1  16
TORSDOF 7
ENDMDL
MODEL 3
REMARK VINA RESULT:      -5.3      3.334      4.118
REMARK  7 active torsions:
REMARK  status: ('A' for Active; 'I' for Inactive)
REMARK    1  A    between atoms: C_2  and  N_3 
REMARK    2  A    between atoms: C_6  and  N_9 
REMARK       I    between atoms: N_9  and  C_10 
REMARK    3  A    between atoms: C_10  and  C_12 
REMARK    4  A    between atoms: C_12  and  N_13 
REMARK    5  A    between atoms: N_13  and  C_14 
REMARK    6  A    between atoms: C_14  and  C_15 
REMARK    7  A    between atoms: C_15  and  N_16 
ROOT
HETATM    1  N   UNL     1     -40.878 -51.553  12.950  1.00  0.00    -0.355 N 
HETATM    2  C   UNL     1     -39.556 -51.283  12.664  1.00  0.00     0.246 C 
HETATM    3  O   UNL     1     -38.614 -51.951  13.083  1.00  0.00    -0.272 OA
HETATM    4  H   UNL     1     -41.591 -51.084  12.405  1.00  0.00     0.162 HD
ENDROOT
BRANCH   2   5
HETATM    5  C   UNL     1     -39.352 -50.093  11.718  1.00  0.00     0.371 C 
BRANCH   5   6
HETATM    6  N   UNL     1     -40.432 -50.003  10.715  1.00  0.00     0.093 N 
HETATM    7  H   UNL     1     -41.090 -50.762  10.922  1.00  0.00     0.316 HD
BRANCH   6   8
HETATM    8  C   UNL     1     -41.190 -48.736  10.768  1.00  0.00     0.291 C 
BRANCH   8   9
HETATM    9  C   UNL     1     -40.821 -47.837  11.954  1.00  0.00     0.178 C 
BRANCH   9  10
HETATM   10  N   UNL     1     -40.283 -46.543  11.578  1.00  0.00    -0.302 N 
HETATM   11  C   UNL     1     -40.057 -45.495  12.427  1.00  0.00     0.111 A 
HETATM   12  C   UNL     1     -39.650 -44.447  11.637  1.00  0.00     0.037 A 
HETATM   13  C   UNL     1     -39.683 -44.952  10.327  1.00  0.00     0.108 A 
HETATM   14  N   UNL     1     -40.087 -46.225  10.284  1.00  0.00    -0.310 N 
ATOM     15  HN  UNL     1     -40.217 -46.817   9.464  1.00  0.00     0.186 HD
ENDBRANCH   9  10
ENDBRANCH   8   9
ENDBRANCH   6   8
ENDBRANCH   5   6
ENDBRANCH   2   5
BRANCH   1  16
HETATM   16  C   UNL     1     -41.282 -52.737  13.705  1.00  0.00     0.087 C 
HETATM   17  C   UNL     1     -42.071 -53.719  12.830  1.00  0.00     0.055 C 
HETATM   18  C   UNL     1     -43.501 -53.236  12.578  1.00  0.00     0.274 C 
HETATM   19  N   UNL     1     -44.250 -52.929  13.808  1.00  0.00     0.088 N 
HETATM   20  C   UNL     1     -43.522 -51.931  14.605  1.00  0.00     0.274 C 
HETATM   21  C   UNL     1     -42.085 -52.334  14.945  1.00  0.00     0.055 C 
BRANCH  19  22
HETATM   22  C   UNL     1     -44.606 -54.108  14.614  1.00  0.00     0.268 C 
HETATM   23  C   UNL     1     -45.402 -55.162  13.851  1.00  0.00     0.037 C 
ENDBRANCH  19  22
ENDBRANCH   1  16
TORSDOF 7
ENDMDL
MODEL 4
REMARK VINA RESULT:      -5.3      2.417      6.751
REMARK  7 active torsions:
REMARK  status: ('A' for Active; 'I' for Inactive)
REMARK    1  A    between atoms: C_2  and  N_3 
REMARK    2  A    between atoms: C_6  and  N_9 
REMARK       I    between atoms: N_9  and  C_10 
REMARK    3  A    between atoms: C_10  and  C_12 
REMARK    4  A    between atoms: C_12  and  N_13 
REMARK    5  A    between atoms: N_13  and  C_14 
REMARK    6  A    between atoms: C_14  and  C_15 
REMARK    7  A    between atoms: C_15  and  N_16 
ROOT
HETATM    1  N   UNL     1     -42.290 -49.830  11.794  1.00  0.00    -0.355 N 
HETATM    2  C   UNL     1     -42.268 -50.870  12.699  1.00  0.00     0.246 C 
HETATM    3  O   UNL     1     -42.487 -50.737  13.900  1.00  0.00    -0.272 OA
HETATM    4  H   UNL     1     -42.302 -50.055  10.807  1.00  0.00     0.162 HD
ENDROOT
BRANCH   2   5
HETATM    5  C   UNL     1     -41.997 -52.241  12.069  1.00  0.00     0.371 C 
BRANCH   5   6
HETATM    6  N   UNL     1     -43.228 -53.050  11.973  1.00  0.00     0.093 N 
HETATM    7  H   UNL     1     -43.194 -53.533  11.068  1.00  0.00     0.316 HD
BRANCH   6   8
HETATM    8  C   UNL     1     -43.345 -54.085  13.020  1.00  0.00     0.291 C 
BRANCH   8   9
HETATM    9  C   UNL     1     -44.777 -54.305  13.523  1.00  0.00     0.178 C 
BRANCH   9  10
HETATM   10  N   UNL     1     -45.410 -53.115  14.061  1.00  0.00    -0.302 N 
HETATM   11  C   UNL     1     -46.507 -52.489  13.537  1.00  0.00     0.111 A 
HETATM   12  C   UNL     1     -46.696 -51.358  14.294  1.00  0.00     0.037 A 
HETATM   13  C   UNL     1     -45.651 -51.376  15.233  1.00  0.00     0.108 A 
HETATM   14  N   UNL     1     -44.853 -52.437  15.082  1.00  0.00    -0.310 N 
ATOM     15  HN  UNL     1     -44.018 -52.677  15.616  1.00  0.00     0.186 HD
ENDBRANCH   9  10
ENDBRANCH   8   9
ENDBRANCH   6   8
ENDBRANCH   5   6
ENDBRANCH   2   5
BRANCH   1  16
HETATM   16  C   UNL     1     -42.685 -48.476  12.177  1.00  0.00     0.087 C 
HETATM   17  C   UNL     1     -43.485 -47.787  11.065  1.00  0.00     0.055 C 
HETATM   18  C   UNL     1     -42.586 -47.336   9.912  1.00  0.00     0.274 C 
HETATM   19  N   UNL     1     -41.460 -46.486  10.334  1.00  0.00     0.088 N 
HETATM   20  C   UNL     1     -40.655 -47.185  11.347  1.00  0.00     0.274 C 
HETATM   21  C   UNL     1     -41.456 -47.649  12.566  1.00  0.00     0.055 C 
BRANCH  19  22
HETATM   22  C   UNL     1     -41.849 -45.141  10.787  1.00  0.00     0.268 C 
HETATM   23  C   UNL     1     -40.667 -44.229  11.103  1.00  0.00     0.037 C 
ENDBRANCH  19  22
ENDBRANCH   1  16
TORSDOF 7
ENDMDL
MODEL 5
REMARK VINA RESULT:      -5.2      4.091      6.031
REMARK  7 active torsions:
REMARK  status: ('A' for Active; 'I' for Inactive)
REMARK    1  A    between atoms: C_2  and  N_3 
REMARK    2  A    between atoms: C_6  and  N_9 
REMARK       I    between atoms: N_9  and  C_10 
REMARK    3  A    between atoms: C_10  and  C_12 
REMARK    4  A    between atoms: C_12  and  N_13 
REMARK    5  A    between atoms: N_13  and  C_14 
REMARK    6  A    between atoms: C_14  and  C_15 
REMARK    7  A    between atoms: C_15  and  N_16 
ROOT
HETATM    1  N   UNL     1     -44.479 -53.197  14.347  1.00  0.00    -0.355 N 
HETATM    2  C   UNL     1     -44.084 -53.545  13.072  1.00  0.00     0.246 C 
HETATM    3  O   UNL     1     -44.860 -53.891  12.185  1.00  0.00    -0.272 OA
HETATM    4  H   UNL     1     -43.807 -52.733  14.945  1.00  0.00     0.162 HD
ENDROOT
BRANCH   2   5
HETATM    5  C   UNL     1     -42.576 -53.413  12.827  1.00  0.00     0.371 C 
BRANCH   5   6
HETATM    6  N   UNL     1     -42.276 -52.360  11.836  1.00  0.00     0.093 N 
HETATM    7  H   UNL     1     -43.165 -52.118  11.384  1.00  0.00     0.316 HD
BRANCH   6   8
HETATM    8  C   UNL     1     -41.733 -51.121  12.429  1.00  0.00     0.291 C 
BRANCH   8   9
HETATM    9  C   UNL     1     -40.878 -50.290  11.464  1.00  0.00     0.178 C 
BRANCH   9  10
HETATM   10  N   UNL     1     -39.448 -50.412  11.677  1.00  0.00    -0.302 N 
HETATM   11  C   UNL     1     -38.849 -50.988  12.762  1.00  0.00     0.111 A 
HETATM   12  C   UNL     1     -37.498 -50.790  12.601  1.00  0.00     0.037 A 
HETATM   13  C   UNL     1     -37.384 -50.065  11.403  1.00  0.00     0.108 A 
HETATM   14  N   UNL     1     -38.572 -49.816  10.845  1.00  0.00    -0.310 N 
ATOM     15  HN  UNL     1     -38.770 -49.296   9.990  1.00  0.00     0.186 HD
ENDBRANCH   9  10
ENDBRANCH   8   9
ENDBRANCH   6   8
ENDBRANCH   5   6
ENDBRANCH   2   5
BRANCH   1  16
HETATM   16  C   UNL     1     -45.888 -53.109  14.726  1.00  0.00     0.087 C 
HETATM   17  C   UNL     1     -46.361 -51.651  14.794  1.00  0.00     0.055 C 
HETATM   18  C   UNL     1     -45.848 -50.944  16.050  1.00  0.00     0.274 C 
HETATM   19  N   UNL     1     -46.170 -51.647  17.303  1.00  0.00     0.088 N 
HETATM   20  C   UNL     1     -45.648 -53.021  17.258  1.00  0.00     0.274 C 
HETATM   21  C   UNL     1     -46.132 -53.832  16.053  1.00  0.00     0.055 C 
BRANCH  19  22
HETATM   22  C   UNL     1     -47.597 -51.624  17.663  1.00  0.00     0.268 C 
HETATM   23  C   UNL     1     -48.120 -50.240  18.033  1.00  0.00     0.037 C 
ENDBRANCH  19  22
ENDBRANCH   1  16
TORSDOF 7
ENDMDL
MODEL 6
REMARK VINA RESULT:      -5.1      2.921      7.148
REMARK  7 active torsions:
REMARK  status: ('A' for Active; 'I' for Inactive)
REMARK    1  A    between atoms: C_2  and  N_3 
REMARK    2  A    between atoms: C_6  and  N_9 
REMARK       I    between atoms: N_9  and  C_10 
REMARK    3  A    between atoms: C_10  and  C_12 
REMARK    4  A    between atoms: C_12  and  N_13 
REMARK    5  A    between atoms: N_13  and  C_14 
REMARK    6  A    between atoms: C_14  and  C_15 
REMARK    7  A    between atoms: C_15  and  N_16 
ROOT
HETATM    1  N   UNL     1     -43.653 -50.939  12.782  1.00  0.00    -0.355 N 
HETATM    2  C   UNL     1     -44.763 -51.375  13.475  1.00  0.00     0.246 C 
HETATM    3  O   UNL     1     -45.055 -51.001  14.608  1.00  0.00    -0.272 OA
HETATM    4  H   UNL     1     -43.599 -51.137  11.791  1.00  0.00     0.162 HD
ENDROOT
BRANCH   2   5
HETATM    5  C   UNL     1     -45.652 -52.343  12.684  1.00  0.00     0.371 C 
BRANCH   5   6
HETATM    6  N   UNL     1     -46.030 -53.519  13.492  1.00  0.00     0.093 N 
HETATM    7  H   UNL     1     -46.931 -53.850  13.128  1.00  0.00     0.316 HD
BRANCH   6   8
HETATM    8  C   UNL     1     -45.076 -54.643  13.392  1.00  0.00     0.291 C 
BRANCH   8   9
HETATM    9  C   UNL     1     -44.057 -54.700  14.536  1.00  0.00     0.178 C 
BRANCH   9  10
HETATM   10  N   UNL     1     -42.682 -54.488  14.123  1.00  0.00    -0.302 N 
HETATM   11  C   UNL     1     -41.594 -54.476  14.950  1.00  0.00     0.111 A 
HETATM   12  C   UNL     1     -40.520 -54.138  14.160  1.00  0.00     0.037 A 
HETATM   13  C   UNL     1     -41.066 -53.945  12.880  1.00  0.00     0.108 A 
HETATM   14  N   UNL     1     -42.387 -54.138  12.856  1.00  0.00    -0.310 N 
ATOM     15  HN  UNL     1     -43.023 -54.044  12.065  1.00  0.00     0.186 HD
ENDBRANCH   9  10
ENDBRANCH   8   9
ENDBRANCH   6   8
ENDBRANCH   5   6
ENDBRANCH   2   5
BRANCH   1  16
HETATM   16  C   UNL     1     -42.771 -49.898  13.307  1.00  0.00     0.087 C 
HETATM   17  C   UNL     1     -43.060 -48.538  12.659  1.00  0.00     0.055 C 
HETATM   18  C   UNL     1     -42.514 -48.460  11.232  1.00  0.00     0.274 C 
HETATM   19  N   UNL     1     -41.082 -48.785  11.124  1.00  0.00     0.088 N 
HETATM   20  C   UNL     1     -40.826 -50.122  11.681  1.00  0.00     0.274 C 
HETATM   21  C   UNL     1     -41.304 -50.296  13.125  1.00  0.00     0.055 C 
BRANCH  19  22
HETATM   22  C   UNL     1     -40.183 -47.776  11.709  1.00  0.00     0.268 C 
HETATM   23  C   UNL     1     -40.168 -46.450  10.955  1.00  0.00     0.037 C 
ENDBRANCH  19  22
ENDBRANCH   1  16
TORSDOF 7
ENDMDL
MODEL 7
REMARK VINA RESULT:      -5.0      3.423      4.696
REMARK  7 active torsions:
REMARK  status: ('A' for Active; 'I' for Inactive)
REMARK    1  A    between atoms: C_2  and  N_3 
REMARK    2  A    between atoms: C_6  and  N_9 
REMARK       I    between atoms: N_9  and  C_10 
REMARK    3  A    between atoms: C_10  and  C_12 
REMARK    4  A    between atoms: C_12  and  N_13 
REMARK    5  A    between atoms: N_13  and  C_14 
REMARK    6  A    between atoms: C_14  and  C_15 
REMARK    7  A    between atoms: C_15  and  N_16 
ROOT
HETATM    1  N   UNL     1     -41.391 -51.944  14.020  1.00  0.00    -0.355 N 
HETATM    2  C   UNL     1     -40.235 -52.201  13.313  1.00  0.00     0.246 C 
HETATM    3  O   UNL     1     -40.217 -52.599  12.151  1.00  0.00    -0.272 OA
HETATM    4  H   UNL     1     -41.316 -51.430  14.888  1.00  0.00     0.162 HD
ENDROOT
BRANCH   2   5
HETATM    5  C   UNL     1     -38.948 -51.895  14.088  1.00  0.00     0.371 C 
BRANCH   5   6
HETATM    6  N   UNL     1     -37.814 -51.634  13.179  1.00  0.00     0.093 N 
HETATM    7  H   UNL     1     -38.053 -52.062  12.278  1.00  0.00     0.316 HD
BRANCH   6   8
HETATM    8  C   UNL     1     -37.566 -50.199  12.932  1.00  0.00     0.291 C 
BRANCH   8   9
HETATM    9  C   UNL     1     -38.054 -49.709  11.563  1.00  0.00     0.178 C 
BRANCH   9  10
HETATM   10  N   UNL     1     -39.431 -49.251  11.548  1.00  0.00    -0.302 N 
HETATM   11  C   UNL     1     -39.981 -48.347  12.415  1.00  0.00     0.111 A 
HETATM   12  C   UNL     1     -41.319 -48.290  12.107  1.00  0.00     0.037 A 
HETATM   13  C   UNL     1     -41.484 -49.211  11.059  1.00  0.00     0.108 A 
HETATM   14  N   UNL     1     -40.339 -49.814  10.728  1.00  0.00    -0.310 N 
ATOM     15  HN  UNL     1     -40.186 -50.531  10.019  1.00  0.00     0.186 HD
ENDBRANCH   9  10
ENDBRANCH   8   9
ENDBRANCH   6   8
ENDBRANCH   5   6
ENDBRANCH   2   5
BRANCH   1  16
HETATM   16  C   UNL     1     -42.713 -52.025  13.401  1.00  0.00     0.087 C 
HETATM   17  C   UNL     1     -43.631 -50.897  13.887  1.00  0.00     0.055 C 
HETATM   18  C   UNL     1     -44.141 -51.150  15.307  1.00  0.00     0.274 C 
HETATM   19  N   UNL     1     -44.798 -52.456  15.480  1.00  0.00     0.088 N 
HETATM   20  C   UNL     1     -43.883 -53.536  15.081  1.00  0.00     0.274 C 
HETATM   21  C   UNL     1     -43.341 -53.398  13.656  1.00  0.00     0.055 C 
BRANCH  19  22
HETATM   22  C   UNL     1     -46.100 -52.576  14.806  1.00  0.00     0.268 C 
HETATM   23  C   UNL     1     -47.080 -51.458  15.148  1.00  0.00     0.037 C 
ENDBRANCH  19  22
ENDBRANCH   1  16
TORSDOF 7
ENDMDL
MODEL 8
REMARK VINA RESULT:      -4.9      2.447      3.320
REMARK  7 active torsions:
REMARK  status: ('A' for Active; 'I' for Inactive)
REMARK    1  A    between atoms: C_2  and  N_3 
REMARK    2  A    between atoms: C_6  and  N_9 
REMARK       I    between atoms: N_9  and  C_10 
REMARK    3  A    between atoms: C_10  and  C_12 
REMARK    4  A    between atoms: C_12  and  N_13 
REMARK    5  A    between atoms: N_13  and  C_14 
REMARK    6  A    between atoms: C_14  and  C_15 
REMARK    7  A    between atoms: C_15  and  N_16 
ROOT
HETATM    1  N   UNL     1     -41.381 -50.479  13.331  1.00  0.00    -0.355 N 
HETATM    2  C   UNL     1     -40.288 -50.009  12.633  1.00  0.00     0.246 C 
HETATM    3  O   UNL     1     -40.183 -50.059  11.411  1.00  0.00    -0.272 OA
HETATM    4  H   UNL     1     -41.476 -50.216  14.304  1.00  0.00     0.162 HD
ENDROOT
BRANCH   2   5
HETATM    5  C   UNL     1     -39.217 -49.357  13.515  1.00  0.00     0.371 C 
BRANCH   5   6
HETATM    6  N   UNL     1     -38.834 -48.023  13.012  1.00  0.00     0.093 N 
HETATM    7  H   UNL     1     -38.818 -48.088  11.988  1.00  0.00     0.316 HD
BRANCH   6   8
HETATM    8  C   UNL     1     -39.788 -46.954  13.370  1.00  0.00     0.291 C 
BRANCH   8   9
HETATM    9  C   UNL     1     -40.313 -46.159  12.169  1.00  0.00     0.178 C 
BRANCH   9  10
HETATM   10  N   UNL     1     -41.423 -46.787  11.476  1.00  0.00    -0.302 N 
HETATM   11  C   UNL     1     -42.665 -47.014  12.000  1.00  0.00     0.111 A 
HETATM   12  C   UNL     1     -43.358 -47.718  11.044  1.00  0.00     0.037 A 
HETATM   13  C   UNL     1     -42.443 -47.887   9.991  1.00  0.00     0.108 A 
HETATM   14  N   UNL     1     -41.256 -47.337  10.258  1.00  0.00    -0.310 N 
ATOM     15  HN  UNL     1     -40.418 -47.334   9.676  1.00  0.00     0.186 HD
ENDBRANCH   9  10
ENDBRANCH   8   9
ENDBRANCH   6   8
ENDBRANCH   5   6
ENDBRANCH   2   5
BRANCH   1  16
HETATM   16  C   UNL     1     -42.572 -50.990  12.655  1.00  0.00     0.087 C 
HETATM   17  C   UNL     1     -43.854 -50.594  13.398  1.00  0.00     0.055 C 
HETATM   18  C   UNL     1     -44.059 -51.429  14.665  1.00  0.00     0.274 C 
HETATM   19  N   UNL     1     -44.030 -52.882  14.431  1.00  0.00     0.088 N 
HETATM   20  C   UNL     1     -42.765 -53.263  13.785  1.00  0.00     0.274 C 
HETATM   21  C   UNL     1     -42.480 -52.509  12.483  1.00  0.00     0.055 C 
BRANCH  19  22
HETATM   22  C   UNL     1     -45.192 -53.402  13.692  1.00  0.00     0.268 C 
HETATM   23  C   UNL     1     -45.285 -54.925  13.678  1.00  0.00     0.037 C 
ENDBRANCH  19  22
ENDBRANCH   1  16
TORSDOF 7
ENDMDL
MODEL 9
REMARK VINA RESULT:      -4.8      2.850      3.880
REMARK  7 active torsions:
REMARK  status: ('A' for Active; 'I' for Inactive)
REMARK    1  A    between atoms: C_2  and  N_3 
REMARK    2  A    between atoms: C_6  and  N_9 
REMARK       I    between atoms: N_9  and  C_10 
REMARK    3  A    between atoms: C_10  and  C_12 
REMARK    4  A    between atoms: C_12  and  N_13 
REMARK    5  A    between atoms: N_13  and  C_14 
REMARK    6  A    between atoms: C_14  and  C_15 
REMARK    7  A    between atoms: C_15  and  N_16 
ROOT
HETATM    1  N   UNL     1     -41.662 -51.747  13.465  1.00  0.00    -0.355 N 
HETATM    2  C   UNL     1     -40.564 -52.203  12.766  1.00  0.00     0.246 C 
HETATM    3  O   UNL     1     -40.581 -53.185  12.028  1.00  0.00    -0.272 OA
HETATM    4  H   UNL     1     -41.615 -50.825  13.881  1.00  0.00     0.162 HD
ENDROOT
BRANCH   2   5
HETATM    5  C   UNL     1     -39.309 -51.340  12.941  1.00  0.00     0.371 C 
BRANCH   5   6
HETATM    6  N   UNL     1     -38.944 -50.649  11.688  1.00  0.00     0.093 N 
HETATM    7  H   UNL     1     -39.386 -51.171  10.923  1.00  0.00     0.316 HD
BRANCH   6   8
HETATM    8  C   UNL     1     -39.433 -49.257  11.610  1.00  0.00     0.291 C 
BRANCH   8   9
HETATM    9  C   UNL     1     -40.847 -49.124  11.034  1.00  0.00     0.178 C 
BRANCH   9  10
HETATM   10  N   UNL     1     -41.242 -47.761  10.729  1.00  0.00    -0.302 N 
HETATM   11  C   UNL     1     -42.489 -47.361  10.338  1.00  0.00     0.111 A 
HETATM   12  C   UNL     1     -42.387 -46.019  10.056  1.00  0.00     0.037 A 
HETATM   13  C   UNL     1     -41.036 -45.708  10.286  1.00  0.00     0.108 A 
HETATM   14  N   UNL     1     -40.330 -46.771  10.678  1.00  0.00    -0.310 N 
ATOM     15  HN  UNL     1     -39.334 -46.822  10.889  1.00  0.00     0.186 HD
ENDBRANCH   9  10
ENDBRANCH   8   9
ENDBRANCH   6   8
ENDBRANCH   5   6
ENDBRANCH   2   5
BRANCH   1  16
HETATM   16  C   UNL     1     -42.986 -52.343  13.304  1.00  0.00     0.087 C 
HETATM   17  C   UNL     1     -44.091 -51.280  13.354  1.00  0.00     0.055 C 
HETATM   18  C   UNL     1     -44.345 -50.789  14.781  1.00  0.00     0.274 C 
HETATM   19  N   UNL     1     -44.630 -51.870  15.740  1.00  0.00     0.088 N 
HETATM   20  C   UNL     1     -43.531 -52.846  15.739  1.00  0.00     0.274 C 
HETATM   21  C   UNL     1     -43.217 -53.429  14.359  1.00  0.00     0.055 C 
BRANCH  19  22
HETATM   22  C   UNL     1     -45.934 -52.525  15.548  1.00  0.00     0.268 C 
HETATM   23  C   UNL     1     -47.114 -51.559  15.517  1.00  0.00     0.037 C 
ENDBRANCH  19  22
ENDBRANCH   1  16
TORSDOF 7
ENDMDL
