MODEL 1
REMARK VINA RESULT:      -5.7      0.000      0.000
REMARK  5 active torsions:
REMARK  status: ('A' for Active; 'I' for Inactive)
REMARK    1  A    between atoms: O_2  and  C_3 
REMARK    2  A    between atoms: C_6  and  N_7 
REMARK       I    between atoms: N_7  and  C_8 
REMARK       I    between atoms: C_8  and  N_10 
REMARK    3  A    between atoms: N_10  and  C_11 
REMARK    4  A    between atoms: C_11  and  C_12 
REMARK    5  A    between atoms: C_12  and  N_13 
ROOT
HETATM    1  N   UNL     1     -41.233 -49.056  10.532  1.00  0.00    -0.308 N 
HETATM    2  C   UNL     1     -41.227 -49.895  11.623  1.00  0.00     0.320 C 
HETATM    3  O   UNL     1     -41.547 -49.585  12.763  1.00  0.00    -0.247 OA
HETATM    4  N   UNL     1     -40.826 -51.184  11.320  1.00  0.00    -0.341 N 
HETATM    5  H   UNL     1     -41.054 -49.467   9.629  1.00  0.00     0.170 HD
HETATM    6  H   UNL     1     -41.055 -51.517  10.395  1.00  0.00     0.164 HD
ENDROOT
BRANCH   1   7
HETATM    7  C   UNL     1     -41.554 -47.678  10.576  1.00  0.00     0.051 A 
HETATM    8  C   UNL     1     -40.623 -46.678  10.862  1.00  0.00     0.035 A 
HETATM    9  C   UNL     1     -41.012 -45.342  10.886  1.00  0.00     0.058 A 
HETATM   10  C   UNL     1     -42.332 -45.037  10.615  1.00  0.00     0.141 A 
HETATM   11  N   UNL     1     -43.271 -45.964  10.328  1.00  0.00    -0.345 N 
HETATM   12  C   UNL     1     -42.856 -47.257  10.310  1.00  0.00     0.119 A 
ATOM     13  HN  UNL     1     -44.238 -45.707  10.136  1.00  0.00     0.167 HD
BRANCH  10  14
HETATM   14  O   UNL     1     -42.650 -43.694  10.626  1.00  0.00    -0.341 OA
HETATM   15  C   UNL     1     -41.675 -42.892  11.278  1.00  0.00     0.211 C 
ENDBRANCH  10  14
ENDBRANCH   1   7
BRANCH   4  16
HETATM   16  C   UNL     1     -40.921 -52.132  12.420  1.00  0.00     0.154 C 
BRANCH  16  17
HETATM   17  C   UNL     1     -42.204 -52.972  12.452  1.00  0.00     0.292 C 
BRANCH  17  18
HETATM   18  N   UNL     1     -43.083 -52.645  13.593  1.00  0.00     0.094 N 
HETATM   19  C   UNL     1     -43.525 -53.865  14.307  1.00  0.00     0.298 C 
HETATM   20  C   UNL     1     -44.602 -54.667  13.556  1.00  0.00     0.198 C 
HETATM   21  O   UNL     1     -45.736 -53.855  13.223  1.00  0.00    -0.388 OA
HETATM   22  C   UNL     1     -45.342 -52.701  12.471  1.00  0.00     0.198 C 
HETATM   23  C   UNL     1     -44.297 -51.877  13.235  1.00  0.00     0.298 C 
ENDBRANCH  17  18
ENDBRANCH  16  17
ENDBRANCH   4  16
TORSDOF 5
ENDMDL
MODEL 2
REMARK VINA RESULT:      -5.5      1.513      7.655
REMARK  5 active torsions:
REMARK  status: ('A' for Active; 'I' for Inactive)
REMARK    1  A    between atoms: O_2  and  C_3 
REMARK    2  A    between atoms: C_6  and  N_7 
REMARK       I    between atoms: N_7  and  C_8 
REMARK       I    between atoms: C_8  and  N_10 
REMARK    3  A    between atoms: N_10  and  C_11 
REMARK    4  A    between atoms: C_11  and  C_12 
REMARK    5  A    between atoms: C_12  and  N_13 
ROOT
HETATM    1  N   UNL     1     -42.307 -52.373  11.764  1.00  0.00    -0.308 N 
HETATM    2  C   UNL     1     -41.645 -51.225  12.136  1.00  0.00     0.320 C 
HETATM    3  O   UNL     1     -41.726 -50.676  13.227  1.00  0.00    -0.247 OA
HETATM    4  N   UNL     1     -40.826 -50.719  11.141  1.00  0.00    -0.341 N 
HETATM    5  H   UNL     1     -42.064 -52.783  10.875  1.00  0.00     0.170 HD
HETATM    6  H   UNL     1     -40.408 -51.396  10.520  1.00  0.00     0.164 HD
ENDROOT
BRANCH   1   7
HETATM    7  C   UNL     1     -43.241 -53.064  12.573  1.00  0.00     0.051 A 
HETATM    8  C   UNL     1     -42.885 -54.076  13.467  1.00  0.00     0.035 A 
HETATM    9  C   UNL     1     -43.859 -54.711  14.232  1.00  0.00     0.058 A 
HETATM   10  C   UNL     1     -45.173 -54.311  14.087  1.00  0.00     0.141 A 
HETATM   11  N   UNL     1     -45.570 -53.336  13.241  1.00  0.00    -0.345 N 
HETATM   12  C   UNL     1     -44.593 -52.736  12.513  1.00  0.00     0.119 A 
ATOM     13  HN  UNL     1     -46.549 -53.065  13.155  1.00  0.00     0.167 HD
BRANCH  10  14
HETATM   14  O   UNL     1     -46.088 -54.958  14.893  1.00  0.00    -0.341 OA
HETATM   15  C   UNL     1     -46.452 -54.207  16.043  1.00  0.00     0.211 C 
ENDBRANCH  10  14
ENDBRANCH   1   7
BRANCH   4  16
HETATM   16  C   UNL     1     -40.016 -49.577  11.536  1.00  0.00     0.154 C 
BRANCH  16  17
HETATM   17  C   UNL     1     -40.434 -48.234  10.923  1.00  0.00     0.292 C 
BRANCH  17  18
HETATM   18  N   UNL     1     -41.625 -47.647  11.573  1.00  0.00     0.094 N 
HETATM   19  C   UNL     1     -42.834 -47.799  10.733  1.00  0.00     0.298 C 
HETATM   20  C   UNL     1     -42.876 -46.843   9.527  1.00  0.00     0.198 C 
HETATM   21  O   UNL     1     -42.725 -45.475   9.928  1.00  0.00    -0.388 OA
HETATM   22  C   UNL     1     -41.523 -45.288  10.685  1.00  0.00     0.198 C 
HETATM   23  C   UNL     1     -41.497 -46.212  11.911  1.00  0.00     0.298 C 
ENDBRANCH  17  18
ENDBRANCH  16  17
ENDBRANCH   4  16
TORSDOF 5
ENDMDL
MODEL 3
REMARK VINA RESULT:      -5.4      1.583      2.175
REMARK  5 active torsions:
REMARK  status: ('A' for Active; 'I' for Inactive)
REMARK    1  A    between atoms: O_2  and  C_3 
REMARK    2  A    between atoms: C_6  and  N_7 
REMARK       I    between atoms: N_7  and  C_8 
REMARK       I    between atoms: C_8  and  N_10 
REMARK    3  A    between atoms: N_10  and  C_11 
REMARK    4  A    between atoms: C_11  and  C_12 
REMARK    5  A    between atoms: C_12  and  N_13 
ROOT
HETATM    1  N   UNL     1     -42.128 -49.289  11.025  1.00  0.00    -0.308 N 
HETATM    2  C   UNL     1     -41.952 -49.988  12.197  1.00  0.00     0.320 C 
HETATM    3  O   UNL     1     -41.485 -49.536  13.234  1.00  0.00    -0.247 OA
HETATM    4  N   UNL     1     -42.376 -51.303  12.119  1.00  0.00    -0.341 N 
HETATM    5  H   UNL     1     -42.628 -49.749  10.279  1.00  0.00     0.170 HD
HETATM    6  H   UNL     1     -43.155 -51.485  11.504  1.00  0.00     0.164 HD
ENDROOT
BRANCH   1   7
HETATM    7  C   UNL     1     -41.735 -47.944  10.820  1.00  0.00     0.051 A 
HETATM    8  C   UNL     1     -42.638 -46.899  10.624  1.00  0.00     0.035 A 
HETATM    9  C   UNL     1     -42.178 -45.600  10.431  1.00  0.00     0.058 A 
HETATM   10  C   UNL     1     -40.815 -45.377  10.443  1.00  0.00     0.141 A 
HETATM   11  N   UNL     1     -39.899 -46.351  10.632  1.00  0.00    -0.345 N 
HETATM   12  C   UNL     1     -40.383 -47.606  10.821  1.00  0.00     0.119 A 
ATOM     13  HN  UNL     1     -38.899 -46.155  10.633  1.00  0.00     0.167 HD
BRANCH  10  14
HETATM   14  O   UNL     1     -40.422 -44.065  10.274  1.00  0.00    -0.341 OA
HETATM   15  C   UNL     1     -40.481 -43.303  11.472  1.00  0.00     0.211 C 
ENDBRANCH  10  14
ENDBRANCH   1   7
BRANCH   4  16
HETATM   16  C   UNL     1     -42.319 -52.042  13.371  1.00  0.00     0.154 C 
BRANCH  16  17
HETATM   17  C   UNL     1     -43.657 -52.190  14.107  1.00  0.00     0.292 C 
BRANCH  17  18
HETATM   18  N   UNL     1     -44.778 -52.528  13.206  1.00  0.00     0.094 N 
HETATM   19  C   UNL     1     -45.866 -51.527  13.293  1.00  0.00     0.298 C 
HETATM   20  C   UNL     1     -46.709 -51.637  14.576  1.00  0.00     0.198 C 
HETATM   21  O   UNL     1     -47.241 -52.957  14.753  1.00  0.00    -0.388 OA
HETATM   22  C   UNL     1     -46.198 -53.939  14.743  1.00  0.00     0.198 C 
HETATM   23  C   UNL     1     -45.380 -53.859  13.446  1.00  0.00     0.298 C 
ENDBRANCH  17  18
ENDBRANCH  16  17
ENDBRANCH   4  16
TORSDOF 5
ENDMDL
MODEL 4
REMARK VINA RESULT:      -5.2      2.630      8.115
REMARK  5 active torsions:
REMARK  status: ('A' for Active; 'I' for Inactive)
REMARK    1  A    between atoms: O_2  and  C_3 
REMARK    2  A    between atoms: C_6  and  N_7 
REMARK       I    between atoms: N_7  and  C_8 
REMARK       I    between atoms: C_8  and  N_10 
REMARK    3  A    between atoms: N_10  and  C_11 
REMARK    4  A    between atoms: C_11  and  C_12 
REMARK    5  A    between atoms: C_12  and  N_13 
ROOT
HETATM    1  N   UNL     1     -40.195 -50.746  11.557  1.00  0.00    -0.308 N 
HETATM    2  C   UNL     1     -41.248 -49.867  11.443  1.00  0.00     0.320 C 
HETATM    3  O   UNL     1     -42.224 -49.825  12.179  1.00  0.00    -0.247 OA
HETATM    4  N   UNL     1     -41.108 -48.979  10.390  1.00  0.00    -0.341 N 
HETATM    5  H   UNL     1     -39.400 -50.599  10.953  1.00  0.00     0.170 HD
HETATM    6  H   UNL     1     -40.165 -48.710  10.155  1.00  0.00     0.164 HD
ENDROOT
BRANCH   1   7
HETATM    7  C   UNL     1     -40.110 -51.784  12.515  1.00  0.00     0.051 A 
HETATM    8  C   UNL     1     -39.335 -51.704  13.673  1.00  0.00     0.035 A 
HETATM    9  C   UNL     1     -39.302 -52.765  14.571  1.00  0.00     0.058 A 
HETATM   10  C   UNL     1     -40.056 -53.889  14.290  1.00  0.00     0.141 A 
HETATM   11  N   UNL     1     -40.826 -54.016  13.188  1.00  0.00    -0.345 N 
HETATM   12  C   UNL     1     -40.837 -52.960  12.334  1.00  0.00     0.119 A 
ATOM     13  HN  UNL     1     -41.369 -54.860  13.006  1.00  0.00     0.167 HD
BRANCH  10  14
HETATM   14  O   UNL     1     -40.004 -54.895  15.232  1.00  0.00    -0.341 OA
HETATM   15  C   UNL     1     -38.679 -55.259  15.592  1.00  0.00     0.211 C 
ENDBRANCH  10  14
ENDBRANCH   1   7
BRANCH   4  16
HETATM   16  C   UNL     1     -42.140 -47.957  10.309  1.00  0.00     0.154 C 
BRANCH  16  17
HETATM   17  C   UNL     1     -41.743 -46.579  10.852  1.00  0.00     0.292 C 
BRANCH  17  18
HETATM   18  N   UNL     1     -40.280 -46.397  10.955  1.00  0.00     0.094 N 
HETATM   19  C   UNL     1     -39.835 -46.357  12.367  1.00  0.00     0.298 C 
HETATM   20  C   UNL     1     -40.167 -45.037  13.085  1.00  0.00     0.198 C 
HETATM   21  O   UNL     1     -39.655 -43.901  12.377  1.00  0.00    -0.388 OA
HETATM   22  C   UNL     1     -40.128 -43.879  11.024  1.00  0.00     0.198 C 
HETATM   23  C   UNL     1     -39.762 -45.179  10.293  1.00  0.00     0.298 C 
ENDBRANCH  17  18
ENDBRANCH  16  17
ENDBRANCH   4  16
TORSDOF 5
ENDMDL
MODEL 5
REMARK VINA RESULT:      -5.2      4.493      6.433
REMARK  5 active torsions:
REMARK  status: ('A' for Active; 'I' for Inactive)
REMARK    1  A    between atoms: O_2  and  C_3 
REMARK    2  A    between atoms: C_6  and  N_7 
REMARK       I    between atoms: N_7  and  C_8 
REMARK       I    between atoms: C_8  and  N_10 
REMARK    3  A    between atoms: N_10  and  C_11 
REMARK    4  A    between atoms: C_11  and  C_12 
REMARK    5  A    between atoms: C_12  and  N_13 
ROOT
HETATM    1  N   UNL     1     -42.964 -46.392   9.864  1.00  0.00    -0.308 N 
HETATM    2  C   UNL     1     -41.861 -46.953  10.466  1.00  0.00     0.320 C 
HETATM    3  O   UNL     1     -41.597 -48.148  10.502  1.00  0.00    -0.247 OA
HETATM    4  N   UNL     1     -41.020 -46.019  11.046  1.00  0.00    -0.341 N 
HETATM    5  H   UNL     1     -43.003 -45.386   9.810  1.00  0.00     0.170 HD
HETATM    6  H   UNL     1     -40.979 -45.116  10.597  1.00  0.00     0.164 HD
ENDROOT
BRANCH   1   7
HETATM    7  C   UNL     1     -44.004 -47.125   9.242  1.00  0.00     0.051 A 
HETATM    8  C   UNL     1     -45.265 -47.307   9.811  1.00  0.00     0.035 A 
HETATM    9  C   UNL     1     -46.239 -48.039   9.139  1.00  0.00     0.058 A 
HETATM   10  C   UNL     1     -45.926 -48.571   7.903  1.00  0.00     0.141 A 
HETATM   11  N   UNL     1     -44.724 -48.420   7.306  1.00  0.00    -0.345 N 
HETATM   12  C   UNL     1     -43.798 -47.697   7.988  1.00  0.00     0.119 A 
ATOM     13  HN  UNL     1     -44.523 -48.827   6.393  1.00  0.00     0.167 HD
BRANCH  10  14
HETATM   14  O   UNL     1     -46.942 -49.262   7.274  1.00  0.00    -0.341 OA
HETATM   15  C   UNL     1     -46.542 -49.851   6.044  1.00  0.00     0.211 C 
ENDBRANCH  10  14
ENDBRANCH   1   7
BRANCH   4  16
HETATM   16  C   UNL     1     -39.782 -46.560  11.587  1.00  0.00     0.154 C 
BRANCH  16  17
HETATM   17  C   UNL     1     -39.526 -46.257  13.069  1.00  0.00     0.292 C 
BRANCH  17  18
HETATM   18  N   UNL     1     -39.849 -47.394  13.956  1.00  0.00     0.094 N 
HETATM   19  C   UNL     1     -39.191 -47.258  15.276  1.00  0.00     0.298 C 
HETATM   20  C   UNL     1     -37.681 -47.556  15.249  1.00  0.00     0.198 C 
HETATM   21  O   UNL     1     -37.403 -48.847  14.691  1.00  0.00    -0.388 OA
HETATM   22  C   UNL     1     -37.972 -48.979  13.383  1.00  0.00     0.198 C 
HETATM   23  C   UNL     1     -39.486 -48.722  13.413  1.00  0.00     0.298 C 
ENDBRANCH  17  18
ENDBRANCH  16  17
ENDBRANCH   4  16
TORSDOF 5
ENDMDL
MODEL 6
REMARK VINA RESULT:      -5.1      1.754      8.381
REMARK  5 active torsions:
REMARK  status: ('A' for Active; 'I' for Inactive)
REMARK    1  A    between atoms: O_2  and  C_3 
REMARK    2  A    between atoms: C_6  and  N_7 
REMARK       I    between atoms: N_7  and  C_8 
REMARK       I    between atoms: C_8  and  N_10 
REMARK    3  A    between atoms: N_10  and  C_11 
REMARK    4  A    between atoms: C_11  and  C_12 
REMARK    5  A    between atoms: C_12  and  N_13 
ROOT
HETATM    1  N   UNL     1     -41.883 -51.789  11.757  1.00  0.00    -0.308 N 
HETATM    2  C   UNL     1     -41.466 -50.524  12.105  1.00  0.00     0.320 C 
HETATM    3  O   UNL     1     -41.307 -50.115  13.247  1.00  0.00    -0.247 OA
HETATM    4  N   UNL     1     -41.213 -49.711  11.014  1.00  0.00    -0.341 N 
HETATM    5  H   UNL     1     -41.864 -52.031  10.778  1.00  0.00     0.170 HD
HETATM    6  H   UNL     1     -40.874 -50.172  10.183  1.00  0.00     0.164 HD
ENDROOT
BRANCH   1   7
HETATM    7  C   UNL     1     -42.254 -52.798  12.677  1.00  0.00     0.051 A 
HETATM    8  C   UNL     1     -43.543 -53.326  12.765  1.00  0.00     0.035 A 
HETATM    9  C   UNL     1     -43.834 -54.319  13.695  1.00  0.00     0.058 A 
HETATM   10  C   UNL     1     -42.818 -54.767  14.517  1.00  0.00     0.141 A 
HETATM   11  N   UNL     1     -41.554 -54.294  14.471  1.00  0.00    -0.345 N 
HETATM   12  C   UNL     1     -41.305 -53.328  13.549  1.00  0.00     0.119 A 
ATOM     13  HN  UNL     1     -40.826 -54.644  15.094  1.00  0.00     0.167 HD
BRANCH  10  14
HETATM   14  O   UNL     1     -43.161 -55.772  15.398  1.00  0.00    -0.341 OA
HETATM   15  C   UNL     1     -42.144 -56.056  16.349  1.00  0.00     0.211 C 
ENDBRANCH  10  14
ENDBRANCH   1   7
BRANCH   4  16
HETATM   16  C   UNL     1     -40.655 -48.407  11.336  1.00  0.00     0.154 C 
BRANCH  16  17
HETATM   17  C   UNL     1     -41.664 -47.252  11.369  1.00  0.00     0.292 C 
BRANCH  17  18
HETATM   18  N   UNL     1     -41.230 -46.128  12.226  1.00  0.00     0.094 N 
HETATM   19  C   UNL     1     -42.268 -45.076  12.309  1.00  0.00     0.298 C 
HETATM   20  C   UNL     1     -42.383 -44.216  11.037  1.00  0.00     0.198 C 
HETATM   21  O   UNL     1     -41.123 -43.637  10.671  1.00  0.00    -0.388 OA
HETATM   22  C   UNL     1     -40.117 -44.645  10.516  1.00  0.00     0.198 C 
HETATM   23  C   UNL     1     -39.972 -45.478  11.797  1.00  0.00     0.298 C 
ENDBRANCH  17  18
ENDBRANCH  16  17
ENDBRANCH   4  16
TORSDOF 5
ENDMDL
MODEL 7
REMARK VINA RESULT:      -5.1      4.363      8.324
REMARK  5 active torsions:
REMARK  status: ('A' for Active; 'I' for Inactive)
REMARK    1  A    between atoms: O_2  and  C_3 
REMARK    2  A    between atoms: C_6  and  N_7 
REMARK       I    between atoms: N_7  and  C_8 
REMARK       I    between atoms: C_8  and  N_10 
REMARK    3  A    between atoms: N_10  and  C_11 
REMARK    4  A    between atoms: C_11  and  C_12 
REMARK    5  A    between atoms: C_12  and  N_13 
ROOT
HETATM    1  N   UNL     1     -40.260 -51.980  13.199  1.00  0.00    -0.308 N 
HETATM    2  C   UNL     1     -40.149 -50.642  13.504  1.00  0.00     0.320 C 
HETATM    3  O   UNL     1     -41.072 -49.904  13.820  1.00  0.00    -0.247 OA
HETATM    4  N   UNL     1     -38.849 -50.172  13.439  1.00  0.00    -0.341 N 
HETATM    5  H   UNL     1     -39.405 -52.498  13.065  1.00  0.00     0.170 HD
HETATM    6  H   UNL     1     -38.123 -50.832  13.674  1.00  0.00     0.164 HD
ENDROOT
BRANCH   1   7
HETATM    7  C   UNL     1     -41.479 -52.696  13.143  1.00  0.00     0.051 A 
HETATM    8  C   UNL     1     -41.862 -53.640  14.097  1.00  0.00     0.035 A 
HETATM    9  C   UNL     1     -43.079 -54.306  13.978  1.00  0.00     0.058 A 
HETATM   10  C   UNL     1     -43.890 -54.004  12.901  1.00  0.00     0.141 A 
HETATM   11  N   UNL     1     -43.569 -53.097  11.953  1.00  0.00    -0.345 N 
HETATM   12  C   UNL     1     -42.377 -52.464  12.103  1.00  0.00     0.119 A 
ATOM     13  HN  UNL     1     -44.188 -52.899  11.168  1.00  0.00     0.167 HD
BRANCH  10  14
HETATM   14  O   UNL     1     -45.095 -54.675  12.853  1.00  0.00    -0.341 OA
HETATM   15  C   UNL     1     -45.685 -54.861  14.132  1.00  0.00     0.211 C 
ENDBRANCH  10  14
ENDBRANCH   1   7
BRANCH   4  16
HETATM   16  C   UNL     1     -38.672 -48.794  13.872  1.00  0.00     0.154 C 
BRANCH  16  17
HETATM   17  C   UNL     1     -37.398 -48.519  14.680  1.00  0.00     0.292 C 
BRANCH  17  18
HETATM   18  N   UNL     1     -37.560 -48.785  16.125  1.00  0.00     0.094 N 
HETATM   19  C   UNL     1     -36.935 -47.724  16.947  1.00  0.00     0.298 C 
HETATM   20  C   UNL     1     -35.397 -47.795  16.986  1.00  0.00     0.198 C 
HETATM   21  O   UNL     1     -34.935 -49.084  17.412  1.00  0.00    -0.388 OA
HETATM   22  C   UNL     1     -35.472 -50.125  16.587  1.00  0.00     0.198 C 
HETATM   23  C   UNL     1     -37.007 -50.081  16.578  1.00  0.00     0.298 C 
ENDBRANCH  17  18
ENDBRANCH  16  17
ENDBRANCH   4  16
TORSDOF 5
ENDMDL
MODEL 8
REMARK VINA RESULT:      -5.0      1.836      2.422
REMARK  5 active torsions:
REMARK  status: ('A' for Active; 'I' for Inactive)
REMARK    1  A    between atoms: O_2  and  C_3 
REMARK    2  A    between atoms: C_6  and  N_7 
REMARK       I    between atoms: N_7  and  C_8 
REMARK       I    between atoms: C_8  and  N_10 
REMARK    3  A    between atoms: N_10  and  C_11 
REMARK    4  A    between atoms: C_11  and  C_12 
REMARK    5  A    between atoms: C_12  and  N_13 
ROOT
HETATM    1  N   UNL     1     -40.555 -47.829  10.764  1.00  0.00    -0.308 N 
HETATM    2  C   UNL     1     -39.861 -48.616  11.655  1.00  0.00     0.320 C 
HETATM    3  O   UNL     1     -39.408 -48.247  12.730  1.00  0.00    -0.247 OA
HETATM    4  N   UNL     1     -39.719 -49.926  11.232  1.00  0.00    -0.341 N 
HETATM    5  H   UNL     1     -40.972 -48.286   9.967  1.00  0.00     0.170 HD
HETATM    6  H   UNL     1     -40.469 -50.297  10.668  1.00  0.00     0.164 HD
ENDROOT
BRANCH   1   7
HETATM    7  C   UNL     1     -40.799 -46.444  10.930  1.00  0.00     0.051 A 
HETATM    8  C   UNL     1     -39.893 -45.453  10.551  1.00  0.00     0.035 A 
HETATM    9  C   UNL     1     -40.202 -44.109  10.743  1.00  0.00     0.058 A 
HETATM   10  C   UNL     1     -41.420 -43.789  11.310  1.00  0.00     0.141 A 
HETATM   11  N   UNL     1     -42.333 -44.709  11.690  1.00  0.00    -0.345 N 
HETATM   12  C   UNL     1     -42.000 -46.010  11.485  1.00  0.00     0.119 A 
ATOM     13  HN  UNL     1     -43.223 -44.441  12.109  1.00  0.00     0.167 HD
BRANCH  10  14
HETATM   14  O   UNL     1     -41.680 -42.441  11.449  1.00  0.00    -0.341 OA
HETATM   15  C   UNL     1     -43.015 -42.090  11.115  1.00  0.00     0.211 C 
ENDBRANCH  10  14
ENDBRANCH   1   7
BRANCH   4  16
HETATM   16  C   UNL     1     -39.097 -50.819  12.199  1.00  0.00     0.154 C 
BRANCH  16  17
HETATM   17  C   UNL     1     -40.071 -51.621  13.071  1.00  0.00     0.292 C 
BRANCH  17  18
HETATM   18  N   UNL     1     -40.813 -52.651  12.313  1.00  0.00     0.094 N 
HETATM   19  C   UNL     1     -42.244 -52.296  12.173  1.00  0.00     0.298 C 
HETATM   20  C   UNL     1     -43.061 -52.490  13.463  1.00  0.00     0.198 C 
HETATM   21  O   UNL     1     -42.932 -53.821  13.980  1.00  0.00    -0.388 OA
HETATM   22  C   UNL     1     -41.557 -54.163  14.191  1.00  0.00     0.198 C 
HETATM   23  C   UNL     1     -40.747 -54.010  12.895  1.00  0.00     0.298 C 
ENDBRANCH  17  18
ENDBRANCH  16  17
ENDBRANCH   4  16
TORSDOF 5
ENDMDL
MODEL 9
REMARK VINA RESULT:      -4.9      3.661      4.382
REMARK  5 active torsions:
REMARK  status: ('A' for Active; 'I' for Inactive)
REMARK    1  A    between atoms: O_2  and  C_3 
REMARK    2  A    between atoms: C_6  and  N_7 
REMARK       I    between atoms: N_7  and  C_8 
REMARK       I    between atoms: C_8  and  N_10 
REMARK    3  A    between atoms: N_10  and  C_11 
REMARK    4  A    between atoms: C_11  and  C_12 
REMARK    5  A    between atoms: C_12  and  N_13 
ROOT
HETATM    1  N   UNL     1     -41.363 -50.950  11.866  1.00  0.00    -0.308 N 
HETATM    2  C   UNL     1     -41.973 -52.006  12.503  1.00  0.00     0.320 C 
HETATM    3  O   UNL     1     -41.679 -52.437  13.610  1.00  0.00    -0.247 OA
HETATM    4  N   UNL     1     -43.004 -52.567  11.770  1.00  0.00    -0.341 N 
HETATM    5  H   UNL     1     -41.776 -50.625  11.004  1.00  0.00     0.170 HD
HETATM    6  H   UNL     1     -43.520 -51.938  11.172  1.00  0.00     0.164 HD
ENDROOT
BRANCH   1   7
HETATM    7  C   UNL     1     -40.253 -50.233  12.373  1.00  0.00     0.051 A 
HETATM    8  C   UNL     1     -38.929 -50.536  12.054  1.00  0.00     0.035 A 
HETATM    9  C   UNL     1     -37.887 -49.785  12.591  1.00  0.00     0.058 A 
HETATM   10  C   UNL     1     -38.200 -48.738  13.436  1.00  0.00     0.141 A 
HETATM   11  N   UNL     1     -39.463 -48.400  13.774  1.00  0.00    -0.345 N 
HETATM   12  C   UNL     1     -40.454 -49.152  13.229  1.00  0.00     0.119 A 
ATOM     13  HN  UNL     1     -39.661 -47.623  14.403  1.00  0.00     0.167 HD
BRANCH  10  14
HETATM   14  O   UNL     1     -37.126 -48.014  13.914  1.00  0.00    -0.341 OA
HETATM   15  C   UNL     1     -37.204 -47.750  15.308  1.00  0.00     0.211 C 
ENDBRANCH  10  14
ENDBRANCH   1   7
BRANCH   4  16
HETATM   16  C   UNL     1     -43.752 -53.608  12.458  1.00  0.00     0.154 C 
BRANCH  16  17
HETATM   17  C   UNL     1     -45.198 -53.245  12.822  1.00  0.00     0.292 C 
BRANCH  17  18
HETATM   18  N   UNL     1     -45.528 -53.526  14.234  1.00  0.00     0.094 N 
HETATM   19  C   UNL     1     -46.862 -52.997  14.596  1.00  0.00     0.298 C 
HETATM   20  C   UNL     1     -46.897 -51.468  14.771  1.00  0.00     0.198 C 
HETATM   21  O   UNL     1     -45.916 -51.018  15.715  1.00  0.00    -0.388 OA
HETATM   22  C   UNL     1     -44.604 -51.460  15.348  1.00  0.00     0.198 C 
HETATM   23  C   UNL     1     -44.556 -52.988  15.213  1.00  0.00     0.298 C 
ENDBRANCH  17  18
ENDBRANCH  16  17
ENDBRANCH   4  16
TORSDOF 5
ENDMDL
