MODEL 1
REMARK VINA RESULT:      -5.6      0.000      0.000
REMARK  4 active torsions:
REMARK  status: ('A' for Active; 'I' for Inactive)
REMARK       I    between atoms: N_1  and  C_2 
REMARK    1  A    between atoms: C_2  and  C_4 
REMARK    2  A    between atoms: C_4  and  C_5 
REMARK    3  A    between atoms: C_8  and  N_9 
REMARK       I    between atoms: N_9  and  C_10 
REMARK    4  A    between atoms: C_10  and  C_12 
ROOT
HETATM    1  C   UNL     1     -42.134 -47.358  10.140  1.00  0.00     0.026 A 
HETATM    2  C   UNL     1     -41.190 -46.706  10.918  1.00  0.00     0.078 A 
HETATM    3  S   UNL     1     -40.126 -47.850  11.639  1.00  0.00    -0.064 SA
HETATM    4  C   UNL     1     -41.027 -49.101  10.921  1.00  0.00     0.151 A 
HETATM    5  N   UNL     1     -41.991 -48.734  10.124  1.00  0.00    -0.339 N 
ATOM      6  HN  UNL     1     -42.561 -49.372   9.567  1.00  0.00     0.168 HD
ENDROOT
BRANCH   4   7
HETATM    7  N   UNL     1     -40.658 -50.370  11.263  1.00  0.00    -0.307 N 
HETATM    8  C   UNL     1     -41.457 -51.153  12.074  1.00  0.00     0.227 C 
HETATM    9  O   UNL     1     -42.510 -50.785  12.598  1.00  0.00    -0.273 OA
HETATM   10  H   UNL     1     -39.747 -50.684  10.969  1.00  0.00     0.171 HD
BRANCH   8  11
HETATM   11  C   UNL     1     -40.852 -52.563  12.298  1.00  0.00     0.078 C 
HETATM   12  C   UNL     1     -41.777 -53.645  12.923  1.00  0.00     0.014 C 
HETATM   13  C   UNL     1     -40.542 -54.181  13.669  1.00  0.00     0.002 C 
HETATM   14  C   UNL     1     -39.937 -52.772  13.538  1.00  0.00     0.014 C 
ENDBRANCH   8  11
ENDBRANCH   4   7
BRANCH   1  15
HETATM   15  C   UNL     1     -43.225 -46.723   9.334  1.00  0.00     0.160 C 
BRANCH  15  16
HETATM   16  C   UNL     1     -43.893 -47.588   8.272  1.00  0.00     0.221 C 
HETATM   17  N   UNL     1     -45.245 -47.735   8.287  1.00  0.00    -0.370 N 
HETATM   18  H   UNL     1     -45.643 -48.420   7.660  1.00  0.00     0.159 HD
HETATM   19  H   UNL     1     -45.747 -47.596   9.168  1.00  0.00     0.159 HD
HETATM   20  O   UNL     1     -43.231 -48.132   7.386  1.00  0.00    -0.273 OA
ENDBRANCH  15  16
ENDBRANCH   1  15
TORSDOF 4
ENDMDL
MODEL 2
REMARK VINA RESULT:      -5.5      2.432      2.960
REMARK  4 active torsions:
REMARK  status: ('A' for Active; 'I' for Inactive)
REMARK       I    between atoms: N_1  and  C_2 
REMARK    1  A    between atoms: C_2  and  C_4 
REMARK    2  A    between atoms: C_4  and  C_5 
REMARK    3  A    between atoms: C_8  and  N_9 
REMARK       I    between atoms: N_9  and  C_10 
REMARK    4  A    between atoms: C_10  and  C_12 
ROOT
HETATM    1  C   UNL     1     -43.432 -47.241   9.162  1.00  0.00     0.026 A 
HETATM    2  C   UNL     1     -43.426 -45.962   9.694  1.00  0.00     0.078 A 
HETATM    3  S   UNL     1     -42.018 -45.726  10.655  1.00  0.00    -0.064 SA
HETATM    4  C   UNL     1     -41.568 -47.337  10.341  1.00  0.00     0.151 A 
HETATM    5  N   UNL     1     -42.328 -47.998   9.515  1.00  0.00    -0.339 N 
ATOM      6  HN  UNL     1     -42.137 -48.941   9.176  1.00  0.00     0.168 HD
ENDROOT
BRANCH   4   7
HETATM    7  N   UNL     1     -40.459 -47.781  11.000  1.00  0.00    -0.307 N 
HETATM    8  C   UNL     1     -40.378 -49.077  11.473  1.00  0.00     0.227 C 
HETATM    9  O   UNL     1     -41.281 -49.913  11.404  1.00  0.00    -0.273 OA
HETATM   10  H   UNL     1     -39.736 -47.108  11.200  1.00  0.00     0.171 HD
BRANCH   8  11
HETATM   11  C   UNL     1     -39.016 -49.364  12.155  1.00  0.00     0.078 C 
HETATM   12  C   UNL     1     -37.890 -49.972  11.273  1.00  0.00     0.014 C 
HETATM   13  C   UNL     1     -37.452 -50.788  12.502  1.00  0.00     0.002 C 
HETATM   14  C   UNL     1     -38.894 -50.650  13.022  1.00  0.00     0.014 C 
ENDBRANCH   8  11
ENDBRANCH   4   7
BRANCH   1  15
HETATM   15  C   UNL     1     -44.470 -47.833   8.259  1.00  0.00     0.160 C 
BRANCH  15  16
HETATM   16  C   UNL     1     -45.911 -47.810   8.755  1.00  0.00     0.221 C 
HETATM   17  N   UNL     1     -46.476 -48.958   9.214  1.00  0.00    -0.370 N 
HETATM   18  H   UNL     1     -47.467 -48.943   9.405  1.00  0.00     0.159 HD
HETATM   19  H   UNL     1     -46.099 -49.855   8.895  1.00  0.00     0.159 HD
HETATM   20  O   UNL     1     -46.562 -46.763   8.770  1.00  0.00    -0.273 OA
ENDBRANCH  15  16
ENDBRANCH   1  15
TORSDOF 4
ENDMDL
MODEL 3
REMARK VINA RESULT:      -5.4      3.545      4.703
REMARK  4 active torsions:
REMARK  status: ('A' for Active; 'I' for Inactive)
REMARK       I    between atoms: N_1  and  C_2 
REMARK    1  A    between atoms: C_2  and  C_4 
REMARK    2  A    between atoms: C_4  and  C_5 
REMARK    3  A    between atoms: C_8  and  N_9 
REMARK       I    between atoms: N_9  and  C_10 
REMARK    4  A    between atoms: C_10  and  C_12 
ROOT
HETATM    1  C   UNL     1     -39.778 -49.417  11.946  1.00  0.00     0.026 A 
HETATM    2  C   UNL     1     -40.779 -48.459  11.981  1.00  0.00     0.078 A 
HETATM    3  S   UNL     1     -42.316 -49.215  12.153  1.00  0.00    -0.064 SA
HETATM    4  C   UNL     1     -41.545 -50.730  12.106  1.00  0.00     0.151 A 
HETATM    5  N   UNL     1     -40.243 -50.715  12.064  1.00  0.00    -0.339 N 
ATOM      6  HN  UNL     1     -39.649 -51.543  12.110  1.00  0.00     0.168 HD
ENDROOT
BRANCH   4   7
HETATM    7  N   UNL     1     -42.372 -51.816  12.103  1.00  0.00    -0.307 N 
HETATM    8  C   UNL     1     -42.384 -52.709  13.158  1.00  0.00     0.227 C 
HETATM    9  O   UNL     1     -41.642 -52.654  14.140  1.00  0.00    -0.273 OA
HETATM   10  H   UNL     1     -42.913 -51.986  11.270  1.00  0.00     0.171 HD
BRANCH   8  11
HETATM   11  C   UNL     1     -43.424 -53.840  12.950  1.00  0.00     0.078 C 
HETATM   12  C   UNL     1     -44.919 -53.427  12.857  1.00  0.00     0.014 C 
HETATM   13  C   UNL     1     -45.262 -54.726  13.607  1.00  0.00     0.002 C 
HETATM   14  C   UNL     1     -43.837 -54.684  14.190  1.00  0.00     0.014 C 
ENDBRANCH   8  11
ENDBRANCH   4   7
BRANCH   1  15
HETATM   15  C   UNL     1     -38.306 -49.171  11.825  1.00  0.00     0.160 C 
BRANCH  15  16
HETATM   16  C   UNL     1     -37.465 -50.293  11.227  1.00  0.00     0.221 C 
HETATM   17  N   UNL     1     -37.025 -50.185   9.945  1.00  0.00    -0.370 N 
HETATM   18  H   UNL     1     -36.591 -50.999   9.534  1.00  0.00     0.159 HD
HETATM   19  H   UNL     1     -37.538 -49.581   9.297  1.00  0.00     0.159 HD
HETATM   20  O   UNL     1     -37.156 -51.282  11.896  1.00  0.00    -0.273 OA
ENDBRANCH  15  16
ENDBRANCH   1  15
TORSDOF 4
ENDMDL
MODEL 4
REMARK VINA RESULT:      -5.2      2.031      6.266
REMARK  4 active torsions:
REMARK  status: ('A' for Active; 'I' for Inactive)
REMARK       I    between atoms: N_1  and  C_2 
REMARK    1  A    between atoms: C_2  and  C_4 
REMARK    2  A    between atoms: C_4  and  C_5 
REMARK    3  A    between atoms: C_8  and  N_9 
REMARK       I    between atoms: N_9  and  C_10 
REMARK    4  A    between atoms: C_10  and  C_12 
ROOT
HETATM    1  C   UNL     1     -39.832 -51.192  12.715  1.00  0.00     0.026 A 
HETATM    2  C   UNL     1     -38.749 -50.333  12.814  1.00  0.00     0.078 A 
HETATM    3  S   UNL     1     -39.026 -48.920  11.872  1.00  0.00    -0.064 SA
HETATM    4  C   UNL     1     -40.511 -49.579  11.369  1.00  0.00     0.151 A 
HETATM    5  N   UNL     1     -40.852 -50.714  11.911  1.00  0.00    -0.339 N 
ATOM      6  HN  UNL     1     -41.746 -51.184  11.764  1.00  0.00     0.168 HD
ENDROOT
BRANCH   4   7
HETATM    7  N   UNL     1     -41.194 -48.857  10.434  1.00  0.00    -0.307 N 
HETATM    8  C   UNL     1     -42.415 -48.280  10.726  1.00  0.00     0.227 C 
HETATM    9  O   UNL     1     -43.017 -48.400  11.795  1.00  0.00    -0.273 OA
HETATM   10  H   UNL     1     -40.814 -48.828   9.501  1.00  0.00     0.171 HD
BRANCH   8  11
HETATM   11  C   UNL     1     -42.984 -47.483   9.524  1.00  0.00     0.078 C 
HETATM   12  C   UNL     1     -42.993 -45.933   9.635  1.00  0.00     0.014 C 
HETATM   13  C   UNL     1     -44.328 -45.946   8.869  1.00  0.00     0.002 C 
HETATM   14  C   UNL     1     -44.530 -47.382   9.386  1.00  0.00     0.014 C 
ENDBRANCH   8  11
ENDBRANCH   4   7
BRANCH   1  15
HETATM   15  C   UNL     1     -39.992 -52.517  13.394  1.00  0.00     0.160 C 
BRANCH  15  16
HETATM   16  C   UNL     1     -41.125 -53.412  12.907  1.00  0.00     0.221 C 
HETATM   17  N   UNL     1     -40.831 -54.528  12.189  1.00  0.00    -0.370 N 
HETATM   18  H   UNL     1     -41.602 -55.023  11.765  1.00  0.00     0.159 HD
HETATM   19  H   UNL     1     -39.945 -54.566  11.678  1.00  0.00     0.159 HD
HETATM   20  O   UNL     1     -42.300 -53.154  13.177  1.00  0.00    -0.273 OA
ENDBRANCH  15  16
ENDBRANCH   1  15
TORSDOF 4
ENDMDL
MODEL 5
REMARK VINA RESULT:      -5.1      4.672      5.408
REMARK  4 active torsions:
REMARK  status: ('A' for Active; 'I' for Inactive)
REMARK       I    between atoms: N_1  and  C_2 
REMARK    1  A    between atoms: C_2  and  C_4 
REMARK    2  A    between atoms: C_4  and  C_5 
REMARK    3  A    between atoms: C_8  and  N_9 
REMARK       I    between atoms: N_9  and  C_10 
REMARK    4  A    between atoms: C_10  and  C_12 
ROOT
HETATM    1  C   UNL     1     -38.848 -50.370  13.540  1.00  0.00     0.026 A 
HETATM    2  C   UNL     1     -39.080 -49.987  14.851  1.00  0.00     0.078 A 
HETATM    3  S   UNL     1     -40.185 -51.073  15.599  1.00  0.00    -0.064 SA
HETATM    4  C   UNL     1     -40.311 -51.916  14.127  1.00  0.00     0.151 A 
HETATM    5  N   UNL     1     -39.536 -51.510  13.161  1.00  0.00    -0.339 N 
ATOM      6  HN  UNL     1     -39.449 -51.967  12.253  1.00  0.00     0.168 HD
ENDROOT
BRANCH   4   7
HETATM    7  N   UNL     1     -41.226 -52.929  14.100  1.00  0.00    -0.307 N 
HETATM    8  C   UNL     1     -42.271 -52.925  13.197  1.00  0.00     0.227 C 
HETATM    9  O   UNL     1     -42.512 -52.019  12.396  1.00  0.00    -0.273 OA
HETATM   10  H   UNL     1     -41.157 -53.636  14.814  1.00  0.00     0.171 HD
BRANCH   8  11
HETATM   11  C   UNL     1     -43.159 -54.189  13.329  1.00  0.00     0.078 C 
HETATM   12  C   UNL     1     -44.614 -54.100  12.790  1.00  0.00     0.014 C 
HETATM   13  C   UNL     1     -45.039 -54.998  13.965  1.00  0.00     0.002 C 
HETATM   14  C   UNL     1     -43.797 -54.485  14.716  1.00  0.00     0.014 C 
ENDBRANCH   8  11
ENDBRANCH   4   7
BRANCH   1  15
HETATM   15  C   UNL     1     -37.939 -49.700  12.557  1.00  0.00     0.160 C 
BRANCH  15  16
HETATM   16  C   UNL     1     -37.272 -50.589  11.515  1.00  0.00     0.221 C 
HETATM   17  N   UNL     1     -37.160 -50.146  10.234  1.00  0.00    -0.370 N 
HETATM   18  H   UNL     1     -36.841 -50.807   9.541  1.00  0.00     0.159 HD
HETATM   19  H   UNL     1     -37.816 -49.435   9.900  1.00  0.00     0.159 HD
HETATM   20  O   UNL     1     -36.809 -51.691  11.820  1.00  0.00    -0.273 OA
ENDBRANCH  15  16
ENDBRANCH   1  15
TORSDOF 4
ENDMDL
MODEL 6
REMARK VINA RESULT:      -5.1      3.004      6.080
REMARK  4 active torsions:
REMARK  status: ('A' for Active; 'I' for Inactive)
REMARK       I    between atoms: N_1  and  C_2 
REMARK    1  A    between atoms: C_2  and  C_4 
REMARK    2  A    between atoms: C_4  and  C_5 
REMARK    3  A    between atoms: C_8  and  N_9 
REMARK       I    between atoms: N_9  and  C_10 
REMARK    4  A    between atoms: C_10  and  C_12 
ROOT
HETATM    1  C   UNL     1     -43.216 -53.593  12.955  1.00  0.00     0.026 A 
HETATM    2  C   UNL     1     -41.973 -54.075  13.333  1.00  0.00     0.078 A 
HETATM    3  S   UNL     1     -40.743 -52.961  12.879  1.00  0.00    -0.064 SA
HETATM    4  C   UNL     1     -41.936 -51.973  12.175  1.00  0.00     0.151 A 
HETATM    5  N   UNL     1     -43.170 -52.360  12.328  1.00  0.00    -0.339 N 
ATOM      6  HN  UNL     1     -43.988 -51.829  12.029  1.00  0.00     0.168 HD
ENDROOT
BRANCH   4   7
HETATM    7  N   UNL     1     -41.477 -50.876  11.504  1.00  0.00    -0.307 N 
HETATM    8  C   UNL     1     -41.866 -49.601  11.867  1.00  0.00     0.227 C 
HETATM    9  O   UNL     1     -42.677 -49.335  12.756  1.00  0.00    -0.273 OA
HETATM   10  H   UNL     1     -40.910 -51.035  10.687  1.00  0.00     0.171 HD
BRANCH   8  11
HETATM   11  C   UNL     1     -41.194 -48.516  10.987  1.00  0.00     0.078 C 
HETATM   12  C   UNL     1     -40.107 -47.628  11.656  1.00  0.00     0.014 C 
HETATM   13  C   UNL     1     -40.628 -46.456  10.805  1.00  0.00     0.002 C 
HETATM   14  C   UNL     1     -41.977 -47.195  10.738  1.00  0.00     0.014 C 
ENDBRANCH   8  11
ENDBRANCH   4   7
BRANCH   1  15
HETATM   15  C   UNL     1     -44.541 -54.253  13.181  1.00  0.00     0.160 C 
BRANCH  15  16
HETATM   16  C   UNL     1     -45.783 -53.385  13.019  1.00  0.00     0.221 C 
HETATM   17  N   UNL     1     -46.660 -53.277  14.052  1.00  0.00    -0.370 N 
HETATM   18  H   UNL     1     -47.537 -52.811  13.869  1.00  0.00     0.159 HD
HETATM   19  H   UNL     1     -46.693 -54.025  14.751  1.00  0.00     0.159 HD
HETATM   20  O   UNL     1     -45.990 -52.760  11.977  1.00  0.00    -0.273 OA
ENDBRANCH  15  16
ENDBRANCH   1  15
TORSDOF 4
ENDMDL
MODEL 7
REMARK VINA RESULT:      -5.0      1.758      2.021
REMARK  4 active torsions:
REMARK  status: ('A' for Active; 'I' for Inactive)
REMARK       I    between atoms: N_1  and  C_2 
REMARK    1  A    between atoms: C_2  and  C_4 
REMARK    2  A    between atoms: C_4  and  C_5 
REMARK    3  A    between atoms: C_8  and  N_9 
REMARK       I    between atoms: N_9  and  C_10 
REMARK    4  A    between atoms: C_10  and  C_12 
ROOT
HETATM    1  C   UNL     1     -41.743 -47.691  10.729  1.00  0.00     0.026 A 
HETATM    2  C   UNL     1     -40.505 -47.584  11.343  1.00  0.00     0.078 A 
HETATM    3  S   UNL     1     -40.064 -49.087  12.053  1.00  0.00    -0.064 SA
HETATM    4  C   UNL     1     -41.555 -49.732  11.549  1.00  0.00     0.151 A 
HETATM    5  N   UNL     1     -42.306 -48.952  10.825  1.00  0.00    -0.339 N 
ATOM      6  HN  UNL     1     -43.186 -49.231  10.390  1.00  0.00     0.168 HD
ENDROOT
BRANCH   4   7
HETATM    7  N   UNL     1     -41.822 -51.004  11.967  1.00  0.00    -0.307 N 
HETATM    8  C   UNL     1     -42.834 -51.262  12.872  1.00  0.00     0.227 C 
HETATM    9  O   UNL     1     -43.532 -50.405  13.417  1.00  0.00    -0.273 OA
HETATM   10  H   UNL     1     -41.204 -51.736  11.654  1.00  0.00     0.171 HD
BRANCH   8  11
HETATM   11  C   UNL     1     -42.974 -52.777  13.170  1.00  0.00     0.078 C 
HETATM   12  C   UNL     1     -44.135 -53.538  12.470  1.00  0.00     0.014 C 
HETATM   13  C   UNL     1     -44.280 -54.374  13.755  1.00  0.00     0.002 C 
HETATM   14  C   UNL     1     -43.643 -53.194  14.511  1.00  0.00     0.014 C 
ENDBRANCH   8  11
ENDBRANCH   4   7
BRANCH   1  15
HETATM   15  C   UNL     1     -42.472 -46.616   9.985  1.00  0.00     0.160 C 
BRANCH  15  16
HETATM   16  C   UNL     1     -43.458 -47.063   8.913  1.00  0.00     0.221 C 
HETATM   17  N   UNL     1     -43.046 -47.140   7.619  1.00  0.00    -0.370 N 
HETATM   18  H   UNL     1     -43.752 -47.304   6.916  1.00  0.00     0.159 HD
HETATM   19  H   UNL     1     -42.248 -46.572   7.321  1.00  0.00     0.159 HD
HETATM   20  O   UNL     1     -44.613 -47.381   9.203  1.00  0.00    -0.273 OA
ENDBRANCH  15  16
ENDBRANCH   1  15
TORSDOF 4
ENDMDL
MODEL 8
REMARK VINA RESULT:      -4.9      2.908      3.565
REMARK  4 active torsions:
REMARK  status: ('A' for Active; 'I' for Inactive)
REMARK       I    between atoms: N_1  and  C_2 
REMARK    1  A    between atoms: C_2  and  C_4 
REMARK    2  A    between atoms: C_4  and  C_5 
REMARK    3  A    between atoms: C_8  and  N_9 
REMARK       I    between atoms: N_9  and  C_10 
REMARK    4  A    between atoms: C_10  and  C_12 
ROOT
HETATM    1  C   UNL     1     -42.930 -48.046  12.725  1.00  0.00     0.026 A 
HETATM    2  C   UNL     1     -42.835 -47.968  14.106  1.00  0.00     0.078 A 
HETATM    3  S   UNL     1     -43.202 -49.493  14.812  1.00  0.00    -0.064 SA
HETATM    4  C   UNL     1     -43.511 -50.108  13.257  1.00  0.00     0.151 A 
HETATM    5  N   UNL     1     -43.279 -49.302  12.260  1.00  0.00    -0.339 N 
ATOM      6  HN  UNL     1     -43.344 -49.559  11.275  1.00  0.00     0.168 HD
ENDROOT
BRANCH   4   7
HETATM    7  N   UNL     1     -43.988 -51.386  13.208  1.00  0.00    -0.307 N 
HETATM    8  C   UNL     1     -43.250 -52.404  12.634  1.00  0.00     0.227 C 
HETATM    9  O   UNL     1     -42.159 -52.261  12.079  1.00  0.00    -0.273 OA
HETATM   10  H   UNL     1     -44.929 -51.544  13.533  1.00  0.00     0.171 HD
BRANCH   8  11
HETATM   11  C   UNL     1     -43.976 -53.771  12.725  1.00  0.00     0.078 C 
HETATM   12  C   UNL     1     -45.492 -53.752  13.067  1.00  0.00     0.014 C 
HETATM   13  C   UNL     1     -45.263 -55.042  13.876  1.00  0.00     0.002 C 
HETATM   14  C   UNL     1     -43.794 -54.604  14.026  1.00  0.00     0.014 C 
ENDBRANCH   8  11
ENDBRANCH   4   7
BRANCH   1  15
HETATM   15  C   UNL     1     -42.673 -46.944  11.745  1.00  0.00     0.160 C 
BRANCH  15  16
HETATM   16  C   UNL     1     -41.814 -47.284  10.533  1.00  0.00     0.221 C 
HETATM   17  N   UNL     1     -40.560 -46.767  10.439  1.00  0.00    -0.370 N 
HETATM   18  H   UNL     1     -40.070 -46.895   9.565  1.00  0.00     0.159 HD
HETATM   19  H   UNL     1     -40.343 -45.904  10.946  1.00  0.00     0.159 HD
HETATM   20  O   UNL     1     -42.229 -48.039   9.651  1.00  0.00    -0.273 OA
ENDBRANCH  15  16
ENDBRANCH   1  15
TORSDOF 4
ENDMDL
MODEL 9
REMARK VINA RESULT:      -4.9      2.567      3.242
REMARK  4 active torsions:
REMARK  status: ('A' for Active; 'I' for Inactive)
REMARK       I    between atoms: N_1  and  C_2 
REMARK    1  A    between atoms: C_2  and  C_4 
REMARK    2  A    between atoms: C_4  and  C_5 
REMARK    3  A    between atoms: C_8  and  N_9 
REMARK       I    between atoms: N_9  and  C_10 
REMARK    4  A    between atoms: C_10  and  C_12 
ROOT
HETATM    1  C   UNL     1     -40.595 -46.765  10.974  1.00  0.00     0.026 A 
HETATM    2  C   UNL     1     -41.927 -46.432  10.790  1.00  0.00     0.078 A 
HETATM    3  S   UNL     1     -42.916 -47.829  10.968  1.00  0.00    -0.064 SA
HETATM    4  C   UNL     1     -41.512 -48.758  11.211  1.00  0.00     0.151 A 
HETATM    5  N   UNL     1     -40.387 -48.103  11.259  1.00  0.00    -0.339 N 
ATOM      6  HN  UNL     1     -39.480 -48.518  11.475  1.00  0.00     0.168 HD
ENDROOT
BRANCH   4   7
HETATM    7  N   UNL     1     -41.704 -50.105  11.319  1.00  0.00    -0.307 N 
HETATM    8  C   UNL     1     -40.773 -50.913  11.943  1.00  0.00     0.227 C 
HETATM    9  O   UNL     1     -39.694 -50.529  12.396  1.00  0.00    -0.273 OA
HETATM   10  H   UNL     1     -42.509 -50.499  10.856  1.00  0.00     0.171 HD
BRANCH   8  11
HETATM   11  C   UNL     1     -41.220 -52.398  11.975  1.00  0.00     0.078 C 
HETATM   12  C   UNL     1     -42.687 -52.692  12.397  1.00  0.00     0.014 C 
HETATM   13  C   UNL     1     -42.166 -53.959  13.099  1.00  0.00     0.002 C 
HETATM   14  C   UNL     1     -40.800 -53.256  13.202  1.00  0.00     0.014 C 
ENDBRANCH   8  11
ENDBRANCH   4   7
BRANCH   1  15
HETATM   15  C   UNL     1     -39.422 -45.835  10.920  1.00  0.00     0.160 C 
BRANCH  15  16
HETATM   16  C   UNL     1     -39.492 -44.693   9.913  1.00  0.00     0.221 C 
HETATM   17  N   UNL     1     -38.796 -44.789   8.748  1.00  0.00    -0.370 N 
HETATM   18  H   UNL     1     -38.751 -43.964   8.166  1.00  0.00     0.159 HD
HETATM   19  H   UNL     1     -37.978 -45.403   8.711  1.00  0.00     0.159 HD
HETATM   20  O   UNL     1     -40.189 -43.698  10.125  1.00  0.00    -0.273 OA
ENDBRANCH  15  16
ENDBRANCH   1  15
TORSDOF 4
ENDMDL
