MODEL 1
REMARK VINA RESULT:      -6.4      0.000      0.000
REMARK  5 active torsions:
REMARK  status: ('A' for Active; 'I' for Inactive)
REMARK       I    between atoms: C_2  and  N_3 
REMARK       I    between atoms: C_2  and  N_17 
REMARK    1  A    between atoms: N_3  and  C_4 
REMARK    2  A    between atoms: C_4  and  C_5 
REMARK    3  A    between atoms: C_5  and  C_6 
REMARK    4  A    between atoms: C_5  and  N_11 
REMARK    5  A    between atoms: N_17  and  C_18 
ROOT
HETATM    1  O   UNL     1     -41.410 -51.214  13.459  1.00  0.00    -0.247 OA
HETATM    2  C   UNL     1     -41.658 -51.537  12.307  1.00  0.00     0.320 C 
HETATM    3  N   UNL     1     -40.952 -51.046  11.225  1.00  0.00    -0.341 N 
HETATM    4  N   UNL     1     -42.676 -52.369  11.881  1.00  0.00    -0.308 N 
HETATM    5  H   UNL     1     -40.857 -51.689  10.452  1.00  0.00     0.164 HD
HETATM    6  H   UNL     1     -42.956 -52.259  10.921  1.00  0.00     0.170 HD
ENDROOT
BRANCH   3   7
HETATM    7  C   UNL     1     -39.881 -50.070  11.390  1.00  0.00     0.149 C 
BRANCH   7   8
HETATM    8  C   UNL     1     -40.393 -48.697  11.937  1.00  0.00     0.103 C 
BRANCH   8   9
HETATM    9  C   UNL     1     -39.501 -48.086  13.051  1.00  0.00     0.035 C 
HETATM   10  C   UNL     1     -38.173 -48.760  13.360  1.00  0.00     0.035 C 
HETATM   11  C   UNL     1     -37.974 -48.562  14.856  1.00  0.00     0.168 C 
HETATM   12  O   UNL     1     -39.055 -47.747  15.324  1.00  0.00    -0.391 OA
HETATM   13  C   UNL     1     -40.146 -47.977  14.428  1.00  0.00     0.174 C 
ENDBRANCH   8   9
BRANCH   8  14
HETATM   14  N   UNL     1     -40.787 -47.789  10.839  1.00  0.00    -0.402 N 
HETATM   15  C   UNL     1     -40.402 -46.373  10.834  1.00  0.00     0.143 C 
HETATM   16  C   UNL     1     -41.508 -45.360  11.203  1.00  0.00     0.187 C 
HETATM   17  O   UNL     1     -42.760 -45.639  10.566  1.00  0.00    -0.388 OA
HETATM   18  C   UNL     1     -43.171 -46.983  10.833  1.00  0.00     0.187 C 
HETATM   19  C   UNL     1     -42.136 -47.973  10.285  1.00  0.00     0.143 C 
ENDBRANCH   8  14
ENDBRANCH   7   8
ENDBRANCH   3   7
BRANCH   4  20
HETATM   20  C   UNL     1     -43.490 -53.187  12.697  1.00  0.00     0.051 A 
HETATM   21  C   UNL     1     -42.993 -54.127  13.593  1.00  0.00     0.032 A 
HETATM   22  C   UNL     1     -43.870 -54.951  14.300  1.00  0.00     0.019 A 
HETATM   23  C   UNL     1     -45.231 -54.805  14.091  1.00  0.00     0.088 A 
HETATM   24  N   UNL     1     -45.760 -53.894  13.247  1.00  0.00    -0.373 N 
HETATM   25  C   UNL     1     -44.880 -53.109  12.575  1.00  0.00     0.117 A 
ATOM     26  HN  UNL     1     -46.768 -53.801  13.120  1.00  0.00     0.164 HD
ENDBRANCH   4  20
TORSDOF 5
ENDMDL
MODEL 2
REMARK VINA RESULT:      -6.4      2.430      7.492
REMARK  5 active torsions:
REMARK  status: ('A' for Active; 'I' for Inactive)
REMARK       I    between atoms: C_2  and  N_3 
REMARK       I    between atoms: C_2  and  N_17 
REMARK    1  A    between atoms: N_3  and  C_4 
REMARK    2  A    between atoms: C_4  and  C_5 
REMARK    3  A    between atoms: C_5  and  C_6 
REMARK    4  A    between atoms: C_5  and  N_11 
REMARK    5  A    between atoms: N_17  and  C_18 
ROOT
HETATM    1  O   UNL     1     -40.664 -49.422  12.797  1.00  0.00    -0.247 OA
HETATM    2  C   UNL     1     -40.975 -49.813  11.682  1.00  0.00     0.320 C 
HETATM    3  N   UNL     1     -40.986 -51.151  11.337  1.00  0.00    -0.341 N 
HETATM    4  N   UNL     1     -41.302 -49.031  10.592  1.00  0.00    -0.308 N 
HETATM    5  H   UNL     1     -41.689 -51.409  10.660  1.00  0.00     0.164 HD
HETATM    6  H   UNL     1     -41.193 -49.468   9.692  1.00  0.00     0.170 HD
ENDROOT
BRANCH   3   7
HETATM    7  C   UNL     1     -40.585 -52.188  12.281  1.00  0.00     0.149 C 
BRANCH   7   8
HETATM    8  C   UNL     1     -41.759 -52.652  13.204  1.00  0.00     0.103 C 
BRANCH   8   9
HETATM    9  C   UNL     1     -43.170 -52.423  12.598  1.00  0.00     0.035 C 
HETATM   10  C   UNL     1     -44.103 -51.444  13.295  1.00  0.00     0.035 C 
HETATM   11  C   UNL     1     -45.497 -52.017  13.084  1.00  0.00     0.168 C 
HETATM   12  O   UNL     1     -45.361 -53.167  12.242  1.00  0.00    -0.391 OA
HETATM   13  C   UNL     1     -44.039 -53.668  12.460  1.00  0.00     0.174 C 
ENDBRANCH   8   9
BRANCH   8  14
HETATM   14  N   UNL     1     -41.501 -53.989  13.779  1.00  0.00    -0.402 N 
HETATM   15  C   UNL     1     -41.976 -54.359  15.117  1.00  0.00     0.143 C 
HETATM   16  C   UNL     1     -40.916 -54.382  16.239  1.00  0.00     0.187 C 
HETATM   17  O   UNL     1     -39.695 -55.017  15.846  1.00  0.00    -0.388 OA
HETATM   18  C   UNL     1     -39.180 -54.420  14.652  1.00  0.00     0.187 C 
HETATM   19  C   UNL     1     -40.183 -54.580  13.503  1.00  0.00     0.143 C 
ENDBRANCH   8  14
ENDBRANCH   7   8
ENDBRANCH   3   7
BRANCH   4  20
HETATM   20  C   UNL     1     -41.563 -47.641  10.602  1.00  0.00     0.051 A 
HETATM   21  C   UNL     1     -40.585 -46.671  10.794  1.00  0.00     0.032 A 
HETATM   22  C   UNL     1     -40.943 -45.324  10.869  1.00  0.00     0.019 A 
HETATM   23  C   UNL     1     -42.279 -44.985  10.745  1.00  0.00     0.088 A 
HETATM   24  N   UNL     1     -43.260 -45.889  10.538  1.00  0.00    -0.373 N 
HETATM   25  C   UNL     1     -42.879 -47.189  10.469  1.00  0.00     0.117 A 
ATOM     26  HN  UNL     1     -44.236 -45.610  10.440  1.00  0.00     0.164 HD
ENDBRANCH   4  20
TORSDOF 5
ENDMDL
MODEL 3
REMARK VINA RESULT:      -6.3      1.944      3.903
REMARK  5 active torsions:
REMARK  status: ('A' for Active; 'I' for Inactive)
REMARK       I    between atoms: C_2  and  N_3 
REMARK       I    between atoms: C_2  and  N_17 
REMARK    1  A    between atoms: N_3  and  C_4 
REMARK    2  A    between atoms: C_4  and  C_5 
REMARK    3  A    between atoms: C_5  and  C_6 
REMARK    4  A    between atoms: C_5  and  N_11 
REMARK    5  A    between atoms: N_17  and  C_18 
ROOT
HETATM    1  O   UNL     1     -43.449 -50.535  14.459  1.00  0.00    -0.247 OA
HETATM    2  C   UNL     1     -43.664 -50.654  13.262  1.00  0.00     0.320 C 
HETATM    3  N   UNL     1     -43.120 -49.806  12.317  1.00  0.00    -0.341 N 
HETATM    4  N   UNL     1     -44.495 -51.579  12.660  1.00  0.00    -0.308 N 
HETATM    5  H   UNL     1     -42.917 -50.236  11.426  1.00  0.00     0.164 HD
HETATM    6  H   UNL     1     -44.827 -51.334  11.742  1.00  0.00     0.170 HD
ENDROOT
BRANCH   3   7
HETATM    7  C   UNL     1     -42.278 -48.677  12.697  1.00  0.00     0.149 C 
BRANCH   7   8
HETATM    8  C   UNL     1     -40.966 -48.590  11.850  1.00  0.00     0.103 C 
BRANCH   8   9
HETATM    9  C   UNL     1     -40.834 -47.286  11.018  1.00  0.00     0.035 C 
HETATM   10  C   UNL     1     -40.456 -46.004  11.744  1.00  0.00     0.035 C 
HETATM   11  C   UNL     1     -41.190 -44.901  10.997  1.00  0.00     0.168 C 
HETATM   12  O   UNL     1     -41.842 -45.509   9.875  1.00  0.00    -0.391 OA
HETATM   13  C   UNL     1     -42.079 -46.871  10.241  1.00  0.00     0.174 C 
ENDBRANCH   8   9
BRANCH   8  14
HETATM   14  N   UNL     1     -39.782 -48.986  12.642  1.00  0.00    -0.402 N 
HETATM   15  C   UNL     1     -38.439 -49.029  12.054  1.00  0.00     0.143 C 
HETATM   16  C   UNL     1     -37.881 -50.428  11.719  1.00  0.00     0.187 C 
HETATM   17  O   UNL     1     -38.104 -51.386  12.760  1.00  0.00    -0.388 OA
HETATM   18  C   UNL     1     -39.493 -51.444  13.100  1.00  0.00     0.187 C 
HETATM   19  C   UNL     1     -39.972 -50.078  13.608  1.00  0.00     0.143 C 
ENDBRANCH   8  14
ENDBRANCH   7   8
ENDBRANCH   3   7
BRANCH   4  20
HETATM   20  C   UNL     1     -45.085 -52.707  13.274  1.00  0.00     0.051 A 
HETATM   21  C   UNL     1     -44.519 -53.978  13.266  1.00  0.00     0.032 A 
HETATM   22  C   UNL     1     -45.209 -55.053  13.828  1.00  0.00     0.019 A 
HETATM   23  C   UNL     1     -46.453 -54.823  14.388  1.00  0.00     0.088 A 
HETATM   24  N   UNL     1     -47.034 -53.605  14.437  1.00  0.00    -0.373 N 
HETATM   25  C   UNL     1     -46.336 -52.581  13.883  1.00  0.00     0.117 A 
ATOM     26  HN  UNL     1     -47.947 -53.462  14.866  1.00  0.00     0.164 HD
ENDBRANCH   4  20
TORSDOF 5
ENDMDL
MODEL 4
REMARK VINA RESULT:      -6.3      2.243      7.229
REMARK  5 active torsions:
REMARK  status: ('A' for Active; 'I' for Inactive)
REMARK       I    between atoms: C_2  and  N_3 
REMARK       I    between atoms: C_2  and  N_17 
REMARK    1  A    between atoms: N_3  and  C_4 
REMARK    2  A    between atoms: C_4  and  C_5 
REMARK    3  A    between atoms: C_5  and  C_6 
REMARK    4  A    between atoms: C_5  and  N_11 
REMARK    5  A    between atoms: N_17  and  C_18 
ROOT
HETATM    1  O   UNL     1     -42.300 -49.774  13.661  1.00  0.00    -0.247 OA
HETATM    2  C   UNL     1     -42.335 -50.367  12.593  1.00  0.00     0.320 C 
HETATM    3  N   UNL     1     -42.858 -51.639  12.462  1.00  0.00    -0.341 N 
HETATM    4  N   UNL     1     -41.834 -49.924  11.385  1.00  0.00    -0.308 N 
HETATM    5  H   UNL     1     -43.303 -51.827  11.575  1.00  0.00     0.164 HD
HETATM    6  H   UNL     1     -41.632 -50.641  10.708  1.00  0.00     0.170 HD
ENDROOT
BRANCH   3   7
HETATM    7  C   UNL     1     -43.369 -52.378  13.610  1.00  0.00     0.149 C 
BRANCH   7   8
HETATM    8  C   UNL     1     -42.782 -53.824  13.709  1.00  0.00     0.103 C 
BRANCH   8   9
HETATM    9  C   UNL     1     -41.305 -53.877  14.187  1.00  0.00     0.035 C 
HETATM   10  C   UNL     1     -40.764 -52.700  14.984  1.00  0.00     0.035 C 
HETATM   11  C   UNL     1     -39.300 -52.596  14.582  1.00  0.00     0.168 C 
HETATM   12  O   UNL     1     -39.020 -53.697  13.710  1.00  0.00    -0.391 OA
HETATM   13  C   UNL     1     -40.262 -54.039  13.087  1.00  0.00     0.174 C 
ENDBRANCH   8   9
BRANCH   8  14
HETATM   14  N   UNL     1     -43.722 -54.747  14.381  1.00  0.00    -0.402 N 
HETATM   15  C   UNL     1     -45.095 -54.935  13.899  1.00  0.00     0.143 C 
HETATM   16  C   UNL     1     -46.208 -54.239  14.711  1.00  0.00     0.187 C 
HETATM   17  O   UNL     1     -46.049 -54.388  16.125  1.00  0.00    -0.388 OA
HETATM   18  C   UNL     1     -44.750 -53.948  16.535  1.00  0.00     0.187 C 
HETATM   19  C   UNL     1     -43.666 -54.788  15.849  1.00  0.00     0.143 C 
ENDBRANCH   8  14
ENDBRANCH   7   8
ENDBRANCH   3   7
BRANCH   4  20
HETATM   20  C   UNL     1     -41.385 -48.617  11.088  1.00  0.00     0.051 A 
HETATM   21  C   UNL     1     -40.246 -48.044  11.646  1.00  0.00     0.032 A 
HETATM   22  C   UNL     1     -39.920 -46.718  11.359  1.00  0.00     0.019 A 
HETATM   23  C   UNL     1     -40.747 -45.999  10.512  1.00  0.00     0.088 A 
HETATM   24  N   UNL     1     -41.850 -46.518   9.933  1.00  0.00    -0.373 N 
HETATM   25  C   UNL     1     -42.139 -47.810  10.232  1.00  0.00     0.117 A 
ATOM     26  HN  UNL     1     -42.435 -45.969   9.304  1.00  0.00     0.164 HD
ENDBRANCH   4  20
TORSDOF 5
ENDMDL
MODEL 5
REMARK VINA RESULT:      -6.3      1.941      2.262
REMARK  5 active torsions:
REMARK  status: ('A' for Active; 'I' for Inactive)
REMARK       I    between atoms: C_2  and  N_3 
REMARK       I    between atoms: C_2  and  N_17 
REMARK    1  A    between atoms: N_3  and  C_4 
REMARK    2  A    between atoms: C_4  and  C_5 
REMARK    3  A    between atoms: C_5  and  C_6 
REMARK    4  A    between atoms: C_5  and  N_11 
REMARK    5  A    between atoms: N_17  and  C_18 
ROOT
HETATM    1  O   UNL     1     -43.863 -50.360  14.483  1.00  0.00    -0.247 OA
HETATM    2  C   UNL     1     -43.976 -50.545  13.280  1.00  0.00     0.320 C 
HETATM    3  N   UNL     1     -43.439 -49.688  12.339  1.00  0.00    -0.341 N 
HETATM    4  N   UNL     1     -44.675 -51.564  12.662  1.00  0.00    -0.308 N 
HETATM    5  H   UNL     1     -43.134 -50.132  11.485  1.00  0.00     0.164 HD
HETATM    6  H   UNL     1     -44.957 -51.386  11.713  1.00  0.00     0.170 HD
ENDROOT
BRANCH   3   7
HETATM    7  C   UNL     1     -42.731 -48.473  12.726  1.00  0.00     0.149 C 
BRANCH   7   8
HETATM    8  C   UNL     1     -41.219 -48.502  12.327  1.00  0.00     0.103 C 
BRANCH   8   9
HETATM    9  C   UNL     1     -40.548 -49.894  12.488  1.00  0.00     0.035 C 
HETATM   10  C   UNL     1     -40.203 -50.369  13.890  1.00  0.00     0.035 C 
HETATM   11  C   UNL     1     -38.931 -51.187  13.723  1.00  0.00     0.168 C 
HETATM   12  O   UNL     1     -38.649 -51.252  12.320  1.00  0.00    -0.391 OA
HETATM   13  C   UNL     1     -39.232 -50.081  11.741  1.00  0.00     0.174 C 
ENDBRANCH   8   9
BRANCH   8  14
HETATM   14  N   UNL     1     -40.982 -47.803  11.047  1.00  0.00    -0.402 N 
HETATM   15  C   UNL     1     -40.282 -46.515  10.989  1.00  0.00     0.143 C 
HETATM   16  C   UNL     1     -41.162 -45.266  10.767  1.00  0.00     0.187 C 
HETATM   17  O   UNL     1     -42.153 -45.450   9.750  1.00  0.00    -0.388 OA
HETATM   18  C   UNL     1     -42.949 -46.607  10.027  1.00  0.00     0.187 C 
HETATM   19  C   UNL     1     -42.067 -47.862  10.056  1.00  0.00     0.143 C 
ENDBRANCH   8  14
ENDBRANCH   7   8
ENDBRANCH   3   7
BRANCH   4  20
HETATM   20  C   UNL     1     -45.207 -52.717  13.284  1.00  0.00     0.051 A 
HETATM   21  C   UNL     1     -44.580 -53.959  13.280  1.00  0.00     0.032 A 
HETATM   22  C   UNL     1     -45.215 -55.064  13.849  1.00  0.00     0.019 A 
HETATM   23  C   UNL     1     -46.468 -54.892  14.411  1.00  0.00     0.088 A 
HETATM   24  N   UNL     1     -47.107 -53.703  14.455  1.00  0.00    -0.373 N 
HETATM   25  C   UNL     1     -46.462 -52.649  13.895  1.00  0.00     0.117 A 
ATOM     26  HN  UNL     1     -48.026 -53.603  14.886  1.00  0.00     0.164 HD
ENDBRANCH   4  20
TORSDOF 5
ENDMDL
MODEL 6
REMARK VINA RESULT:      -6.2      2.891      4.994
REMARK  5 active torsions:
REMARK  status: ('A' for Active; 'I' for Inactive)
REMARK       I    between atoms: C_2  and  N_3 
REMARK       I    between atoms: C_2  and  N_17 
REMARK    1  A    between atoms: N_3  and  C_4 
REMARK    2  A    between atoms: C_4  and  C_5 
REMARK    3  A    between atoms: C_5  and  C_6 
REMARK    4  A    between atoms: C_5  and  N_11 
REMARK    5  A    between atoms: N_17  and  C_18 
ROOT
HETATM    1  O   UNL     1     -41.907 -49.778  13.211  1.00  0.00    -0.247 OA
HETATM    2  C   UNL     1     -41.564 -50.072  12.076  1.00  0.00     0.320 C 
HETATM    3  N   UNL     1     -41.792 -49.248  10.990  1.00  0.00    -0.341 N 
HETATM    4  N   UNL     1     -40.962 -51.248  11.672  1.00  0.00    -0.308 N 
HETATM    5  H   UNL     1     -41.087 -49.292  10.268  1.00  0.00     0.164 HD
HETATM    6  H   UNL     1     -41.060 -51.475  10.696  1.00  0.00     0.170 HD
ENDROOT
BRANCH   3   7
HETATM    7  C   UNL     1     -42.501 -47.981  11.127  1.00  0.00     0.149 C 
BRANCH   7   8
HETATM    8  C   UNL     1     -42.427 -47.105   9.833  1.00  0.00     0.103 C 
BRANCH   8   9
HETATM    9  C   UNL     1     -43.730 -47.114   8.988  1.00  0.00     0.035 C 
HETATM   10  C   UNL     1     -45.040 -47.442   9.687  1.00  0.00     0.035 C 
HETATM   11  C   UNL     1     -45.865 -48.180   8.643  1.00  0.00     0.168 C 
HETATM   12  O   UNL     1     -45.115 -48.167   7.422  1.00  0.00    -0.391 OA
HETATM   13  C   UNL     1     -43.739 -48.069   7.800  1.00  0.00     0.174 C 
ENDBRANCH   8   9
BRANCH   8  14
HETATM   14  N   UNL     1     -41.833 -45.780  10.109  1.00  0.00    -0.402 N 
HETATM   15  C   UNL     1     -40.428 -45.633  10.506  1.00  0.00     0.143 C 
HETATM   16  C   UNL     1     -40.164 -45.346  12.000  1.00  0.00     0.187 C 
HETATM   17  O   UNL     1     -41.043 -44.356  12.546  1.00  0.00    -0.388 OA
HETATM   18  C   UNL     1     -42.409 -44.715  12.316  1.00  0.00     0.187 C 
HETATM   19  C   UNL     1     -42.686 -44.809  10.810  1.00  0.00     0.143 C 
ENDBRANCH   8  14
ENDBRANCH   7   8
ENDBRANCH   3   7
BRANCH   4  20
HETATM   20  C   UNL     1     -40.422 -52.249  12.511  1.00  0.00     0.051 A 
HETATM   21  C   UNL     1     -40.937 -53.538  12.611  1.00  0.00     0.032 A 
HETATM   22  C   UNL     1     -40.391 -54.439  13.525  1.00  0.00     0.019 A 
HETATM   23  C   UNL     1     -39.335 -54.023  14.317  1.00  0.00     0.088 A 
HETATM   24  N   UNL     1     -38.790 -52.790  14.243  1.00  0.00    -0.373 N 
HETATM   25  C   UNL     1     -39.343 -51.938  13.343  1.00  0.00     0.117 A 
ATOM     26  HN  UNL     1     -38.004 -52.513  14.831  1.00  0.00     0.164 HD
ENDBRANCH   4  20
TORSDOF 5
ENDMDL
MODEL 7
REMARK VINA RESULT:      -6.2      1.111      3.432
REMARK  5 active torsions:
REMARK  status: ('A' for Active; 'I' for Inactive)
REMARK       I    between atoms: C_2  and  N_3 
REMARK       I    between atoms: C_2  and  N_17 
REMARK    1  A    between atoms: N_3  and  C_4 
REMARK    2  A    between atoms: C_4  and  C_5 
REMARK    3  A    between atoms: C_5  and  C_6 
REMARK    4  A    between atoms: C_5  and  N_11 
REMARK    5  A    between atoms: N_17  and  C_18 
ROOT
HETATM    1  O   UNL     1     -41.515 -51.367  13.579  1.00  0.00    -0.247 OA
HETATM    2  C   UNL     1     -41.766 -51.616  12.409  1.00  0.00     0.320 C 
HETATM    3  N   UNL     1     -41.026 -51.103  11.361  1.00  0.00    -0.341 N 
HETATM    4  N   UNL     1     -42.818 -52.373  11.932  1.00  0.00    -0.308 N 
HETATM    5  H   UNL     1     -40.953 -51.708  10.556  1.00  0.00     0.164 HD
HETATM    6  H   UNL     1     -43.082 -52.200  10.977  1.00  0.00     0.170 HD
ENDROOT
BRANCH   3   7
HETATM    7  C   UNL     1     -39.911 -50.190  11.587  1.00  0.00     0.149 C 
BRANCH   7   8
HETATM    8  C   UNL     1     -40.363 -48.695  11.680  1.00  0.00     0.103 C 
BRANCH   8   9
HETATM    9  C   UNL     1     -41.689 -48.387  10.932  1.00  0.00     0.035 C 
HETATM   10  C   UNL     1     -41.770 -47.112  10.107  1.00  0.00     0.035 C 
HETATM   11  C   UNL     1     -43.217 -46.658  10.233  1.00  0.00     0.168 C 
HETATM   12  O   UNL     1     -43.914 -47.660  10.981  1.00  0.00    -0.391 OA
HETATM   13  C   UNL     1     -42.934 -48.295  11.808  1.00  0.00     0.174 C 
ENDBRANCH   8   9
BRANCH   8  14
HETATM   14  N   UNL     1     -40.254 -48.180  13.061  1.00  0.00    -0.402 N 
HETATM   15  C   UNL     1     -40.316 -46.744  13.357  1.00  0.00     0.143 C 
HETATM   16  C   UNL     1     -38.974 -46.052  13.679  1.00  0.00     0.187 C 
HETATM   17  O   UNL     1     -38.153 -46.808  14.576  1.00  0.00    -0.388 OA
HETATM   18  C   UNL     1     -37.950 -48.134  14.075  1.00  0.00     0.187 C 
HETATM   19  C   UNL     1     -39.294 -48.861  13.942  1.00  0.00     0.143 C 
ENDBRANCH   8  14
ENDBRANCH   7   8
ENDBRANCH   3   7
BRANCH   4  20
HETATM   20  C   UNL     1     -43.679 -53.193  12.696  1.00  0.00     0.051 A 
HETATM   21  C   UNL     1     -43.240 -54.235  13.507  1.00  0.00     0.032 A 
HETATM   22  C   UNL     1     -44.165 -55.047  14.164  1.00  0.00     0.019 A 
HETATM   23  C   UNL     1     -45.514 -54.788  13.992  1.00  0.00     0.088 A 
HETATM   24  N   UNL     1     -45.987 -53.778  13.231  1.00  0.00    -0.373 N 
HETATM   25  C   UNL     1     -45.061 -53.007  12.607  1.00  0.00     0.117 A 
ATOM     26  HN  UNL     1     -46.987 -53.604  13.131  1.00  0.00     0.164 HD
ENDBRANCH   4  20
TORSDOF 5
ENDMDL
MODEL 8
REMARK VINA RESULT:      -6.2      2.602      7.707
REMARK  5 active torsions:
REMARK  status: ('A' for Active; 'I' for Inactive)
REMARK       I    between atoms: C_2  and  N_3 
REMARK       I    between atoms: C_2  and  N_17 
REMARK    1  A    between atoms: N_3  and  C_4 
REMARK    2  A    between atoms: C_4  and  C_5 
REMARK    3  A    between atoms: C_5  and  C_6 
REMARK    4  A    between atoms: C_5  and  N_11 
REMARK    5  A    between atoms: N_17  and  C_18 
ROOT
HETATM    1  O   UNL     1     -40.454 -51.749  12.162  1.00  0.00    -0.247 OA
HETATM    2  C   UNL     1     -41.628 -51.424  12.260  1.00  0.00     0.320 C 
HETATM    3  N   UNL     1     -42.614 -52.301  12.670  1.00  0.00    -0.341 N 
HETATM    4  N   UNL     1     -42.176 -50.197  11.943  1.00  0.00    -0.308 N 
HETATM    5  H   UNL     1     -43.369 -51.879  13.191  1.00  0.00     0.164 HD
HETATM    6  H   UNL     1     -43.164 -50.197  11.750  1.00  0.00     0.170 HD
ENDROOT
BRANCH   3   7
HETATM    7  C   UNL     1     -42.317 -53.696  12.976  1.00  0.00     0.149 C 
BRANCH   7   8
HETATM    8  C   UNL     1     -42.471 -54.027  14.497  1.00  0.00     0.103 C 
BRANCH   8   9
HETATM    9  C   UNL     1     -43.824 -54.695  14.866  1.00  0.00     0.035 C 
HETATM   10  C   UNL     1     -44.866 -54.862  13.772  1.00  0.00     0.035 C 
HETATM   11  C   UNL     1     -46.204 -54.703  14.479  1.00  0.00     0.168 C 
HETATM   12  O   UNL     1     -45.930 -54.565  15.878  1.00  0.00    -0.391 OA
HETATM   13  C   UNL     1     -44.615 -54.011  15.976  1.00  0.00     0.174 C 
ENDBRANCH   8   9
BRANCH   8  14
HETATM   14  N   UNL     1     -41.254 -54.668  15.038  1.00  0.00    -0.402 N 
HETATM   15  C   UNL     1     -41.044 -54.830  16.481  1.00  0.00     0.143 C 
HETATM   16  C   UNL     1     -40.046 -53.856  17.143  1.00  0.00     0.187 C 
HETATM   17  O   UNL     1     -38.845 -53.680  16.384  1.00  0.00    -0.388 OA
HETATM   18  C   UNL     1     -39.151 -53.284  15.043  1.00  0.00     0.187 C 
HETATM   19  C   UNL     1     -39.990 -54.365  14.350  1.00  0.00     0.143 C 
ENDBRANCH   8  14
ENDBRANCH   7   8
ENDBRANCH   3   7
BRANCH   4  20
HETATM   20  C   UNL     1     -41.467 -49.007  11.656  1.00  0.00     0.051 A 
HETATM   21  C   UNL     1     -40.498 -48.463  12.493  1.00  0.00     0.032 A 
HETATM   22  C   UNL     1     -39.905 -47.241  12.172  1.00  0.00     0.019 A 
HETATM   23  C   UNL     1     -40.300 -46.596  11.012  1.00  0.00     0.088 A 
HETATM   24  N   UNL     1     -41.222 -47.095  10.161  1.00  0.00    -0.373 N 
HETATM   25  C   UNL     1     -41.778 -48.284  10.502  1.00  0.00     0.117 A 
ATOM     26  HN  UNL     1     -41.486 -46.603   9.307  1.00  0.00     0.164 HD
ENDBRANCH   4  20
TORSDOF 5
ENDMDL
MODEL 9
REMARK VINA RESULT:      -6.2      2.647      7.008
REMARK  5 active torsions:
REMARK  status: ('A' for Active; 'I' for Inactive)
REMARK       I    between atoms: C_2  and  N_3 
REMARK       I    between atoms: C_2  and  N_17 
REMARK    1  A    between atoms: N_3  and  C_4 
REMARK    2  A    between atoms: C_4  and  C_5 
REMARK    3  A    between atoms: C_5  and  C_6 
REMARK    4  A    between atoms: C_5  and  N_11 
REMARK    5  A    between atoms: N_17  and  C_18 
ROOT
HETATM    1  O   UNL     1     -43.149 -48.803  12.813  1.00  0.00    -0.247 OA
HETATM    2  C   UNL     1     -42.557 -49.243  11.839  1.00  0.00     0.320 C 
HETATM    3  N   UNL     1     -41.879 -50.447  11.858  1.00  0.00    -0.341 N 
HETATM    4  N   UNL     1     -42.412 -48.627  10.611  1.00  0.00    -0.308 N 
HETATM    5  H   UNL     1     -41.880 -50.949  10.981  1.00  0.00     0.164 HD
HETATM    6  H   UNL     1     -41.634 -48.941  10.055  1.00  0.00     0.170 HD
ENDROOT
BRANCH   3   7
HETATM    7  C   UNL     1     -41.793 -51.258  13.067  1.00  0.00     0.149 C 
BRANCH   7   8
HETATM    8  C   UNL     1     -42.345 -52.707  12.864  1.00  0.00     0.103 C 
BRANCH   8   9
HETATM    9  C   UNL     1     -41.669 -53.774  13.766  1.00  0.00     0.035 C 
HETATM   10  C   UNL     1     -41.645 -53.537  15.268  1.00  0.00     0.035 C 
HETATM   11  C   UNL     1     -40.333 -54.148  15.739  1.00  0.00     0.168 C 
HETATM   12  O   UNL     1     -39.724 -54.773  14.603  1.00  0.00    -0.391 OA
HETATM   13  C   UNL     1     -40.206 -54.071  13.454  1.00  0.00     0.174 C 
ENDBRANCH   8   9
BRANCH   8  14
HETATM   14  N   UNL     1     -43.823 -52.724  12.823  1.00  0.00    -0.402 N 
HETATM   15  C   UNL     1     -44.629 -51.906  13.736  1.00  0.00     0.143 C 
HETATM   16  C   UNL     1     -45.296 -52.648  14.915  1.00  0.00     0.187 C 
HETATM   17  O   UNL     1     -45.906 -53.884  14.527  1.00  0.00    -0.388 OA
HETATM   18  C   UNL     1     -44.963 -54.719  13.849  1.00  0.00     0.187 C 
HETATM   19  C   UNL     1     -44.459 -54.026  12.577  1.00  0.00     0.143 C 
ENDBRANCH   8  14
ENDBRANCH   7   8
ENDBRANCH   3   7
BRANCH   4  20
HETATM   20  C   UNL     1     -43.099 -47.477  10.160  1.00  0.00     0.051 A 
HETATM   21  C   UNL     1     -44.175 -47.513   9.280  1.00  0.00     0.032 A 
HETATM   22  C   UNL     1     -44.744 -46.323   8.822  1.00  0.00     0.019 A 
HETATM   23  C   UNL     1     -44.217 -45.123   9.266  1.00  0.00     0.088 A 
HETATM   24  N   UNL     1     -43.187 -45.038  10.135  1.00  0.00    -0.373 N 
HETATM   25  C   UNL     1     -42.657 -46.213  10.561  1.00  0.00     0.117 A 
ATOM     26  HN  UNL     1     -42.826 -44.140  10.454  1.00  0.00     0.164 HD
ENDBRANCH   4  20
TORSDOF 5
ENDMDL
