MODEL 1
REMARK VINA RESULT:      -6.5      0.000      0.000
REMARK  6 active torsions:
REMARK  status: ('A' for Active; 'I' for Inactive)
REMARK    1  A    between atoms: C_2  and  N_4 
REMARK       I    between atoms: N_4  and  C_5 
REMARK    2  A    between atoms: C_5  and  C_7 
REMARK    3  A    between atoms: C_7  and  C_8 
REMARK    4  A    between atoms: C_8  and  N_9 
REMARK       I    between atoms: N_9  and  C_10 
REMARK    5  A    between atoms: C_10  and  C_12 
REMARK    6  A    between atoms: C_17  and  N_19 
ROOT
HETATM    1  C   UNL     1     -41.407 -50.730  12.929  1.00  0.00     0.036 A 
HETATM    2  C   UNL     1     -40.086 -51.115  12.760  1.00  0.00     0.034 A 
HETATM    3  C   UNL     1     -39.337 -50.398  11.855  1.00  0.00     0.090 A 
HETATM    4  N   UNL     1     -39.810 -49.339  11.158  1.00  0.00    -0.352 N 
ATOM      5  HN  UNL     1     -39.217 -48.865  10.479  1.00  0.00     0.166 HD
HETATM    6  C   UNL     1     -41.076 -48.916  11.371  1.00  0.00     0.104 A 
HETATM    7  C   UNL     1     -41.900 -49.618  12.243  1.00  0.00     0.065 A 
ENDROOT
BRANCH   1   8
HETATM    8  C   UNL     1     -42.261 -51.469  13.891  1.00  0.00     0.251 C 
HETATM    9  N   UNL     1     -41.896 -52.778  14.154  1.00  0.00    -0.356 N 
HETATM   10  H   UNL     1     -40.967 -53.081  13.896  1.00  0.00     0.162 HD
HETATM   11  O   UNL     1     -43.212 -50.906  14.420  1.00  0.00    -0.268 OA
BRANCH   9  12
HETATM   12  C   UNL     1     -42.648 -53.560  15.122  1.00  0.00     0.132 C 
BRANCH  12  13
HETATM   13  C   UNL     1     -43.393 -54.727  14.485  1.00  0.00     0.122 C 
BRANCH  13  14
HETATM   14  C   UNL     1     -44.765 -54.288  14.016  1.00  0.00     0.219 C 
HETATM   15  N   UNL     1     -45.234 -53.152  14.643  1.00  0.00    -0.357 N 
HETATM   16  H   UNL     1     -44.752 -52.811  15.465  1.00  0.00     0.162 HD
HETATM   17  O   UNL     1     -45.399 -54.883  13.150  1.00  0.00    -0.274 OA
BRANCH  15  18
HETATM   18  C   UNL     1     -46.560 -52.621  14.345  1.00  0.00     0.076 C 
HETATM   19  C   UNL     1     -47.206 -52.033  15.597  1.00  0.00     0.032 C 
HETATM   20  C   UNL     1     -46.479 -51.579  13.235  1.00  0.00     0.032 C 
ENDBRANCH  15  18
ENDBRANCH  13  14
ENDBRANCH  12  13
ENDBRANCH   9  12
ENDBRANCH   1   8
BRANCH   6  21
HETATM   21  N   UNL     1     -41.477 -47.749  10.763  1.00  0.00    -0.363 N 
HETATM   22  C   UNL     1     -40.577 -46.586  10.787  1.00  0.00     0.150 C 
HETATM   23  C   UNL     1     -41.397 -45.286  10.829  1.00  0.00     0.188 C 
HETATM   24  O   UNL     1     -42.383 -45.232   9.780  1.00  0.00    -0.383 OA
HETATM   25  C   UNL     1     -43.292 -46.339   9.907  1.00  0.00     0.135 C 
HETATM   26  C   UNL     1     -44.372 -46.207   8.843  1.00  0.00     0.041 C 
HETATM   27  C   UNL     1     -42.542 -47.678   9.759  1.00  0.00     0.155 C 
ENDBRANCH   6  21
TORSDOF 6
ENDMDL
MODEL 2
REMARK VINA RESULT:      -6.3      1.969      7.203
REMARK  6 active torsions:
REMARK  status: ('A' for Active; 'I' for Inactive)
REMARK    1  A    between atoms: C_2  and  N_4 
REMARK       I    between atoms: N_4  and  C_5 
REMARK    2  A    between atoms: C_5  and  C_7 
REMARK    3  A    between atoms: C_7  and  C_8 
REMARK    4  A    between atoms: C_8  and  N_9 
REMARK       I    between atoms: N_9  and  C_10 
REMARK    5  A    between atoms: C_10  and  C_12 
REMARK    6  A    between atoms: C_17  and  N_19 
ROOT
HETATM    1  C   UNL     1     -40.418 -52.556  13.500  1.00  0.00     0.036 A 
HETATM    2  C   UNL     1     -39.626 -53.537  14.076  1.00  0.00     0.034 A 
HETATM    3  C   UNL     1     -40.259 -54.459  14.880  1.00  0.00     0.090 A 
HETATM    4  N   UNL     1     -41.593 -54.469  15.106  1.00  0.00    -0.352 N 
ATOM      5  HN  UNL     1     -42.002 -55.159  15.735  1.00  0.00     0.166 HD
HETATM    6  C   UNL     1     -42.379 -53.557  14.491  1.00  0.00     0.104 A 
HETATM    7  C   UNL     1     -41.801 -52.574  13.697  1.00  0.00     0.065 A 
ENDROOT
BRANCH   1   8
HETATM    8  C   UNL     1     -39.789 -51.536  12.626  1.00  0.00     0.251 C 
HETATM    9  N   UNL     1     -40.648 -50.789  11.839  1.00  0.00    -0.356 N 
HETATM   10  H   UNL     1     -41.633 -50.787  12.068  1.00  0.00     0.162 HD
HETATM   11  O   UNL     1     -38.574 -51.378  12.649  1.00  0.00    -0.268 OA
BRANCH   9  12
HETATM   12  C   UNL     1     -40.121 -49.733  10.989  1.00  0.00     0.132 C 
BRANCH  12  13
HETATM   13  C   UNL     1     -40.661 -48.357  11.357  1.00  0.00     0.122 C 
BRANCH  13  14
HETATM   14  C   UNL     1     -42.082 -48.193  10.857  1.00  0.00     0.219 C 
HETATM   15  N   UNL     1     -42.169 -47.707   9.569  1.00  0.00    -0.357 N 
HETATM   16  H   UNL     1     -41.339 -47.327   9.130  1.00  0.00     0.162 HD
HETATM   17  O   UNL     1     -43.067 -48.475  11.532  1.00  0.00    -0.274 OA
BRANCH  15  18
HETATM   18  C   UNL     1     -43.464 -47.442   8.950  1.00  0.00     0.076 C 
HETATM   19  C   UNL     1     -43.752 -45.944   8.905  1.00  0.00     0.032 C 
HETATM   20  C   UNL     1     -43.520 -48.049   7.552  1.00  0.00     0.032 C 
ENDBRANCH  15  18
ENDBRANCH  13  14
ENDBRANCH  12  13
ENDBRANCH   9  12
ENDBRANCH   1   8
BRANCH   6  21
HETATM   21  N   UNL     1     -43.742 -53.688  14.621  1.00  0.00    -0.363 N 
HETATM   22  C   UNL     1     -44.339 -55.030  14.555  1.00  0.00     0.150 C 
HETATM   23  C   UNL     1     -45.742 -54.953  13.929  1.00  0.00     0.188 C 
HETATM   24  O   UNL     1     -46.576 -53.981  14.586  1.00  0.00    -0.383 OA
HETATM   25  C   UNL     1     -45.973 -52.678  14.496  1.00  0.00     0.135 C 
HETATM   26  C   UNL     1     -46.917 -51.660  15.119  1.00  0.00     0.041 C 
HETATM   27  C   UNL     1     -44.606 -52.662  15.209  1.00  0.00     0.155 C 
ENDBRANCH   6  21
TORSDOF 6
ENDMDL
MODEL 3
REMARK VINA RESULT:      -6.1      1.924      3.100
REMARK  6 active torsions:
REMARK  status: ('A' for Active; 'I' for Inactive)
REMARK    1  A    between atoms: C_2  and  N_4 
REMARK       I    between atoms: N_4  and  C_5 
REMARK    2  A    between atoms: C_5  and  C_7 
REMARK    3  A    between atoms: C_7  and  C_8 
REMARK    4  A    between atoms: C_8  and  N_9 
REMARK       I    between atoms: N_9  and  C_10 
REMARK    5  A    between atoms: C_10  and  C_12 
REMARK    6  A    between atoms: C_17  and  N_19 
ROOT
HETATM    1  C   UNL     1     -40.565 -50.854  11.935  1.00  0.00     0.036 A 
HETATM    2  C   UNL     1     -39.248 -50.645  12.313  1.00  0.00     0.034 A 
HETATM    3  C   UNL     1     -38.698 -49.420  12.013  1.00  0.00     0.090 A 
HETATM    4  N   UNL     1     -39.377 -48.420  11.404  1.00  0.00    -0.352 N 
ATOM      5  HN  UNL     1     -38.908 -47.543  11.180  1.00  0.00     0.166 HD
HETATM    6  C   UNL     1     -40.682 -48.594  11.096  1.00  0.00     0.104 A 
HETATM    7  C   UNL     1     -41.289 -49.820  11.337  1.00  0.00     0.065 A 
ENDROOT
BRANCH   1   8
HETATM    8  C   UNL     1     -41.208 -52.158  12.233  1.00  0.00     0.251 C 
HETATM    9  N   UNL     1     -42.590 -52.159  12.296  1.00  0.00    -0.356 N 
HETATM   10  H   UNL     1     -43.092 -51.374  11.903  1.00  0.00     0.162 HD
HETATM   11  O   UNL     1     -40.517 -53.159  12.382  1.00  0.00    -0.268 OA
BRANCH   9  12
HETATM   12  C   UNL     1     -43.305 -53.403  12.533  1.00  0.00     0.132 C 
BRANCH  12  13
HETATM   13  C   UNL     1     -43.864 -53.501  13.947  1.00  0.00     0.122 C 
BRANCH  13  14
HETATM   14  C   UNL     1     -43.068 -54.498  14.764  1.00  0.00     0.219 C 
HETATM   15  N   UNL     1     -41.826 -54.039  15.151  1.00  0.00    -0.357 N 
HETATM   16  H   UNL     1     -41.461 -53.194  14.731  1.00  0.00     0.162 HD
HETATM   17  O   UNL     1     -43.492 -55.610  15.063  1.00  0.00    -0.274 OA
BRANCH  15  18
HETATM   18  C   UNL     1     -40.909 -54.891  15.902  1.00  0.00     0.076 C 
HETATM   19  C   UNL     1     -39.551 -54.976  15.210  1.00  0.00     0.032 C 
HETATM   20  C   UNL     1     -40.759 -54.383  17.332  1.00  0.00     0.032 C 
ENDBRANCH  15  18
ENDBRANCH  13  14
ENDBRANCH  12  13
ENDBRANCH   9  12
ENDBRANCH   1   8
BRANCH   6  21
HETATM   21  N   UNL     1     -41.382 -47.510  10.619  1.00  0.00    -0.363 N 
HETATM   22  C   UNL     1     -40.780 -46.172  10.719  1.00  0.00     0.150 C 
HETATM   23  C   UNL     1     -41.879 -45.113  10.918  1.00  0.00     0.188 C 
HETATM   24  O   UNL     1     -42.912 -45.210   9.919  1.00  0.00    -0.383 OA
HETATM   25  C   UNL     1     -43.526 -46.509   9.975  1.00  0.00     0.135 C 
HETATM   26  C   UNL     1     -44.669 -46.551   8.972  1.00  0.00     0.041 C 
HETATM   27  C   UNL     1     -42.493 -47.612   9.669  1.00  0.00     0.155 C 
ENDBRANCH   6  21
TORSDOF 6
ENDMDL
MODEL 4
REMARK VINA RESULT:      -6.1      1.476      2.108
REMARK  6 active torsions:
REMARK  status: ('A' for Active; 'I' for Inactive)
REMARK    1  A    between atoms: C_2  and  N_4 
REMARK       I    between atoms: N_4  and  C_5 
REMARK    2  A    between atoms: C_5  and  C_7 
REMARK    3  A    between atoms: C_7  and  C_8 
REMARK    4  A    between atoms: C_8  and  N_9 
REMARK       I    between atoms: N_9  and  C_10 
REMARK    5  A    between atoms: C_10  and  C_12 
REMARK    6  A    between atoms: C_17  and  N_19 
ROOT
HETATM    1  C   UNL     1     -39.721 -50.972  12.426  1.00  0.00     0.036 A 
HETATM    2  C   UNL     1     -38.339 -50.866  12.386  1.00  0.00     0.034 A 
HETATM    3  C   UNL     1     -37.816 -49.708  11.858  1.00  0.00     0.090 A 
HETATM    4  N   UNL     1     -38.571 -48.677  11.412  1.00  0.00    -0.352 N 
ATOM      5  HN  UNL     1     -38.128 -47.855  11.003  1.00  0.00     0.166 HD
HETATM    6  C   UNL     1     -39.917 -48.746  11.513  1.00  0.00     0.104 A 
HETATM    7  C   UNL     1     -40.513 -49.903  12.001  1.00  0.00     0.065 A 
ENDROOT
BRANCH   1   8
HETATM    8  C   UNL     1     -40.339 -52.200  12.984  1.00  0.00     0.251 C 
HETATM    9  N   UNL     1     -41.644 -52.081  13.429  1.00  0.00    -0.356 N 
HETATM   10  H   UNL     1     -42.183 -51.277  13.135  1.00  0.00     0.162 HD
HETATM   11  O   UNL     1     -39.703 -53.247  13.007  1.00  0.00    -0.268 OA
BRANCH   9  12
HETATM   12  C   UNL     1     -42.344 -53.247  13.944  1.00  0.00     0.132 C 
BRANCH  12  13
HETATM   13  C   UNL     1     -43.307 -53.851  12.929  1.00  0.00     0.122 C 
BRANCH  13  14
HETATM   14  C   UNL     1     -44.704 -53.938  13.510  1.00  0.00     0.219 C 
HETATM   15  N   UNL     1     -45.026 -52.893  14.350  1.00  0.00    -0.357 N 
HETATM   16  H   UNL     1     -44.292 -52.270  14.665  1.00  0.00     0.162 HD
HETATM   17  O   UNL     1     -45.482 -54.851  13.251  1.00  0.00    -0.274 OA
BRANCH  15  18
HETATM   18  C   UNL     1     -46.315 -52.846  15.034  1.00  0.00     0.076 C 
HETATM   19  C   UNL     1     -46.175 -53.278  16.492  1.00  0.00     0.032 C 
HETATM   20  C   UNL     1     -46.919 -51.450  14.937  1.00  0.00     0.032 C 
ENDBRANCH  15  18
ENDBRANCH  13  14
ENDBRANCH  12  13
ENDBRANCH   9  12
ENDBRANCH   1   8
BRANCH   6  21
HETATM   21  N   UNL     1     -40.646 -47.624  11.193  1.00  0.00    -0.363 N 
HETATM   22  C   UNL     1     -42.053 -47.778  10.793  1.00  0.00     0.150 C 
HETATM   23  C   UNL     1     -42.432 -46.692   9.771  1.00  0.00     0.188 C 
HETATM   24  O   UNL     1     -42.105 -45.370  10.239  1.00  0.00    -0.383 OA
HETATM   25  C   UNL     1     -40.692 -45.275  10.490  1.00  0.00     0.135 C 
HETATM   26  C   UNL     1     -40.364 -43.846  10.897  1.00  0.00     0.041 C 
HETATM   27  C   UNL     1     -40.269 -46.266  11.593  1.00  0.00     0.155 C 
ENDBRANCH   6  21
TORSDOF 6
ENDMDL
MODEL 5
REMARK VINA RESULT:      -5.9      2.465      4.007
REMARK  6 active torsions:
REMARK  status: ('A' for Active; 'I' for Inactive)
REMARK    1  A    between atoms: C_2  and  N_4 
REMARK       I    between atoms: N_4  and  C_5 
REMARK    2  A    between atoms: C_5  and  C_7 
REMARK    3  A    between atoms: C_7  and  C_8 
REMARK    4  A    between atoms: C_8  and  N_9 
REMARK       I    between atoms: N_9  and  C_10 
REMARK    5  A    between atoms: C_10  and  C_12 
REMARK    6  A    between atoms: C_17  and  N_19 
ROOT
HETATM    1  C   UNL     1     -42.637 -53.295  12.811  1.00  0.00     0.036 A 
HETATM    2  C   UNL     1     -41.942 -54.292  13.478  1.00  0.00     0.034 A 
HETATM    3  C   UNL     1     -40.589 -54.103  13.651  1.00  0.00     0.090 A 
HETATM    4  N   UNL     1     -39.925 -53.000  13.234  1.00  0.00    -0.352 N 
ATOM      5  HN  UNL     1     -38.916 -52.928  13.363  1.00  0.00     0.166 HD
HETATM    6  C   UNL     1     -40.610 -51.994  12.645  1.00  0.00     0.104 A 
HETATM    7  C   UNL     1     -41.971 -52.135  12.405  1.00  0.00     0.065 A 
ENDROOT
BRANCH   1   8
HETATM    8  C   UNL     1     -44.097 -53.447  12.595  1.00  0.00     0.251 C 
HETATM    9  N   UNL     1     -44.820 -52.276  12.447  1.00  0.00    -0.356 N 
HETATM   10  H   UNL     1     -44.318 -51.423  12.242  1.00  0.00     0.162 HD
HETATM   11  O   UNL     1     -44.591 -54.567  12.534  1.00  0.00    -0.268 OA
BRANCH   9  12
HETATM   12  C   UNL     1     -46.248 -52.334  12.182  1.00  0.00     0.132 C 
BRANCH  12  13
HETATM   13  C   UNL     1     -47.064 -51.507  13.168  1.00  0.00     0.122 C 
BRANCH  13  14
HETATM   14  C   UNL     1     -46.879 -52.028  14.578  1.00  0.00     0.219 C 
HETATM   15  N   UNL     1     -46.855 -51.041  15.541  1.00  0.00    -0.357 N 
HETATM   16  H   UNL     1     -46.773 -50.074  15.252  1.00  0.00     0.162 HD
HETATM   17  O   UNL     1     -46.768 -53.221  14.843  1.00  0.00    -0.274 OA
BRANCH  15  18
HETATM   18  C   UNL     1     -46.635 -51.365  16.947  1.00  0.00     0.076 C 
HETATM   19  C   UNL     1     -45.670 -50.373  17.592  1.00  0.00     0.032 C 
HETATM   20  C   UNL     1     -47.961 -51.400  17.700  1.00  0.00     0.032 C 
ENDBRANCH  15  18
ENDBRANCH  13  14
ENDBRANCH  12  13
ENDBRANCH   9  12
ENDBRANCH   1   8
BRANCH   6  21
HETATM   21  N   UNL     1     -39.934 -50.827  12.372  1.00  0.00    -0.363 N 
HETATM   22  C   UNL     1     -38.474 -50.790  12.546  1.00  0.00     0.150 C 
HETATM   23  C   UNL     1     -38.031 -49.384  12.983  1.00  0.00     0.188 C 
HETATM   24  O   UNL     1     -38.535 -48.359  12.106  1.00  0.00    -0.383 OA
HETATM   25  C   UNL     1     -39.973 -48.391  12.092  1.00  0.00     0.135 C 
HETATM   26  C   UNL     1     -40.477 -47.244  11.228  1.00  0.00     0.041 C 
HETATM   27  C   UNL     1     -40.481 -49.743  11.551  1.00  0.00     0.155 C 
ENDBRANCH   6  21
TORSDOF 6
ENDMDL
MODEL 6
REMARK VINA RESULT:      -5.9      2.063      7.772
REMARK  6 active torsions:
REMARK  status: ('A' for Active; 'I' for Inactive)
REMARK    1  A    between atoms: C_2  and  N_4 
REMARK       I    between atoms: N_4  and  C_5 
REMARK    2  A    between atoms: C_5  and  C_7 
REMARK    3  A    between atoms: C_7  and  C_8 
REMARK    4  A    between atoms: C_8  and  N_9 
REMARK       I    between atoms: N_9  and  C_10 
REMARK    5  A    between atoms: C_10  and  C_12 
REMARK    6  A    between atoms: C_17  and  N_19 
ROOT
HETATM    1  C   UNL     1     -40.824 -50.225  13.051  1.00  0.00     0.036 A 
HETATM    2  C   UNL     1     -39.449 -50.386  12.964  1.00  0.00     0.034 A 
HETATM    3  C   UNL     1     -38.933 -51.586  13.397  1.00  0.00     0.090 A 
HETATM    4  N   UNL     1     -39.690 -52.605  13.868  1.00  0.00    -0.352 N 
ATOM      5  HN  UNL     1     -39.248 -53.461  14.203  1.00  0.00     0.166 HD
HETATM    6  C   UNL     1     -41.035 -52.479  13.889  1.00  0.00     0.104 A 
HETATM    7  C   UNL     1     -41.621 -51.279  13.502  1.00  0.00     0.065 A 
ENDROOT
BRANCH   1   8
HETATM    8  C   UNL     1     -41.434 -48.950  12.599  1.00  0.00     0.251 C 
HETATM    9  N   UNL     1     -40.715 -47.798  12.866  1.00  0.00    -0.356 N 
HETATM   10  H   UNL     1     -39.738 -47.885  13.111  1.00  0.00     0.162 HD
HETATM   11  O   UNL     1     -42.505 -48.964  12.004  1.00  0.00    -0.268 OA
BRANCH   9  12
HETATM   12  C   UNL     1     -41.215 -46.510  12.414  1.00  0.00     0.132 C 
BRANCH  12  13
HETATM   13  C   UNL     1     -40.819 -46.196  10.977  1.00  0.00     0.122 C 
BRANCH  13  14
HETATM   14  C   UNL     1     -42.052 -45.989  10.120  1.00  0.00     0.219 C 
HETATM   15  N   UNL     1     -42.501 -47.137   9.500  1.00  0.00    -0.357 N 
HETATM   16  H   UNL     1     -41.908 -47.958   9.497  1.00  0.00     0.162 HD
HETATM   17  O   UNL     1     -42.607 -44.902   9.995  1.00  0.00    -0.274 OA
BRANCH  15  18
HETATM   18  C   UNL     1     -43.648 -47.106   8.599  1.00  0.00     0.076 C 
HETATM   19  C   UNL     1     -43.448 -48.065   7.428  1.00  0.00     0.032 C 
HETATM   20  C   UNL     1     -44.930 -47.435   9.357  1.00  0.00     0.032 C 
ENDBRANCH  15  18
ENDBRANCH  13  14
ENDBRANCH  12  13
ENDBRANCH   9  12
ENDBRANCH   1   8
BRANCH   6  21
HETATM   21  N   UNL     1     -41.782 -53.584  14.228  1.00  0.00    -0.363 N 
HETATM   22  C   UNL     1     -42.954 -53.930  13.410  1.00  0.00     0.150 C 
HETATM   23  C   UNL     1     -44.037 -54.577  14.290  1.00  0.00     0.188 C 
HETATM   24  O   UNL     1     -43.523 -55.680  15.061  1.00  0.00    -0.383 OA
HETATM   25  C   UNL     1     -42.461 -55.224  15.919  1.00  0.00     0.135 C 
HETATM   26  C   UNL     1     -41.999 -56.389  16.782  1.00  0.00     0.041 C 
HETATM   27  C   UNL     1     -41.291 -54.666  15.085  1.00  0.00     0.155 C 
ENDBRANCH   6  21
TORSDOF 6
ENDMDL
MODEL 7
REMARK VINA RESULT:      -5.8      2.735      3.454
REMARK  6 active torsions:
REMARK  status: ('A' for Active; 'I' for Inactive)
REMARK    1  A    between atoms: C_2  and  N_4 
REMARK       I    between atoms: N_4  and  C_5 
REMARK    2  A    between atoms: C_5  and  C_7 
REMARK    3  A    between atoms: C_7  and  C_8 
REMARK    4  A    between atoms: C_8  and  N_9 
REMARK       I    between atoms: N_9  and  C_10 
REMARK    5  A    between atoms: C_10  and  C_12 
REMARK    6  A    between atoms: C_17  and  N_19 
ROOT
HETATM    1  C   UNL     1     -38.194 -49.749  13.507  1.00  0.00     0.036 A 
HETATM    2  C   UNL     1     -37.501 -49.041  14.477  1.00  0.00     0.034 A 
HETATM    3  C   UNL     1     -37.751 -47.691  14.563  1.00  0.00     0.090 A 
HETATM    4  N   UNL     1     -38.643 -47.039  13.782  1.00  0.00    -0.352 N 
ATOM      5  HN  UNL     1     -38.764 -46.031  13.871  1.00  0.00     0.166 HD
HETATM    6  C   UNL     1     -39.372 -47.736  12.882  1.00  0.00     0.104 A 
HETATM    7  C   UNL     1     -39.143 -49.097  12.716  1.00  0.00     0.065 A 
ENDROOT
BRANCH   1   8
HETATM    8  C   UNL     1     -37.962 -51.208  13.368  1.00  0.00     0.251 C 
HETATM    9  N   UNL     1     -38.788 -52.032  14.113  1.00  0.00    -0.356 N 
HETATM   10  H   UNL     1     -39.637 -51.643  14.499  1.00  0.00     0.162 HD
HETATM   11  O   UNL     1     -37.095 -51.618  12.606  1.00  0.00    -0.268 OA
BRANCH   9  12
HETATM   12  C   UNL     1     -38.664 -53.476  14.000  1.00  0.00     0.132 C 
BRANCH  12  13
HETATM   13  C   UNL     1     -40.013 -54.186  14.009  1.00  0.00     0.122 C 
BRANCH  13  14
HETATM   14  C   UNL     1     -40.975 -53.507  13.056  1.00  0.00     0.219 C 
HETATM   15  N   UNL     1     -42.277 -53.465  13.512  1.00  0.00    -0.357 N 
HETATM   16  H   UNL     1     -42.535 -54.025  14.315  1.00  0.00     0.162 HD
HETATM   17  O   UNL     1     -40.629 -53.029  11.980  1.00  0.00    -0.274 OA
BRANCH  15  18
HETATM   18  C   UNL     1     -43.342 -52.890  12.697  1.00  0.00     0.076 C 
HETATM   19  C   UNL     1     -44.554 -53.818  12.648  1.00  0.00     0.032 C 
HETATM   20  C   UNL     1     -43.733 -51.514  13.224  1.00  0.00     0.032 C 
ENDBRANCH  15  18
ENDBRANCH  13  14
ENDBRANCH  12  13
ENDBRANCH   9  12
ENDBRANCH   1   8
BRANCH   6  21
HETATM   21  N   UNL     1     -40.375 -47.074  12.212  1.00  0.00    -0.363 N 
HETATM   22  C   UNL     1     -40.605 -45.650  12.499  1.00  0.00     0.150 C 
HETATM   23  C   UNL     1     -42.099 -45.317  12.347  1.00  0.00     0.188 C 
HETATM   24  O   UNL     1     -42.623 -45.743  11.075  1.00  0.00    -0.383 OA
HETATM   25  C   UNL     1     -42.465 -47.166  10.932  1.00  0.00     0.135 C 
HETATM   26  C   UNL     1     -43.105 -47.597   9.621  1.00  0.00     0.041 C 
HETATM   27  C   UNL     1     -40.972 -47.551  10.963  1.00  0.00     0.155 C 
ENDBRANCH   6  21
TORSDOF 6
ENDMDL
MODEL 8
REMARK VINA RESULT:      -5.5      3.986      9.769
REMARK  6 active torsions:
REMARK  status: ('A' for Active; 'I' for Inactive)
REMARK    1  A    between atoms: C_2  and  N_4 
REMARK       I    between atoms: N_4  and  C_5 
REMARK    2  A    between atoms: C_5  and  C_7 
REMARK    3  A    between atoms: C_7  and  C_8 
REMARK    4  A    between atoms: C_8  and  N_9 
REMARK       I    between atoms: N_9  and  C_10 
REMARK    5  A    between atoms: C_10  and  C_12 
REMARK    6  A    between atoms: C_17  and  N_19 
ROOT
HETATM    1  C   UNL     1     -41.451 -46.287  10.800  1.00  0.00     0.036 A 
HETATM    2  C   UNL     1     -42.821 -46.401  10.623  1.00  0.00     0.034 A 
HETATM    3  C   UNL     1     -43.361 -47.664  10.719  1.00  0.00     0.090 A 
HETATM    4  N   UNL     1     -42.637 -48.771  11.000  1.00  0.00    -0.352 N 
ATOM      5  HN  UNL     1     -43.087 -49.686  11.029  1.00  0.00     0.166 HD
HETATM    6  C   UNL     1     -41.312 -48.656  11.243  1.00  0.00     0.104 A 
HETATM    7  C   UNL     1     -40.696 -47.416  11.126  1.00  0.00     0.065 A 
ENDROOT
BRANCH   1   8
HETATM    8  C   UNL     1     -40.816 -44.949  10.706  1.00  0.00     0.251 C 
HETATM    9  N   UNL     1     -41.268 -43.992  11.598  1.00  0.00    -0.356 N 
HETATM   10  H   UNL     1     -41.797 -44.296  12.404  1.00  0.00     0.162 HD
HETATM   11  O   UNL     1     -39.926 -44.753   9.887  1.00  0.00    -0.268 OA
BRANCH   9  12
HETATM   12  C   UNL     1     -40.666 -42.669  11.609  1.00  0.00     0.132 C 
BRANCH  12  13
HETATM   13  C   UNL     1     -39.883 -42.389  12.886  1.00  0.00     0.122 C 
BRANCH  13  14
HETATM   14  C   UNL     1     -39.511 -40.923  12.970  1.00  0.00     0.219 C 
HETATM   15  N   UNL     1     -40.349 -40.092  12.256  1.00  0.00    -0.357 N 
HETATM   16  H   UNL     1     -41.006 -40.499  11.603  1.00  0.00     0.162 HD
HETATM   17  O   UNL     1     -38.555 -40.510  13.620  1.00  0.00    -0.274 OA
BRANCH  15  18
HETATM   18  C   UNL     1     -40.105 -38.654  12.188  1.00  0.00     0.076 C 
HETATM   19  C   UNL     1     -40.318 -38.131  10.770  1.00  0.00     0.032 C 
HETATM   20  C   UNL     1     -40.997 -37.915  13.179  1.00  0.00     0.032 C 
ENDBRANCH  15  18
ENDBRANCH  13  14
ENDBRANCH  12  13
ENDBRANCH   9  12
ENDBRANCH   1   8
BRANCH   6  21
HETATM   21  N   UNL     1     -40.635 -49.773  11.675  1.00  0.00    -0.363 N 
HETATM   22  C   UNL     1     -41.388 -51.014  11.916  1.00  0.00     0.150 C 
HETATM   23  C   UNL     1     -40.739 -51.808  13.063  1.00  0.00     0.188 C 
HETATM   24  O   UNL     1     -39.331 -52.018  12.849  1.00  0.00    -0.383 OA
HETATM   25  C   UNL     1     -38.658 -50.751  12.745  1.00  0.00     0.135 C 
HETATM   26  C   UNL     1     -37.163 -51.003  12.608  1.00  0.00     0.041 C 
HETATM   27  C   UNL     1     -39.188 -49.952  11.538  1.00  0.00     0.155 C 
ENDBRANCH   6  21
TORSDOF 6
ENDMDL
MODEL 9
REMARK VINA RESULT:      -5.5      2.586      4.323
REMARK  6 active torsions:
REMARK  status: ('A' for Active; 'I' for Inactive)
REMARK    1  A    between atoms: C_2  and  N_4 
REMARK       I    between atoms: N_4  and  C_5 
REMARK    2  A    between atoms: C_5  and  C_7 
REMARK    3  A    between atoms: C_7  and  C_8 
REMARK    4  A    between atoms: C_8  and  N_9 
REMARK       I    between atoms: N_9  and  C_10 
REMARK    5  A    between atoms: C_10  and  C_12 
REMARK    6  A    between atoms: C_17  and  N_19 
ROOT
HETATM    1  C   UNL     1     -41.915 -47.588  10.815  1.00  0.00     0.036 A 
HETATM    2  C   UNL     1     -42.826 -47.812   9.794  1.00  0.00     0.034 A 
HETATM    3  C   UNL     1     -43.537 -46.725   9.341  1.00  0.00     0.090 A 
HETATM    4  N   UNL     1     -43.372 -45.468   9.814  1.00  0.00    -0.352 N 
ATOM      5  HN  UNL     1     -43.949 -44.705   9.460  1.00  0.00     0.166 HD
HETATM    6  C   UNL     1     -42.436 -45.231  10.760  1.00  0.00     0.104 A 
HETATM    7  C   UNL     1     -41.709 -46.290  11.290  1.00  0.00     0.065 A 
ENDROOT
BRANCH   1   8
HETATM    8  C   UNL     1     -41.122 -48.725  11.344  1.00  0.00     0.251 C 
HETATM    9  N   UNL     1     -41.819 -49.895  11.591  1.00  0.00    -0.356 N 
HETATM   10  H   UNL     1     -42.737 -50.005  11.181  1.00  0.00     0.162 HD
HETATM   11  O   UNL     1     -39.915 -48.601  11.513  1.00  0.00    -0.268 OA
BRANCH   9  12
HETATM   12  C   UNL     1     -41.113 -51.074  12.063  1.00  0.00     0.132 C 
BRANCH  12  13
HETATM   13  C   UNL     1     -41.906 -52.359  11.856  1.00  0.00     0.122 C 
BRANCH  13  14
HETATM   14  C   UNL     1     -42.998 -52.481  12.899  1.00  0.00     0.219 C 
HETATM   15  N   UNL     1     -43.159 -53.759  13.394  1.00  0.00    -0.357 N 
HETATM   16  H   UNL     1     -42.701 -54.529  12.923  1.00  0.00     0.162 HD
HETATM   17  O   UNL     1     -43.675 -51.529  13.276  1.00  0.00    -0.274 OA
BRANCH  15  18
HETATM   18  C   UNL     1     -44.200 -54.063  14.370  1.00  0.00     0.076 C 
HETATM   19  C   UNL     1     -45.204 -55.064  13.803  1.00  0.00     0.032 C 
HETATM   20  C   UNL     1     -43.584 -54.584  15.663  1.00  0.00     0.032 C 
ENDBRANCH  15  18
ENDBRANCH  13  14
ENDBRANCH  12  13
ENDBRANCH   9  12
ENDBRANCH   1   8
BRANCH   6  21
HETATM   21  N   UNL     1     -42.188 -43.924  11.109  1.00  0.00    -0.363 N 
HETATM   22  C   UNL     1     -40.794 -43.472  11.238  1.00  0.00     0.150 C 
HETATM   23  C   UNL     1     -40.690 -42.389  12.326  1.00  0.00     0.188 C 
HETATM   24  O   UNL     1     -41.628 -41.317  12.116  1.00  0.00    -0.383 OA
HETATM   25  C   UNL     1     -42.971 -41.834  12.125  1.00  0.00     0.135 C 
HETATM   26  C   UNL     1     -43.941 -40.669  11.990  1.00  0.00     0.041 C 
HETATM   27  C   UNL     1     -43.171 -42.846  10.979  1.00  0.00     0.155 C 
ENDBRANCH   6  21
TORSDOF 6
ENDMDL
