MODEL 1
REMARK VINA RESULT:      -7.1      0.000      0.000
REMARK  5 active torsions:
REMARK  status: ('A' for Active; 'I' for Inactive)
REMARK    1  A    between atoms: C_7  and  N_8 
REMARK       I    between atoms: N_8  and  C_9 
REMARK       I    between atoms: C_9  and  N_11 
REMARK    2  A    between atoms: N_11  and  C_12 
REMARK    3  A    between atoms: C_12  and  C_17 
REMARK       I    between atoms: C_17  and  N_19 
REMARK    4  A    between atoms: N_19  and  C_20 
REMARK    5  A    between atoms: C_20  and  C_21 
ROOT
HETATM    1  N   UNL     1     -42.098 -48.204   9.536  1.00  0.00    -0.308 N 
HETATM    2  C   UNL     1     -41.582 -48.555  10.761  1.00  0.00     0.321 C 
HETATM    3  O   UNL     1     -42.031 -48.219  11.849  1.00  0.00    -0.247 OA
HETATM    4  N   UNL     1     -40.444 -49.326  10.666  1.00  0.00    -0.325 N 
HETATM    5  H   UNL     1     -41.689 -48.633   8.719  1.00  0.00     0.170 HD
HETATM    6  H   UNL     1     -40.441 -50.012   9.924  1.00  0.00     0.165 HD
ENDROOT
BRANCH   4   7
HETATM    7  C   UNL     1     -39.719 -49.723  11.891  1.00  0.00     0.115 C 
HETATM    8  C   UNL     1     -39.299 -48.512  12.758  1.00  0.00     0.041 C 
HETATM    9  C   UNL     1     -37.913 -48.812  13.324  1.00  0.00     0.003 C 
HETATM   10  C   UNL     1     -37.509 -50.165  12.767  1.00  0.00     0.003 C 
HETATM   11  C   UNL     1     -38.355 -50.335  11.513  1.00  0.00     0.041 C 
BRANCH   7  12
HETATM   12  C   UNL     1     -40.566 -50.805  12.637  1.00  0.00     0.246 C 
HETATM   13  O   UNL     1     -41.065 -50.592  13.745  1.00  0.00    -0.271 OA
HETATM   14  N   UNL     1     -40.611 -52.046  12.044  1.00  0.00    -0.359 N 
HETATM   15  H   UNL     1     -39.824 -52.282  11.439  1.00  0.00     0.162 HD
BRANCH  14  16
HETATM   16  C   UNL     1     -41.370 -53.134  12.611  1.00  0.00     0.127 C 
BRANCH  16  17
HETATM   17  C   UNL     1     -40.437 -54.139  13.214  1.00  0.00     0.003 A 
HETATM   18  C   UNL     1     -40.470 -54.444  14.694  1.00  0.00     0.007 A 
HETATM   19  C   UNL     1     -39.313 -53.684  14.115  1.00  0.00     0.007 A 
ENDBRANCH  16  17
ENDBRANCH  14  16
ENDBRANCH   7  12
ENDBRANCH   4   7
BRANCH   1  20
HETATM   20  C   UNL     1     -43.199 -47.334   9.341  1.00  0.00     0.052 A 
HETATM   21  C   UNL     1     -43.096 -45.945   9.269  1.00  0.00     0.117 A 
HETATM   22  N   UNL     1     -44.144 -45.101   9.109  1.00  0.00    -0.373 N 
HETATM   23  C   UNL     1     -45.363 -45.662   9.020  1.00  0.00     0.094 A 
ATOM     24  HN  UNL     1     -44.014 -44.090   9.058  1.00  0.00     0.164 HD
HETATM   25  C   UNL     1     -45.592 -47.032   9.060  1.00  0.00    -0.044 A 
HETATM   26  C   UNL     1     -46.985 -47.571   8.968  1.00  0.00     0.049 C 
HETATM   27  C   UNL     1     -44.481 -47.877   9.206  1.00  0.00     0.039 A 
ENDBRANCH   1  20
TORSDOF 5
ENDMDL
MODEL 2
REMARK VINA RESULT:      -6.8      2.885      4.365
REMARK  5 active torsions:
REMARK  status: ('A' for Active; 'I' for Inactive)
REMARK    1  A    between atoms: C_7  and  N_8 
REMARK       I    between atoms: N_8  and  C_9 
REMARK       I    between atoms: C_9  and  N_11 
REMARK    2  A    between atoms: N_11  and  C_12 
REMARK    3  A    between atoms: C_12  and  C_17 
REMARK       I    between atoms: C_17  and  N_19 
REMARK    4  A    between atoms: N_19  and  C_20 
REMARK    5  A    between atoms: C_20  and  C_21 
ROOT
HETATM    1  N   UNL     1     -41.713 -49.342  10.861  1.00  0.00    -0.308 N 
HETATM    2  C   UNL     1     -41.800 -50.100  12.005  1.00  0.00     0.321 C 
HETATM    3  O   UNL     1     -42.129 -49.690  13.111  1.00  0.00    -0.247 OA
HETATM    4  N   UNL     1     -41.441 -51.415  11.809  1.00  0.00    -0.325 N 
HETATM    5  H   UNL     1     -41.528 -49.826   9.995  1.00  0.00     0.170 HD
HETATM    6  H   UNL     1     -41.735 -51.824  10.934  1.00  0.00     0.165 HD
ENDROOT
BRANCH   4   7
HETATM    7  C   UNL     1     -41.403 -52.347  12.955  1.00  0.00     0.115 C 
HETATM    8  C   UNL     1     -40.512 -51.837  14.114  1.00  0.00     0.041 C 
HETATM    9  C   UNL     1     -39.779 -53.044  14.694  1.00  0.00     0.003 C 
HETATM   10  C   UNL     1     -40.205 -54.241  13.864  1.00  0.00     0.003 C 
HETATM   11  C   UNL     1     -40.682 -53.647  12.546  1.00  0.00     0.041 C 
BRANCH   7  12
HETATM   12  C   UNL     1     -42.873 -52.694  13.359  1.00  0.00     0.246 C 
HETATM   13  O   UNL     1     -43.642 -53.273  12.587  1.00  0.00    -0.271 OA
HETATM   14  N   UNL     1     -43.294 -52.202  14.574  1.00  0.00    -0.359 N 
HETATM   15  H   UNL     1     -42.811 -51.369  14.911  1.00  0.00     0.162 HD
BRANCH  14  16
HETATM   16  C   UNL     1     -44.619 -52.462  15.083  1.00  0.00     0.127 C 
BRANCH  16  17
HETATM   17  C   UNL     1     -45.530 -51.331  14.716  1.00  0.00     0.003 A 
HETATM   18  C   UNL     1     -47.005 -51.381  15.041  1.00  0.00     0.007 A 
HETATM   19  C   UNL     1     -46.551 -51.508  13.616  1.00  0.00     0.007 A 
ENDBRANCH  16  17
ENDBRANCH  14  16
ENDBRANCH   7  12
ENDBRANCH   4   7
BRANCH   1  20
HETATM   20  C   UNL     1     -41.925 -47.943  10.800  1.00  0.00     0.052 A 
HETATM   21  C   UNL     1     -43.177 -47.347  10.639  1.00  0.00     0.117 A 
HETATM   22  N   UNL     1     -43.389 -46.012  10.553  1.00  0.00    -0.373 N 
HETATM   23  C   UNL     1     -42.303 -45.221  10.625  1.00  0.00     0.094 A 
ATOM     24  HN  UNL     1     -44.327 -45.626  10.440  1.00  0.00     0.164 HD
HETATM   25  C   UNL     1     -41.009 -45.694  10.802  1.00  0.00    -0.044 A 
HETATM   26  C   UNL     1     -39.855 -44.743  10.858  1.00  0.00     0.049 C 
HETATM   27  C   UNL     1     -40.828 -47.082  10.908  1.00  0.00     0.039 A 
ENDBRANCH   1  20
TORSDOF 5
ENDMDL
MODEL 3
REMARK VINA RESULT:      -6.7      2.238      7.345
REMARK  5 active torsions:
REMARK  status: ('A' for Active; 'I' for Inactive)
REMARK    1  A    between atoms: C_7  and  N_8 
REMARK       I    between atoms: N_8  and  C_9 
REMARK       I    between atoms: C_9  and  N_11 
REMARK    2  A    between atoms: N_11  and  C_12 
REMARK    3  A    between atoms: C_12  and  C_17 
REMARK       I    between atoms: C_17  and  N_19 
REMARK    4  A    between atoms: N_19  and  C_20 
REMARK    5  A    between atoms: C_20  and  C_21 
ROOT
HETATM    1  N   UNL     1     -40.361 -49.806  10.810  1.00  0.00    -0.308 N 
HETATM    2  C   UNL     1     -41.301 -48.820  10.997  1.00  0.00     0.321 C 
HETATM    3  O   UNL     1     -41.714 -48.421  12.077  1.00  0.00    -0.247 OA
HETATM    4  N   UNL     1     -41.790 -48.311   9.813  1.00  0.00    -0.325 N 
HETATM    5  H   UNL     1     -40.036 -49.967   9.868  1.00  0.00     0.170 HD
HETATM    6  H   UNL     1     -41.114 -48.202   9.071  1.00  0.00     0.165 HD
ENDROOT
BRANCH   4   7
HETATM    7  C   UNL     1     -42.865 -47.298   9.836  1.00  0.00     0.115 C 
HETATM    8  C   UNL     1     -44.144 -47.797  10.550  1.00  0.00     0.041 C 
HETATM    9  C   UNL     1     -45.344 -47.258   9.773  1.00  0.00     0.003 C 
HETATM   10  C   UNL     1     -44.777 -46.484   8.598  1.00  0.00     0.003 C 
HETATM   11  C   UNL     1     -43.376 -47.048   8.403  1.00  0.00     0.041 C 
BRANCH   7  12
HETATM   12  C   UNL     1     -42.276 -45.963  10.399  1.00  0.00     0.246 C 
HETATM   13  O   UNL     1     -41.402 -45.332   9.799  1.00  0.00    -0.271 OA
HETATM   14  N   UNL     1     -42.696 -45.606  11.660  1.00  0.00    -0.359 N 
HETATM   15  H   UNL     1     -43.005 -46.370  12.262  1.00  0.00     0.162 HD
BRANCH  14  16
HETATM   16  C   UNL     1     -42.250 -44.390  12.295  1.00  0.00     0.127 C 
BRANCH  16  17
HETATM   17  C   UNL     1     -41.257 -44.718  13.369  1.00  0.00     0.003 A 
HETATM   18  C   UNL     1     -40.118 -43.778  13.690  1.00  0.00     0.007 A 
HETATM   19  C   UNL     1     -39.838 -45.081  13.001  1.00  0.00     0.007 A 
ENDBRANCH  16  17
ENDBRANCH  14  16
ENDBRANCH   7  12
ENDBRANCH   4   7
BRANCH   1  20
HETATM   20  C   UNL     1     -39.771 -50.568  11.848  1.00  0.00     0.052 A 
HETATM   21  C   UNL     1     -38.487 -50.349  12.347  1.00  0.00     0.117 A 
HETATM   22  N   UNL     1     -37.903 -51.087  13.322  1.00  0.00    -0.373 N 
HETATM   23  C   UNL     1     -38.627 -52.101  13.828  1.00  0.00     0.094 A 
ATOM     24  HN  UNL     1     -36.960 -50.883  13.656  1.00  0.00     0.164 HD
HETATM   25  C   UNL     1     -39.921 -52.407  13.426  1.00  0.00    -0.044 A 
HETATM   26  C   UNL     1     -40.650 -53.564  14.035  1.00  0.00     0.049 C 
HETATM   27  C   UNL     1     -40.503 -51.609  12.430  1.00  0.00     0.039 A 
ENDBRANCH   1  20
TORSDOF 5
ENDMDL
MODEL 4
REMARK VINA RESULT:      -6.7      1.864      7.066
REMARK  5 active torsions:
REMARK  status: ('A' for Active; 'I' for Inactive)
REMARK    1  A    between atoms: C_7  and  N_8 
REMARK       I    between atoms: N_8  and  C_9 
REMARK       I    between atoms: C_9  and  N_11 
REMARK    2  A    between atoms: N_11  and  C_12 
REMARK    3  A    between atoms: C_12  and  C_17 
REMARK       I    between atoms: C_17  and  N_19 
REMARK    4  A    between atoms: N_19  and  C_20 
REMARK    5  A    between atoms: C_20  and  C_21 
ROOT
HETATM    1  N   UNL     1     -40.807 -50.840  11.289  1.00  0.00    -0.308 N 
HETATM    2  C   UNL     1     -41.128 -49.557  11.666  1.00  0.00     0.321 C 
HETATM    3  O   UNL     1     -41.684 -49.235  12.708  1.00  0.00    -0.247 OA
HETATM    4  N   UNL     1     -40.787 -48.616  10.718  1.00  0.00    -0.325 N 
HETATM    5  H   UNL     1     -40.259 -50.955  10.450  1.00  0.00     0.170 HD
HETATM    6  H   UNL     1     -39.914 -48.776  10.237  1.00  0.00     0.165 HD
ENDROOT
BRANCH   4   7
HETATM    7  C   UNL     1     -41.135 -47.196  10.933  1.00  0.00     0.115 C 
HETATM    8  C   UNL     1     -39.900 -46.264  10.903  1.00  0.00     0.041 C 
HETATM    9  C   UNL     1     -40.104 -45.197  11.975  1.00  0.00     0.003 C 
HETATM   10  C   UNL     1     -41.425 -45.518  12.651  1.00  0.00     0.003 C 
HETATM   11  C   UNL     1     -41.650 -46.998  12.373  1.00  0.00     0.041 C 
BRANCH   7  12
HETATM   12  C   UNL     1     -42.275 -46.810   9.934  1.00  0.00     0.246 C 
HETATM   13  O   UNL     1     -42.401 -45.662   9.501  1.00  0.00    -0.271 OA
HETATM   14  N   UNL     1     -43.201 -47.794   9.671  1.00  0.00    -0.359 N 
HETATM   15  H   UNL     1     -43.319 -48.503  10.395  1.00  0.00     0.162 HD
BRANCH  14  16
HETATM   16  C   UNL     1     -44.295 -47.584   8.754  1.00  0.00     0.127 C 
BRANCH  16  17
HETATM   17  C   UNL     1     -45.597 -47.768   9.472  1.00  0.00     0.003 A 
HETATM   18  C   UNL     1     -46.773 -48.434   8.795  1.00  0.00     0.007 A 
HETATM   19  C   UNL     1     -46.806 -46.958   9.067  1.00  0.00     0.007 A 
ENDBRANCH  16  17
ENDBRANCH  14  16
ENDBRANCH   7  12
ENDBRANCH   4   7
BRANCH   1  20
HETATM   20  C   UNL     1     -41.136 -52.004  12.025  1.00  0.00     0.052 A 
HETATM   21  C   UNL     1     -42.397 -52.602  12.022  1.00  0.00     0.117 A 
HETATM   22  N   UNL     1     -42.731 -53.700  12.741  1.00  0.00    -0.373 N 
HETATM   23  C   UNL     1     -41.766 -54.236  13.511  1.00  0.00     0.094 A 
ATOM     24  HN  UNL     1     -43.669 -54.102  12.702  1.00  0.00     0.164 HD
HETATM   25  C   UNL     1     -40.469 -53.743  13.584  1.00  0.00    -0.044 A 
HETATM   26  C   UNL     1     -39.460 -54.393  14.477  1.00  0.00     0.049 C 
HETATM   27  C   UNL     1     -40.153 -52.616  12.809  1.00  0.00     0.039 A 
ENDBRANCH   1  20
TORSDOF 5
ENDMDL
MODEL 5
REMARK VINA RESULT:      -6.3      2.340      3.512
REMARK  5 active torsions:
REMARK  status: ('A' for Active; 'I' for Inactive)
REMARK    1  A    between atoms: C_7  and  N_8 
REMARK       I    between atoms: N_8  and  C_9 
REMARK       I    between atoms: C_9  and  N_11 
REMARK    2  A    between atoms: N_11  and  C_12 
REMARK    3  A    between atoms: C_12  and  C_17 
REMARK       I    between atoms: C_17  and  N_19 
REMARK    4  A    between atoms: N_19  and  C_20 
REMARK    5  A    between atoms: C_20  and  C_21 
ROOT
HETATM    1  N   UNL     1     -41.516 -49.327  10.621  1.00  0.00    -0.308 N 
HETATM    2  C   UNL     1     -41.610 -50.004  11.813  1.00  0.00     0.321 C 
HETATM    3  O   UNL     1     -41.943 -49.520  12.887  1.00  0.00    -0.247 OA
HETATM    4  N   UNL     1     -41.253 -51.331  11.708  1.00  0.00    -0.325 N 
HETATM    5  H   UNL     1     -41.327 -49.869   9.791  1.00  0.00     0.170 HD
HETATM    6  H   UNL     1     -41.544 -51.798  10.861  1.00  0.00     0.165 HD
ENDROOT
BRANCH   4   7
HETATM    7  C   UNL     1     -41.223 -52.183  12.915  1.00  0.00     0.115 C 
HETATM    8  C   UNL     1     -40.121 -51.765  13.918  1.00  0.00     0.041 C 
HETATM    9  C   UNL     1     -39.528 -53.042  14.507  1.00  0.00     0.003 C 
HETATM   10  C   UNL     1     -40.247 -54.197  13.833  1.00  0.00     0.003 C 
HETATM   11  C   UNL     1     -40.784 -53.611  12.534  1.00  0.00     0.041 C 
BRANCH   7  12
HETATM   12  C   UNL     1     -42.667 -52.244  13.513  1.00  0.00     0.246 C 
HETATM   13  O   UNL     1     -42.886 -52.042  14.710  1.00  0.00    -0.271 OA
HETATM   14  N   UNL     1     -43.655 -52.661  12.651  1.00  0.00    -0.359 N 
HETATM   15  H   UNL     1     -43.354 -53.251  11.876  1.00  0.00     0.162 HD
BRANCH  14  16
HETATM   16  C   UNL     1     -45.037 -52.745  13.061  1.00  0.00     0.127 C 
BRANCH  16  17
HETATM   17  C   UNL     1     -45.423 -54.182  13.235  1.00  0.00     0.003 A 
HETATM   18  C   UNL     1     -46.072 -54.665  14.512  1.00  0.00     0.007 A 
HETATM   19  C   UNL     1     -44.658 -55.060  14.198  1.00  0.00     0.007 A 
ENDBRANCH  16  17
ENDBRANCH  14  16
ENDBRANCH   7  12
ENDBRANCH   4   7
BRANCH   1  20
HETATM   20  C   UNL     1     -41.724 -47.934  10.463  1.00  0.00     0.052 A 
HETATM   21  C   UNL     1     -40.861 -46.954  10.953  1.00  0.00     0.117 A 
HETATM   22  N   UNL     1     -41.062 -45.619  10.832  1.00  0.00    -0.373 N 
HETATM   23  C   UNL     1     -42.182 -45.232  10.194  1.00  0.00     0.094 A 
ATOM     24  HN  UNL     1     -40.397 -44.941  11.205  1.00  0.00     0.164 HD
HETATM   25  C   UNL     1     -43.108 -46.113   9.648  1.00  0.00    -0.044 A 
HETATM   26  C   UNL     1     -44.336 -45.596   8.967  1.00  0.00     0.049 C 
HETATM   27  C   UNL     1     -42.857 -47.488   9.775  1.00  0.00     0.039 A 
ENDBRANCH   1  20
TORSDOF 5
ENDMDL
MODEL 6
REMARK VINA RESULT:      -6.2      2.978      6.222
REMARK  5 active torsions:
REMARK  status: ('A' for Active; 'I' for Inactive)
REMARK    1  A    between atoms: C_7  and  N_8 
REMARK       I    between atoms: N_8  and  C_9 
REMARK       I    between atoms: C_9  and  N_11 
REMARK    2  A    between atoms: N_11  and  C_12 
REMARK    3  A    between atoms: C_12  and  C_17 
REMARK       I    between atoms: C_17  and  N_19 
REMARK    4  A    between atoms: N_19  and  C_20 
REMARK    5  A    between atoms: C_20  and  C_21 
ROOT
HETATM    1  N   UNL     1     -42.654 -52.246  11.891  1.00  0.00    -0.308 N 
HETATM    2  C   UNL     1     -41.678 -51.442  12.431  1.00  0.00     0.321 C 
HETATM    3  O   UNL     1     -41.588 -51.120  13.609  1.00  0.00    -0.247 OA
HETATM    4  N   UNL     1     -40.783 -50.978  11.493  1.00  0.00    -0.325 N 
HETATM    5  H   UNL     1     -42.554 -52.514  10.924  1.00  0.00     0.170 HD
HETATM    6  H   UNL     1     -40.525 -51.635  10.771  1.00  0.00     0.165 HD
ENDROOT
BRANCH   4   7
HETATM    7  C   UNL     1     -39.717 -50.037  11.895  1.00  0.00     0.115 C 
HETATM    8  C   UNL     1     -38.461 -50.132  10.996  1.00  0.00     0.041 C 
HETATM    9  C   UNL     1     -37.238 -49.971  11.896  1.00  0.00     0.003 C 
HETATM   10  C   UNL     1     -37.767 -49.820  13.311  1.00  0.00     0.003 C 
HETATM   11  C   UNL     1     -39.155 -50.445  13.273  1.00  0.00     0.041 C 
BRANCH   7  12
HETATM   12  C   UNL     1     -40.337 -48.606  12.010  1.00  0.00     0.246 C 
HETATM   13  O   UNL     1     -40.815 -48.186  13.066  1.00  0.00    -0.271 OA
HETATM   14  N   UNL     1     -40.432 -47.898  10.834  1.00  0.00    -0.359 N 
HETATM   15  H   UNL     1     -40.479 -48.452   9.979  1.00  0.00     0.162 HD
BRANCH  14  16
HETATM   16  C   UNL     1     -40.964 -46.557  10.793  1.00  0.00     0.127 C 
BRANCH  16  17
HETATM   17  C   UNL     1     -39.852 -45.568  10.965  1.00  0.00     0.003 A 
HETATM   18  C   UNL     1     -40.111 -44.082  10.876  1.00  0.00     0.007 A 
HETATM   19  C   UNL     1     -39.355 -44.774   9.780  1.00  0.00     0.007 A 
ENDBRANCH  16  17
ENDBRANCH  14  16
ENDBRANCH   7  12
ENDBRANCH   4   7
BRANCH   1  20
HETATM   20  C   UNL     1     -43.756 -52.773  12.608  1.00  0.00     0.052 A 
HETATM   21  C   UNL     1     -43.986 -54.136  12.799  1.00  0.00     0.117 A 
HETATM   22  N   UNL     1     -45.048 -54.653  13.462  1.00  0.00    -0.373 N 
HETATM   23  C   UNL     1     -45.937 -53.774  13.958  1.00  0.00     0.094 A 
ATOM     24  HN  UNL     1     -45.169 -55.660  13.577  1.00  0.00     0.164 HD
HETATM   25  C   UNL     1     -45.809 -52.395  13.848  1.00  0.00    -0.044 A 
HETATM   26  C   UNL     1     -46.854 -51.489  14.420  1.00  0.00     0.049 C 
HETATM   27  C   UNL     1     -44.685 -51.894  13.174  1.00  0.00     0.039 A 
ENDBRANCH   1  20
TORSDOF 5
ENDMDL
MODEL 7
REMARK VINA RESULT:      -6.1      3.961      5.375
REMARK  5 active torsions:
REMARK  status: ('A' for Active; 'I' for Inactive)
REMARK    1  A    between atoms: C_7  and  N_8 
REMARK       I    between atoms: N_8  and  C_9 
REMARK       I    between atoms: C_9  and  N_11 
REMARK    2  A    between atoms: N_11  and  C_12 
REMARK    3  A    between atoms: C_12  and  C_17 
REMARK       I    between atoms: C_17  and  N_19 
REMARK    4  A    between atoms: N_19  and  C_20 
REMARK    5  A    between atoms: C_20  and  C_21 
ROOT
HETATM    1  N   UNL     1     -42.224 -49.293  11.504  1.00  0.00    -0.308 N 
HETATM    2  C   UNL     1     -42.805 -50.020  12.516  1.00  0.00     0.321 C 
HETATM    3  O   UNL     1     -43.356 -49.556  13.505  1.00  0.00    -0.247 OA
HETATM    4  N   UNL     1     -42.685 -51.381  12.338  1.00  0.00    -0.325 N 
HETATM    5  H   UNL     1     -41.893 -49.800  10.696  1.00  0.00     0.170 HD
HETATM    6  H   UNL     1     -42.782 -51.709  11.388  1.00  0.00     0.165 HD
ENDROOT
BRANCH   4   7
HETATM    7  C   UNL     1     -43.186 -52.306  13.376  1.00  0.00     0.115 C 
HETATM    8  C   UNL     1     -42.512 -52.087  14.751  1.00  0.00     0.041 C 
HETATM    9  C   UNL     1     -42.298 -53.461  15.382  1.00  0.00     0.003 C 
HETATM   10  C   UNL     1     -42.806 -54.476  14.374  1.00  0.00     0.003 C 
HETATM   11  C   UNL     1     -42.761 -53.749  13.037  1.00  0.00     0.041 C 
BRANCH   7  12
HETATM   12  C   UNL     1     -44.749 -52.233  13.389  1.00  0.00     0.246 C 
HETATM   13  O   UNL     1     -45.429 -52.661  12.453  1.00  0.00    -0.271 OA
HETATM   14  N   UNL     1     -45.308 -51.552  14.445  1.00  0.00    -0.359 N 
HETATM   15  H   UNL     1     -44.720 -50.843  14.884  1.00  0.00     0.162 HD
BRANCH  14  16
HETATM   16  C   UNL     1     -46.738 -51.423  14.597  1.00  0.00     0.127 C 
BRANCH  16  17
HETATM   17  C   UNL     1     -47.134 -51.820  15.986  1.00  0.00     0.003 A 
HETATM   18  C   UNL     1     -48.138 -51.008  16.772  1.00  0.00     0.007 A 
HETATM   19  C   UNL     1     -46.690 -50.988  17.167  1.00  0.00     0.007 A 
ENDBRANCH  16  17
ENDBRANCH  14  16
ENDBRANCH   7  12
ENDBRANCH   4   7
BRANCH   1  20
HETATM   20  C   UNL     1     -42.112 -47.881  11.484  1.00  0.00     0.052 A 
HETATM   21  C   UNL     1     -43.092 -47.011  11.963  1.00  0.00     0.117 A 
HETATM   22  N   UNL     1     -43.008 -45.659  11.927  1.00  0.00    -0.373 N 
HETATM   23  C   UNL     1     -41.894 -45.138  11.382  1.00  0.00     0.094 A 
ATOM     24  HN  UNL     1     -43.753 -45.067  12.295  1.00  0.00     0.164 HD
HETATM   25  C   UNL     1     -40.842 -45.899  10.888  1.00  0.00    -0.044 A 
HETATM   26  C   UNL     1     -39.644 -45.235  10.285  1.00  0.00     0.049 C 
HETATM   27  C   UNL     1     -40.954 -47.296  10.961  1.00  0.00     0.039 A 
ENDBRANCH   1  20
TORSDOF 5
ENDMDL
MODEL 8
REMARK VINA RESULT:      -6.0      1.887      4.393
REMARK  5 active torsions:
REMARK  status: ('A' for Active; 'I' for Inactive)
REMARK    1  A    between atoms: C_7  and  N_8 
REMARK       I    between atoms: N_8  and  C_9 
REMARK       I    between atoms: C_9  and  N_11 
REMARK    2  A    between atoms: N_11  and  C_12 
REMARK    3  A    between atoms: C_12  and  C_17 
REMARK       I    between atoms: C_17  and  N_19 
REMARK    4  A    between atoms: N_19  and  C_20 
REMARK    5  A    between atoms: C_20  and  C_21 
ROOT
HETATM    1  N   UNL     1     -41.770 -49.462  10.888  1.00  0.00    -0.308 N 
HETATM    2  C   UNL     1     -41.654 -50.143  12.077  1.00  0.00     0.321 C 
HETATM    3  O   UNL     1     -41.795 -49.663  13.194  1.00  0.00    -0.247 OA
HETATM    4  N   UNL     1     -41.317 -51.469  11.907  1.00  0.00    -0.325 N 
HETATM    5  H   UNL     1     -41.729 -50.001  10.037  1.00  0.00     0.170 HD
HETATM    6  H   UNL     1     -41.751 -51.934  11.123  1.00  0.00     0.165 HD
ENDROOT
BRANCH   4   7
HETATM    7  C   UNL     1     -41.075 -52.324  13.088  1.00  0.00     0.115 C 
HETATM    8  C   UNL     1     -41.390 -53.815  12.823  1.00  0.00     0.041 C 
HETATM    9  C   UNL     1     -42.036 -54.379  14.087  1.00  0.00     0.003 C 
HETATM   10  C   UNL     1     -42.133 -53.225  15.067  1.00  0.00     0.003 C 
HETATM   11  C   UNL     1     -42.086 -51.976  14.199  1.00  0.00     0.041 C 
BRANCH   7  12
HETATM   12  C   UNL     1     -39.631 -52.039  13.616  1.00  0.00     0.246 C 
HETATM   13  O   UNL     1     -38.703 -52.832  13.436  1.00  0.00    -0.271 OA
HETATM   14  N   UNL     1     -39.489 -50.918  14.401  1.00  0.00    -0.359 N 
HETATM   15  H   UNL     1     -40.327 -50.606  14.892  1.00  0.00     0.162 HD
BRANCH  14  16
HETATM   16  C   UNL     1     -38.210 -50.522  14.940  1.00  0.00     0.127 C 
BRANCH  16  17
HETATM   17  C   UNL     1     -37.571 -49.516  14.033  1.00  0.00     0.003 A 
HETATM   18  C   UNL     1     -37.490 -48.058  14.421  1.00  0.00     0.007 A 
HETATM   19  C   UNL     1     -38.421 -48.487  13.326  1.00  0.00     0.007 A 
ENDBRANCH  16  17
ENDBRANCH  14  16
ENDBRANCH   7  12
ENDBRANCH   4   7
BRANCH   1  20
HETATM   20  C   UNL     1     -42.006 -48.070  10.775  1.00  0.00     0.052 A 
HETATM   21  C   UNL     1     -43.271 -47.500  10.626  1.00  0.00     0.117 A 
HETATM   22  N   UNL     1     -43.508 -46.173  10.491  1.00  0.00    -0.373 N 
HETATM   23  C   UNL     1     -42.433 -45.364  10.497  1.00  0.00     0.094 A 
ATOM     24  HN  UNL     1     -44.454 -45.805  10.389  1.00  0.00     0.164 HD
HETATM   25  C   UNL     1     -41.126 -45.810  10.655  1.00  0.00    -0.044 A 
HETATM   26  C   UNL     1     -39.987 -44.840  10.636  1.00  0.00     0.049 C 
HETATM   27  C   UNL     1     -40.921 -47.189  10.813  1.00  0.00     0.039 A 
ENDBRANCH   1  20
TORSDOF 5
ENDMDL
MODEL 9
REMARK VINA RESULT:      -5.9      3.702      5.693
REMARK  5 active torsions:
REMARK  status: ('A' for Active; 'I' for Inactive)
REMARK    1  A    between atoms: C_7  and  N_8 
REMARK       I    between atoms: N_8  and  C_9 
REMARK       I    between atoms: C_9  and  N_11 
REMARK    2  A    between atoms: N_11  and  C_12 
REMARK    3  A    between atoms: C_12  and  C_17 
REMARK       I    between atoms: C_17  and  N_19 
REMARK    4  A    between atoms: N_19  and  C_20 
REMARK    5  A    between atoms: C_20  and  C_21 
ROOT
HETATM    1  N   UNL     1     -43.922 -51.890  12.508  1.00  0.00    -0.308 N 
HETATM    2  C   UNL     1     -42.869 -51.154  12.997  1.00  0.00     0.321 C 
HETATM    3  O   UNL     1     -42.595 -50.995  14.179  1.00  0.00    -0.247 OA
HETATM    4  N   UNL     1     -42.125 -50.553  12.005  1.00  0.00    -0.325 N 
HETATM    5  H   UNL     1     -43.974 -52.023  11.509  1.00  0.00     0.170 HD
HETATM    6  H   UNL     1     -41.986 -51.102  11.168  1.00  0.00     0.165 HD
ENDROOT
BRANCH   4   7
HETATM    7  C   UNL     1     -41.003 -49.661  12.364  1.00  0.00     0.115 C 
HETATM    8  C   UNL     1     -41.445 -48.462  13.236  1.00  0.00     0.041 C 
HETATM    9  C   UNL     1     -40.649 -47.243  12.779  1.00  0.00     0.003 C 
HETATM   10  C   UNL     1     -39.777 -47.710  11.627  1.00  0.00     0.003 C 
HETATM   11  C   UNL     1     -40.473 -48.957  11.098  1.00  0.00     0.041 C 
BRANCH   7  12
HETATM   12  C   UNL     1     -39.855 -50.531  12.973  1.00  0.00     0.246 C 
HETATM   13  O   UNL     1     -39.350 -51.470  12.352  1.00  0.00    -0.271 OA
HETATM   14  N   UNL     1     -39.534 -50.267  14.284  1.00  0.00    -0.359 N 
HETATM   15  H   UNL     1     -40.274 -49.855  14.853  1.00  0.00     0.162 HD
BRANCH  14  16
HETATM   16  C   UNL     1     -38.481 -50.978  14.969  1.00  0.00     0.127 C 
BRANCH  16  17
HETATM   17  C   UNL     1     -37.189 -50.236  14.813  1.00  0.00     0.003 A 
HETATM   18  C   UNL     1     -36.543 -49.542  15.990  1.00  0.00     0.007 A 
HETATM   19  C   UNL     1     -37.168 -48.728  14.895  1.00  0.00     0.007 A 
ENDBRANCH  16  17
ENDBRANCH  14  16
ENDBRANCH   7  12
ENDBRANCH   4   7
BRANCH   1  20
HETATM   20  C   UNL     1     -44.903 -52.526  13.307  1.00  0.00     0.052 A 
HETATM   21  C   UNL     1     -45.189 -53.891  13.258  1.00  0.00     0.117 A 
HETATM   22  N   UNL     1     -46.142 -54.507  13.998  1.00  0.00    -0.373 N 
HETATM   23  C   UNL     1     -46.857 -53.729  14.831  1.00  0.00     0.094 A 
ATOM     24  HN  UNL     1     -46.309 -55.511  13.928  1.00  0.00     0.164 HD
HETATM   25  C   UNL     1     -46.655 -52.362  14.982  1.00  0.00    -0.044 A 
HETATM   26  C   UNL     1     -47.506 -51.570  15.923  1.00  0.00     0.049 C 
HETATM   27  C   UNL     1     -45.645 -51.762  14.214  1.00  0.00     0.039 A 
ENDBRANCH   1  20
TORSDOF 5
ENDMDL
