MODEL 1
REMARK VINA RESULT:      -6.5      0.000      0.000
REMARK  5 active torsions:
REMARK  status: ('A' for Active; 'I' for Inactive)
REMARK    1  A    between atoms: C_5  and  C_6 
REMARK    2  A    between atoms: C_6  and  C_7 
REMARK    3  A    between atoms: C_7  and  N_8 
REMARK       I    between atoms: N_8  and  C_9 
REMARK    4  A    between atoms: C_9  and  C_11 
REMARK    5  A    between atoms: N_13  and  C_14 
ROOT
HETATM    1  N   UNL     1     -41.559 -51.013  11.604  1.00  0.00    -0.360 N 
HETATM    2  C   UNL     1     -41.422 -52.261  12.163  1.00  0.00     0.223 C 
HETATM    3  O   UNL     1     -40.326 -52.694  12.517  1.00  0.00    -0.273 OA
HETATM    4  H   UNL     1     -42.441 -50.714  11.204  1.00  0.00     0.162 HD
ENDROOT
BRANCH   1   5
HETATM    5  C   UNL     1     -40.399 -50.163  11.361  1.00  0.00     0.128 C 
BRANCH   5   6
HETATM    6  C   UNL     1     -40.666 -48.670  11.574  1.00  0.00     0.077 C 
BRANCH   6   7
HETATM    7  C   UNL     1     -41.879 -48.182  10.848  1.00  0.00     0.018 A 
HETATM    8  N   UNL     1     -41.906 -48.259   9.465  1.00  0.00    -0.357 N 
HETATM    9  C   UNL     1     -43.055 -47.808   9.007  1.00  0.00     0.046 A 
ATOM     10  HN  UNL     1     -41.146 -48.615   8.885  1.00  0.00     0.166 HD
HETATM   11  C   UNL     1     -43.425 -47.752   7.567  1.00  0.00     0.076 C 
HETATM   12  S   UNL     1     -44.159 -47.256  10.201  1.00  0.00    -0.087 SA
HETATM   13  C   UNL     1     -43.026 -47.662  11.419  1.00  0.00     0.076 A 
ENDBRANCH   6   7
ENDBRANCH   5   6
ENDBRANCH   1   5
BRANCH   2  14
HETATM   14  C   UNL     1     -42.704 -53.022  12.434  1.00  0.00     0.104 C 
HETATM   15  C   UNL     1     -43.699 -52.076  13.095  1.00  0.00     0.141 C 
HETATM   16  N   UNL     1     -44.535 -52.921  13.907  1.00  0.00    -0.347 N 
HETATM   17  C   UNL     1     -43.910 -54.139  14.177  1.00  0.00     0.221 C 
HETATM   18  O   UNL     1     -44.284 -55.002  14.955  1.00  0.00    -0.273 OA
HETATM   19  C   UNL     1     -42.608 -54.184  13.414  1.00  0.00     0.118 C 
BRANCH  16  20
HETATM   20  C   UNL     1     -45.466 -52.342  14.827  1.00  0.00     0.087 A 
HETATM   21  C   UNL     1     -46.885 -52.827  14.923  1.00  0.00     0.027 A 
HETATM   22  C   UNL     1     -46.600 -51.462  14.370  1.00  0.00     0.027 A 
ENDBRANCH  16  20
ENDBRANCH   2  14
TORSDOF 5
ENDMDL
MODEL 2
REMARK VINA RESULT:      -6.1      1.492      1.945
REMARK  5 active torsions:
REMARK  status: ('A' for Active; 'I' for Inactive)
REMARK    1  A    between atoms: C_5  and  C_6 
REMARK    2  A    between atoms: C_6  and  C_7 
REMARK    3  A    between atoms: C_7  and  N_8 
REMARK       I    between atoms: N_8  and  C_9 
REMARK    4  A    between atoms: C_9  and  C_11 
REMARK    5  A    between atoms: N_13  and  C_14 
ROOT
HETATM    1  N   UNL     1     -41.685 -51.475  12.757  1.00  0.00    -0.360 N 
HETATM    2  C   UNL     1     -41.454 -52.829  12.719  1.00  0.00     0.223 C 
HETATM    3  O   UNL     1     -40.316 -53.289  12.639  1.00  0.00    -0.273 OA
HETATM    4  H   UNL     1     -42.626 -51.104  12.698  1.00  0.00     0.162 HD
ENDROOT
BRANCH   1   5
HETATM    5  C   UNL     1     -40.589 -50.519  12.656  1.00  0.00     0.128 C 
BRANCH   5   6
HETATM    6  C   UNL     1     -40.345 -49.998  11.236  1.00  0.00     0.077 C 
BRANCH   6   7
HETATM    7  C   UNL     1     -40.840 -48.601  11.032  1.00  0.00     0.018 A 
HETATM    8  N   UNL     1     -39.922 -47.562  11.021  1.00  0.00    -0.357 N 
HETATM    9  C   UNL     1     -40.534 -46.417  10.808  1.00  0.00     0.046 A 
ATOM     10  HN  UNL     1     -38.917 -47.670  11.157  1.00  0.00     0.166 HD
HETATM   11  C   UNL     1     -39.851 -45.098  10.728  1.00  0.00     0.076 C 
HETATM   12  S   UNL     1     -42.239 -46.516  10.623  1.00  0.00    -0.087 SA
HETATM   13  C   UNL     1     -42.150 -48.213  10.828  1.00  0.00     0.076 A 
ENDBRANCH   6   7
ENDBRANCH   5   6
ENDBRANCH   1   5
BRANCH   2  14
HETATM   14  C   UNL     1     -42.663 -53.724  12.906  1.00  0.00     0.104 C 
HETATM   15  C   UNL     1     -43.915 -52.921  12.579  1.00  0.00     0.141 C 
HETATM   16  N   UNL     1     -44.957 -53.510  13.380  1.00  0.00    -0.347 N 
HETATM   17  C   UNL     1     -44.424 -54.229  14.449  1.00  0.00     0.221 C 
HETATM   18  O   UNL     1     -45.035 -54.712  15.388  1.00  0.00    -0.273 OA
HETATM   19  C   UNL     1     -42.920 -54.230  14.320  1.00  0.00     0.118 C 
BRANCH  16  20
HETATM   20  C   UNL     1     -46.238 -52.879  13.471  1.00  0.00     0.087 A 
HETATM   21  C   UNL     1     -46.560 -51.633  12.695  1.00  0.00     0.027 A 
HETATM   22  C   UNL     1     -46.436 -51.570  14.189  1.00  0.00     0.027 A 
ENDBRANCH  16  20
ENDBRANCH   2  14
TORSDOF 5
ENDMDL
MODEL 3
REMARK VINA RESULT:      -5.8      2.700      6.488
REMARK  5 active torsions:
REMARK  status: ('A' for Active; 'I' for Inactive)
REMARK    1  A    between atoms: C_5  and  C_6 
REMARK    2  A    between atoms: C_6  and  C_7 
REMARK    3  A    between atoms: C_7  and  N_8 
REMARK       I    between atoms: N_8  and  C_9 
REMARK    4  A    between atoms: C_9  and  C_11 
REMARK    5  A    between atoms: N_13  and  C_14 
ROOT
HETATM    1  N   UNL     1     -42.227 -50.629  12.100  1.00  0.00    -0.360 N 
HETATM    2  C   UNL     1     -41.181 -49.755  11.927  1.00  0.00     0.223 C 
HETATM    3  O   UNL     1     -40.036 -50.152  11.717  1.00  0.00    -0.273 OA
HETATM    4  H   UNL     1     -43.140 -50.299  12.394  1.00  0.00     0.162 HD
ENDROOT
BRANCH   1   5
HETATM    5  C   UNL     1     -42.017 -52.071  12.089  1.00  0.00     0.128 C 
BRANCH   5   6
HETATM    6  C   UNL     1     -42.805 -52.825  13.165  1.00  0.00     0.077 C 
BRANCH   6   7
HETATM    7  C   UNL     1     -44.226 -52.372  13.274  1.00  0.00     0.018 A 
HETATM    8  N   UNL     1     -45.018 -52.376  12.136  1.00  0.00    -0.357 N 
HETATM    9  C   UNL     1     -46.236 -51.971  12.429  1.00  0.00     0.046 A 
ATOM     10  HN  UNL     1     -44.703 -52.654  11.207  1.00  0.00     0.166 HD
HETATM   11  C   UNL     1     -47.345 -51.859  11.445  1.00  0.00     0.076 C 
HETATM   12  S   UNL     1     -46.498 -51.551  14.073  1.00  0.00    -0.087 SA
HETATM   13  C   UNL     1     -44.871 -51.954  14.423  1.00  0.00     0.076 A 
ENDBRANCH   6   7
ENDBRANCH   5   6
ENDBRANCH   1   5
BRANCH   2  14
HETATM   14  C   UNL     1     -41.533 -48.282  11.885  1.00  0.00     0.104 C 
HETATM   15  C   UNL     1     -42.723 -48.095  10.953  1.00  0.00     0.141 C 
HETATM   16  N   UNL     1     -42.581 -46.762  10.427  1.00  0.00    -0.347 N 
HETATM   17  C   UNL     1     -41.267 -46.310  10.551  1.00  0.00     0.221 C 
HETATM   18  O   UNL     1     -40.789 -45.295  10.070  1.00  0.00    -0.273 OA
HETATM   19  C   UNL     1     -40.476 -47.349  11.309  1.00  0.00     0.118 C 
BRANCH  16  20
HETATM   20  C   UNL     1     -43.425 -46.315   9.361  1.00  0.00     0.087 A 
HETATM   21  C   UNL     1     -44.744 -46.973   9.071  1.00  0.00     0.027 A 
HETATM   22  C   UNL     1     -43.611 -47.115   8.098  1.00  0.00     0.027 A 
ENDBRANCH  16  20
ENDBRANCH   2  14
TORSDOF 5
ENDMDL
MODEL 4
REMARK VINA RESULT:      -5.6      3.452      7.022
REMARK  5 active torsions:
REMARK  status: ('A' for Active; 'I' for Inactive)
REMARK    1  A    between atoms: C_5  and  C_6 
REMARK    2  A    between atoms: C_6  and  C_7 
REMARK    3  A    between atoms: C_7  and  N_8 
REMARK       I    between atoms: N_8  and  C_9 
REMARK    4  A    between atoms: C_9  and  C_11 
REMARK    5  A    between atoms: N_13  and  C_14 
ROOT
HETATM    1  N   UNL     1     -42.561 -49.675  12.367  1.00  0.00    -0.360 N 
HETATM    2  C   UNL     1     -41.874 -48.558  11.956  1.00  0.00     0.223 C 
HETATM    3  O   UNL     1     -40.644 -48.517  11.961  1.00  0.00    -0.273 OA
HETATM    4  H   UNL     1     -43.568 -49.657  12.477  1.00  0.00     0.162 HD
ENDROOT
BRANCH   1   5
HETATM    5  C   UNL     1     -41.860 -50.849  12.873  1.00  0.00     0.128 C 
BRANCH   5   6
HETATM    6  C   UNL     1     -42.228 -52.152  12.158  1.00  0.00     0.077 C 
BRANCH   6   7
HETATM    7  C   UNL     1     -42.775 -53.193  13.081  1.00  0.00     0.018 A 
HETATM    8  N   UNL     1     -44.065 -53.657  12.876  1.00  0.00    -0.357 N 
HETATM    9  C   UNL     1     -44.363 -54.580  13.767  1.00  0.00     0.046 A 
ATOM     10  HN  UNL     1     -44.692 -53.332  12.141  1.00  0.00     0.166 HD
HETATM   11  C   UNL     1     -45.665 -55.296  13.834  1.00  0.00     0.076 C 
HETATM   12  S   UNL     1     -43.126 -54.933  14.904  1.00  0.00    -0.087 SA
HETATM   13  C   UNL     1     -42.114 -53.780  14.143  1.00  0.00     0.076 A 
ENDBRANCH   6   7
ENDBRANCH   5   6
ENDBRANCH   1   5
BRANCH   2  14
HETATM   14  C   UNL     1     -42.706 -47.429  11.382  1.00  0.00     0.104 C 
HETATM   15  C   UNL     1     -43.979 -48.018  10.788  1.00  0.00     0.141 C 
HETATM   16  N   UNL     1     -44.351 -47.117   9.729  1.00  0.00    -0.347 N 
HETATM   17  C   UNL     1     -43.262 -46.348   9.317  1.00  0.00     0.221 C 
HETATM   18  O   UNL     1     -43.208 -45.609   8.348  1.00  0.00    -0.273 OA
HETATM   19  C   UNL     1     -42.092 -46.658  10.220  1.00  0.00     0.118 C 
BRANCH  16  20
HETATM   20  C   UNL     1     -45.402 -47.466   8.823  1.00  0.00     0.087 A 
HETATM   21  C   UNL     1     -46.804 -46.961   9.011  1.00  0.00     0.027 A 
HETATM   22  C   UNL     1     -46.505 -48.418   9.205  1.00  0.00     0.027 A 
ENDBRANCH  16  20
ENDBRANCH   2  14
TORSDOF 5
ENDMDL
MODEL 5
REMARK VINA RESULT:      -5.4      1.621      1.827
REMARK  5 active torsions:
REMARK  status: ('A' for Active; 'I' for Inactive)
REMARK    1  A    between atoms: C_5  and  C_6 
REMARK    2  A    between atoms: C_6  and  C_7 
REMARK    3  A    between atoms: C_7  and  N_8 
REMARK       I    between atoms: N_8  and  C_9 
REMARK    4  A    between atoms: C_9  and  C_11 
REMARK    5  A    between atoms: N_13  and  C_14 
ROOT
HETATM    1  N   UNL     1     -42.418 -49.926  12.093  1.00  0.00    -0.360 N 
HETATM    2  C   UNL     1     -41.625 -50.977  12.489  1.00  0.00     0.223 C 
HETATM    3  O   UNL     1     -40.400 -50.880  12.539  1.00  0.00    -0.273 OA
HETATM    4  H   UNL     1     -43.411 -50.052  11.937  1.00  0.00     0.162 HD
ENDROOT
BRANCH   1   5
HETATM    5  C   UNL     1     -41.835 -48.659  11.669  1.00  0.00     0.128 C 
BRANCH   5   6
HETATM    6  C   UNL     1     -41.894 -48.421  10.157  1.00  0.00     0.077 C 
BRANCH   6   7
HETATM    7  C   UNL     1     -42.980 -47.474   9.755  1.00  0.00     0.018 A 
HETATM    8  N   UNL     1     -44.271 -47.959   9.612  1.00  0.00    -0.357 N 
HETATM    9  C   UNL     1     -45.089 -46.984   9.279  1.00  0.00     0.046 A 
ATOM     10  HN  UNL     1     -44.546 -48.932   9.747  1.00  0.00     0.166 HD
HETATM   11  C   UNL     1     -46.549 -47.150   9.050  1.00  0.00     0.076 C 
HETATM   12  S   UNL     1     -44.360 -45.438   9.105  1.00  0.00    -0.087 SA
HETATM   13  C   UNL     1     -42.845 -46.119   9.519  1.00  0.00     0.076 A 
ENDBRANCH   6   7
ENDBRANCH   5   6
ENDBRANCH   1   5
BRANCH   2  14
HETATM   14  C   UNL     1     -42.346 -52.218  12.976  1.00  0.00     0.104 C 
HETATM   15  C   UNL     1     -43.842 -52.025  12.763  1.00  0.00     0.141 C 
HETATM   16  N   UNL     1     -44.471 -52.816  13.788  1.00  0.00    -0.347 N 
HETATM   17  C   UNL     1     -43.588 -53.077  14.836  1.00  0.00     0.221 C 
HETATM   18  O   UNL     1     -43.854 -53.585  15.913  1.00  0.00    -0.273 OA
HETATM   19  C   UNL     1     -42.232 -52.527  14.464  1.00  0.00     0.118 C 
BRANCH  16  20
HETATM   20  C   UNL     1     -45.881 -52.717  14.010  1.00  0.00     0.087 A 
HETATM   21  C   UNL     1     -46.744 -51.797  13.193  1.00  0.00     0.027 A 
HETATM   22  C   UNL     1     -46.508 -51.504  14.645  1.00  0.00     0.027 A 
ENDBRANCH  16  20
ENDBRANCH   2  14
TORSDOF 5
ENDMDL
MODEL 6
REMARK VINA RESULT:      -5.4      3.744      4.131
REMARK  5 active torsions:
REMARK  status: ('A' for Active; 'I' for Inactive)
REMARK    1  A    between atoms: C_5  and  C_6 
REMARK    2  A    between atoms: C_6  and  C_7 
REMARK    3  A    between atoms: C_7  and  N_8 
REMARK       I    between atoms: N_8  and  C_9 
REMARK    4  A    between atoms: C_9  and  C_11 
REMARK    5  A    between atoms: N_13  and  C_14 
ROOT
HETATM    1  N   UNL     1     -40.770 -52.971  14.630  1.00  0.00    -0.360 N 
HETATM    2  C   UNL     1     -41.115 -52.878  13.304  1.00  0.00     0.223 C 
HETATM    3  O   UNL     1     -40.282 -53.008  12.408  1.00  0.00    -0.273 OA
HETATM    4  H   UNL     1     -41.434 -52.741  15.360  1.00  0.00     0.162 HD
ENDROOT
BRANCH   1   5
HETATM    5  C   UNL     1     -39.385 -53.182  15.037  1.00  0.00     0.128 C 
BRANCH   5   6
HETATM    6  C   UNL     1     -38.729 -51.955  15.677  1.00  0.00     0.077 C 
BRANCH   6   7
HETATM    7  C   UNL     1     -38.468 -50.854  14.699  1.00  0.00     0.018 A 
HETATM    8  N   UNL     1     -38.000 -51.180  13.435  1.00  0.00    -0.357 N 
HETATM    9  C   UNL     1     -37.851 -50.091  12.710  1.00  0.00     0.046 A 
ATOM     10  HN  UNL     1     -37.801 -52.127  13.113  1.00  0.00     0.166 HD
HETATM   11  C   UNL     1     -37.372 -50.075  11.302  1.00  0.00     0.076 C 
HETATM   12  S   UNL     1     -38.249 -48.620  13.502  1.00  0.00    -0.087 SA
HETATM   13  C   UNL     1     -38.663 -49.502  14.909  1.00  0.00     0.076 A 
ENDBRANCH   6   7
ENDBRANCH   5   6
ENDBRANCH   1   5
BRANCH   2  14
HETATM   14  C   UNL     1     -42.592 -52.731  13.001  1.00  0.00     0.104 C 
HETATM   15  C   UNL     1     -43.279 -52.131  14.221  1.00  0.00     0.141 C 
HETATM   16  N   UNL     1     -44.629 -52.630  14.174  1.00  0.00    -0.347 N 
HETATM   17  C   UNL     1     -44.716 -53.774  13.381  1.00  0.00     0.221 C 
HETATM   18  O   UNL     1     -45.677 -54.516  13.262  1.00  0.00    -0.273 OA
HETATM   19  C   UNL     1     -43.365 -54.020  12.752  1.00  0.00     0.118 C 
BRANCH  16  20
HETATM   20  C   UNL     1     -45.513 -52.422  15.280  1.00  0.00     0.087 A 
HETATM   21  C   UNL     1     -46.900 -51.878  15.089  1.00  0.00     0.027 A 
HETATM   22  C   UNL     1     -45.861 -51.043  15.778  1.00  0.00     0.027 A 
ENDBRANCH  16  20
ENDBRANCH   2  14
TORSDOF 5
ENDMDL
MODEL 7
REMARK VINA RESULT:      -5.3      3.432      5.007
REMARK  5 active torsions:
REMARK  status: ('A' for Active; 'I' for Inactive)
REMARK    1  A    between atoms: C_5  and  C_6 
REMARK    2  A    between atoms: C_6  and  C_7 
REMARK    3  A    between atoms: C_7  and  N_8 
REMARK       I    between atoms: N_8  and  C_9 
REMARK    4  A    between atoms: C_9  and  C_11 
REMARK    5  A    between atoms: N_13  and  C_14 
ROOT
HETATM    1  N   UNL     1     -42.279 -48.484  10.224  1.00  0.00    -0.360 N 
HETATM    2  C   UNL     1     -41.804 -48.926  11.435  1.00  0.00     0.223 C 
HETATM    3  O   UNL     1     -42.186 -48.439  12.497  1.00  0.00    -0.273 OA
HETATM    4  H   UNL     1     -41.870 -48.803   9.354  1.00  0.00     0.162 HD
ENDROOT
BRANCH   1   5
HETATM    5  C   UNL     1     -43.229 -47.380  10.144  1.00  0.00     0.128 C 
BRANCH   5   6
HETATM    6  C   UNL     1     -42.586 -46.026   9.831  1.00  0.00     0.077 C 
BRANCH   6   7
HETATM    7  C   UNL     1     -42.235 -45.247  11.059  1.00  0.00     0.018 A 
HETATM    8  N   UNL     1     -42.948 -45.481  12.225  1.00  0.00    -0.357 N 
HETATM    9  C   UNL     1     -42.487 -44.725  13.199  1.00  0.00     0.046 A 
ATOM     10  HN  UNL     1     -43.717 -46.144  12.315  1.00  0.00     0.166 HD
HETATM   11  C   UNL     1     -43.017 -44.724  14.589  1.00  0.00     0.076 C 
HETATM   12  S   UNL     1     -41.188 -43.685  12.773  1.00  0.00    -0.087 SA
HETATM   13  C   UNL     1     -41.235 -44.300  11.175  1.00  0.00     0.076 A 
ENDBRANCH   6   7
ENDBRANCH   5   6
ENDBRANCH   1   5
BRANCH   2  14
HETATM   14  C   UNL     1     -40.878 -50.125  11.397  1.00  0.00     0.104 C 
HETATM   15  C   UNL     1     -41.461 -51.215  12.287  1.00  0.00     0.141 C 
HETATM   16  N   UNL     1     -40.324 -51.966  12.753  1.00  0.00    -0.347 N 
HETATM   17  C   UNL     1     -39.149 -51.222  12.642  1.00  0.00     0.221 C 
HETATM   18  O   UNL     1     -38.050 -51.510  13.087  1.00  0.00    -0.273 OA
HETATM   19  C   UNL     1     -39.476 -49.917  11.956  1.00  0.00     0.118 C 
BRANCH  16  20
HETATM   20  C   UNL     1     -40.484 -52.957  13.773  1.00  0.00     0.087 A 
HETATM   21  C   UNL     1     -39.791 -54.288  13.696  1.00  0.00     0.027 A 
HETATM   22  C   UNL     1     -41.282 -54.215  13.549  1.00  0.00     0.027 A 
ENDBRANCH  16  20
ENDBRANCH   2  14
TORSDOF 5
ENDMDL
MODEL 8
REMARK VINA RESULT:      -5.3      3.791      5.300
REMARK  5 active torsions:
REMARK  status: ('A' for Active; 'I' for Inactive)
REMARK    1  A    between atoms: C_5  and  C_6 
REMARK    2  A    between atoms: C_6  and  C_7 
REMARK    3  A    between atoms: C_7  and  N_8 
REMARK       I    between atoms: N_8  and  C_9 
REMARK    4  A    between atoms: C_9  and  C_11 
REMARK    5  A    between atoms: N_13  and  C_14 
ROOT
HETATM    1  N   UNL     1     -41.609 -51.920  13.203  1.00  0.00    -0.360 N 
HETATM    2  C   UNL     1     -41.595 -53.236  12.809  1.00  0.00     0.223 C 
HETATM    3  O   UNL     1     -40.563 -53.786  12.426  1.00  0.00    -0.273 OA
HETATM    4  H   UNL     1     -42.481 -51.443  13.399  1.00  0.00     0.162 HD
ENDROOT
BRANCH   1   5
HETATM    5  C   UNL     1     -40.405 -51.100  13.140  1.00  0.00     0.128 C 
BRANCH   5   6
HETATM    6  C   UNL     1     -39.757 -50.837  14.503  1.00  0.00     0.077 C 
BRANCH   6   7
HETATM    7  C   UNL     1     -39.773 -52.033  15.400  1.00  0.00     0.018 A 
HETATM    8  N   UNL     1     -38.999 -53.132  15.062  1.00  0.00    -0.357 N 
HETATM    9  C   UNL     1     -39.122 -54.073  15.974  1.00  0.00     0.046 A 
ATOM     10  HN  UNL     1     -38.418 -53.202  14.227  1.00  0.00     0.166 HD
HETATM   11  C   UNL     1     -38.425 -55.386  15.930  1.00  0.00     0.076 C 
HETATM   12  S   UNL     1     -40.178 -53.702  17.277  1.00  0.00    -0.087 SA
HETATM   13  C   UNL     1     -40.481 -52.168  16.579  1.00  0.00     0.076 A 
ENDBRANCH   6   7
ENDBRANCH   5   6
ENDBRANCH   1   5
BRANCH   2  14
HETATM   14  C   UNL     1     -42.887 -54.007  12.988  1.00  0.00     0.104 C 
HETATM   15  C   UNL     1     -44.052 -53.085  12.650  1.00  0.00     0.141 C 
HETATM   16  N   UNL     1     -45.153 -53.565  13.444  1.00  0.00    -0.347 N 
HETATM   17  C   UNL     1     -44.701 -54.330  14.519  1.00  0.00     0.221 C 
HETATM   18  O   UNL     1     -45.364 -54.748  15.455  1.00  0.00    -0.273 OA
HETATM   19  C   UNL     1     -43.204 -54.480  14.401  1.00  0.00     0.118 C 
BRANCH  16  20
HETATM   20  C   UNL     1     -46.366 -52.811  13.523  1.00  0.00     0.087 A 
HETATM   21  C   UNL     1     -46.588 -51.585  12.682  1.00  0.00     0.027 A 
HETATM   22  C   UNL     1     -46.421 -51.450  14.167  1.00  0.00     0.027 A 
ENDBRANCH  16  20
ENDBRANCH   2  14
TORSDOF 5
ENDMDL
MODEL 9
REMARK VINA RESULT:      -5.3      3.476      3.961
REMARK  5 active torsions:
REMARK  status: ('A' for Active; 'I' for Inactive)
REMARK    1  A    between atoms: C_5  and  C_6 
REMARK    2  A    between atoms: C_6  and  C_7 
REMARK    3  A    between atoms: C_7  and  N_8 
REMARK       I    between atoms: N_8  and  C_9 
REMARK    4  A    between atoms: C_9  and  C_11 
REMARK    5  A    between atoms: N_13  and  C_14 
ROOT
HETATM    1  N   UNL     1     -41.590 -51.788  13.158  1.00  0.00    -0.360 N 
HETATM    2  C   UNL     1     -41.487 -53.136  12.913  1.00  0.00     0.223 C 
HETATM    3  O   UNL     1     -40.401 -53.674  12.704  1.00  0.00    -0.273 OA
HETATM    4  H   UNL     1     -42.494 -51.334  13.206  1.00  0.00     0.162 HD
ENDROOT
BRANCH   1   5
HETATM    5  C   UNL     1     -40.415 -50.924  13.133  1.00  0.00     0.128 C 
BRANCH   5   6
HETATM    6  C   UNL     1     -39.879 -50.562  14.522  1.00  0.00     0.077 C 
BRANCH   6   7
HETATM    7  C   UNL     1     -39.024 -49.335  14.517  1.00  0.00     0.018 A 
HETATM    8  N   UNL     1     -39.603 -48.118  14.190  1.00  0.00    -0.357 N 
HETATM    9  C   UNL     1     -38.707 -47.156  14.261  1.00  0.00     0.046 A 
ATOM     10  HN  UNL     1     -40.581 -47.988  13.933  1.00  0.00     0.166 HD
HETATM   11  C   UNL     1     -38.987 -45.722  13.980  1.00  0.00     0.076 C 
HETATM   12  S   UNL     1     -37.125 -47.652  14.709  1.00  0.00    -0.087 SA
HETATM   13  C   UNL     1     -37.680 -49.268  14.831  1.00  0.00     0.076 A 
ENDBRANCH   6   7
ENDBRANCH   5   6
ENDBRANCH   1   5
BRANCH   2  14
HETATM   14  C   UNL     1     -42.764 -53.943  13.037  1.00  0.00     0.104 C 
HETATM   15  C   UNL     1     -43.938 -53.053  12.649  1.00  0.00     0.141 C 
HETATM   16  N   UNL     1     -45.058 -53.565  13.395  1.00  0.00    -0.347 N 
HETATM   17  C   UNL     1     -44.632 -54.318  14.489  1.00  0.00     0.221 C 
HETATM   18  O   UNL     1     -45.322 -54.756  15.395  1.00  0.00    -0.273 OA
HETATM   19  C   UNL     1     -43.127 -54.427  14.435  1.00  0.00     0.118 C 
BRANCH  16  20
HETATM   20  C   UNL     1     -46.294 -52.844  13.423  1.00  0.00     0.087 A 
HETATM   21  C   UNL     1     -46.477 -51.564  12.658  1.00  0.00     0.027 A 
HETATM   22  C   UNL     1     -46.442 -51.537  14.157  1.00  0.00     0.027 A 
ENDBRANCH  16  20
ENDBRANCH   2  14
TORSDOF 5
ENDMDL
