MODEL 1
REMARK VINA RESULT:      -6.3      0.000      0.000
REMARK  4 active torsions:
REMARK  status: ('A' for Active; 'I' for Inactive)
REMARK    1  A    between atoms: C_8  and  C_9 
REMARK    2  A    between atoms: C_9  and  C_10 
REMARK    3  A    between atoms: C_10  and  N_11 
REMARK       I    between atoms: N_11  and  C_12 
REMARK       I    between atoms: C_12  and  N_14 
REMARK    4  A    between atoms: N_14  and  C_15 
ROOT
HETATM    1  N   UNL     1     -43.067 -49.566  12.142  1.00  0.00    -0.343 N 
HETATM    2  C   UNL     1     -42.686 -50.807  12.592  1.00  0.00     0.316 C 
HETATM    3  O   UNL     1     -41.513 -51.147  12.683  1.00  0.00    -0.247 OA
HETATM    4  N   UNL     1     -43.739 -51.641  12.872  1.00  0.00    -0.338 N 
HETATM    5  H   UNL     1     -44.009 -49.256  12.322  1.00  0.00     0.164 HD
HETATM    6  H   UNL     1     -44.673 -51.268  12.909  1.00  0.00     0.164 HD
ENDROOT
BRANCH   1   7
HETATM    7  C   UNL     1     -42.028 -48.598  11.798  1.00  0.00     0.129 C 
BRANCH   7   8
HETATM    8  C   UNL     1     -41.975 -48.212  10.316  1.00  0.00     0.063 C 
BRANCH   8   9
HETATM    9  C   UNL     1     -42.615 -46.887  10.039  1.00  0.00    -0.001 A 
HETATM   10  C   UNL     1     -43.912 -46.607   9.508  1.00  0.00     0.037 A 
HETATM   11  C   UNL     1     -44.978 -47.548   9.085  1.00  0.00     0.071 C 
HETATM   12  N   UNL     1     -44.127 -45.292   9.397  1.00  0.00    -0.265 N 
HETATM   13  O   UNL     1     -42.979 -44.683   9.849  1.00  0.00    -0.242 OA
ATOM     14  HN  UNL     1     -44.970 -44.834   9.048  1.00  0.00     0.194 HD
HETATM   15  C   UNL     1     -42.079 -45.628  10.227  1.00  0.00     0.081 A 
HETATM   16  C   UNL     1     -40.791 -45.113  10.726  1.00  0.00     0.079 C 
ENDBRANCH   8   9
ENDBRANCH   7   8
ENDBRANCH   1   7
BRANCH   4  17
HETATM   17  C   UNL     1     -43.494 -53.002  13.323  1.00  0.00     0.090 C 
HETATM   18  C   UNL     1     -44.347 -54.083  12.629  1.00  0.00     0.030 C 
HETATM   19  C   UNL     1     -44.865 -54.930  13.812  1.00  0.00    -0.012 C 
HETATM   20  C   UNL     1     -45.997 -54.157  14.502  1.00  0.00     0.005 C 
HETATM   21  C   UNL     1     -43.739 -54.797  14.840  1.00  0.00     0.011 C 
HETATM   22  C   UNL     1     -45.251 -52.997  15.179  1.00  0.00     0.007 C 
HETATM   23  C   UNL     1     -43.775 -53.265  14.822  1.00  0.00     0.009 C 
ENDBRANCH   4  17
TORSDOF 4
ENDMDL
MODEL 2
REMARK VINA RESULT:      -6.2      1.368      1.919
REMARK  4 active torsions:
REMARK  status: ('A' for Active; 'I' for Inactive)
REMARK    1  A    between atoms: C_8  and  C_9 
REMARK    2  A    between atoms: C_9  and  C_10 
REMARK    3  A    between atoms: C_10  and  N_11 
REMARK       I    between atoms: N_11  and  C_12 
REMARK       I    between atoms: C_12  and  N_14 
REMARK    4  A    between atoms: N_14  and  C_15 
ROOT
HETATM    1  N   UNL     1     -42.327 -49.840  11.773  1.00  0.00    -0.343 N 
HETATM    2  C   UNL     1     -43.197 -49.775  12.836  1.00  0.00     0.316 C 
HETATM    3  O   UNL     1     -43.400 -48.742  13.462  1.00  0.00    -0.247 OA
HETATM    4  N   UNL     1     -43.764 -50.981  13.160  1.00  0.00    -0.338 N 
HETATM    5  H   UNL     1     -42.385 -50.631  11.150  1.00  0.00     0.164 HD
HETATM    6  H   UNL     1     -43.666 -51.762  12.533  1.00  0.00     0.164 HD
ENDROOT
BRANCH   1   7
HETATM    7  C   UNL     1     -41.651 -48.617  11.348  1.00  0.00     0.129 C 
BRANCH   7   8
HETATM    8  C   UNL     1     -41.969 -48.172   9.917  1.00  0.00     0.063 C 
BRANCH   8   9
HETATM    9  C   UNL     1     -42.626 -46.827   9.860  1.00  0.00    -0.001 A 
HETATM   10  C   UNL     1     -43.944 -46.487   9.425  1.00  0.00     0.037 A 
HETATM   11  C   UNL     1     -45.020 -47.368   8.909  1.00  0.00     0.071 C 
HETATM   12  N   UNL     1     -44.170 -45.172   9.515  1.00  0.00    -0.265 N 
HETATM   13  O   UNL     1     -43.008 -44.623  10.008  1.00  0.00    -0.242 OA
ATOM     14  HN  UNL     1     -45.028 -44.678   9.268  1.00  0.00     0.194 HD
HETATM   15  C   UNL     1     -42.090 -45.603  10.209  1.00  0.00     0.081 A 
HETATM   16  C   UNL     1     -40.786 -45.152  10.729  1.00  0.00     0.079 C 
ENDBRANCH   8   9
ENDBRANCH   7   8
ENDBRANCH   1   7
BRANCH   4  17
HETATM   17  C   UNL     1     -44.678 -51.079  14.287  1.00  0.00     0.090 C 
HETATM   18  C   UNL     1     -44.448 -52.293  15.211  1.00  0.00     0.030 C 
HETATM   19  C   UNL     1     -45.870 -52.867  15.391  1.00  0.00    -0.012 C 
HETATM   20  C   UNL     1     -46.252 -53.625  14.113  1.00  0.00     0.005 C 
HETATM   21  C   UNL     1     -46.753 -51.622  15.279  1.00  0.00     0.011 C 
HETATM   22  C   UNL     1     -46.439 -52.493  13.091  1.00  0.00     0.007 C 
HETATM   23  C   UNL     1     -46.175 -51.219  13.918  1.00  0.00     0.009 C 
ENDBRANCH   4  17
TORSDOF 4
ENDMDL
MODEL 3
REMARK VINA RESULT:      -6.1      2.923      4.964
REMARK  4 active torsions:
REMARK  status: ('A' for Active; 'I' for Inactive)
REMARK    1  A    between atoms: C_8  and  C_9 
REMARK    2  A    between atoms: C_9  and  C_10 
REMARK    3  A    between atoms: C_10  and  N_11 
REMARK       I    between atoms: N_11  and  C_12 
REMARK       I    between atoms: C_12  and  N_14 
REMARK    4  A    between atoms: N_14  and  C_15 
ROOT
HETATM    1  N   UNL     1     -41.760 -50.005  11.566  1.00  0.00    -0.343 N 
HETATM    2  C   UNL     1     -42.783 -49.803  12.462  1.00  0.00     0.316 C 
HETATM    3  O   UNL     1     -42.983 -48.723  13.004  1.00  0.00    -0.247 OA
HETATM    4  N   UNL     1     -43.514 -50.931  12.730  1.00  0.00    -0.338 N 
HETATM    5  H   UNL     1     -41.794 -50.820  10.972  1.00  0.00     0.164 HD
HETATM    6  H   UNL     1     -43.393 -51.750  12.158  1.00  0.00     0.164 HD
ENDROOT
BRANCH   1   7
HETATM    7  C   UNL     1     -40.904 -48.875  11.216  1.00  0.00     0.129 C 
BRANCH   7   8
HETATM    8  C   UNL     1     -39.785 -48.582  12.222  1.00  0.00     0.063 C 
BRANCH   8   9
HETATM    9  C   UNL     1     -39.033 -49.812  12.627  1.00  0.00    -0.001 A 
HETATM   10  C   UNL     1     -39.236 -50.658  13.761  1.00  0.00     0.037 A 
HETATM   11  C   UNL     1     -40.242 -50.551  14.845  1.00  0.00     0.071 C 
HETATM   12  N   UNL     1     -38.356 -51.665  13.790  1.00  0.00    -0.265 N 
HETATM   13  O   UNL     1     -37.559 -51.500  12.680  1.00  0.00    -0.242 OA
ATOM     14  HN  UNL     1     -38.290 -52.403  14.491  1.00  0.00     0.194 HD
HETATM   15  C   UNL     1     -37.956 -50.399  11.992  1.00  0.00     0.081 A 
HETATM   16  C   UNL     1     -37.177 -50.095  10.777  1.00  0.00     0.079 C 
ENDBRANCH   8   9
ENDBRANCH   7   8
ENDBRANCH   1   7
BRANCH   4  17
HETATM   17  C   UNL     1     -44.608 -50.883  13.688  1.00  0.00     0.090 C 
HETATM   18  C   UNL     1     -44.419 -51.764  14.940  1.00  0.00     0.030 C 
HETATM   19  C   UNL     1     -45.773 -52.496  15.058  1.00  0.00    -0.012 C 
HETATM   20  C   UNL     1     -45.817 -53.609  14.003  1.00  0.00     0.005 C 
HETATM   21  C   UNL     1     -46.757 -51.482  14.468  1.00  0.00     0.011 C 
HETATM   22  C   UNL     1     -45.936 -52.824  12.688  1.00  0.00     0.007 C 
HETATM   23  C   UNL     1     -45.981 -51.355  13.153  1.00  0.00     0.009 C 
ENDBRANCH   4  17
TORSDOF 4
ENDMDL
MODEL 4
REMARK VINA RESULT:      -6.0      2.119      7.489
REMARK  4 active torsions:
REMARK  status: ('A' for Active; 'I' for Inactive)
REMARK    1  A    between atoms: C_8  and  C_9 
REMARK    2  A    between atoms: C_9  and  C_10 
REMARK    3  A    between atoms: C_10  and  N_11 
REMARK       I    between atoms: N_11  and  C_12 
REMARK       I    between atoms: C_12  and  N_14 
REMARK    4  A    between atoms: N_14  and  C_15 
ROOT
HETATM    1  N   UNL     1     -43.179 -49.277  13.415  1.00  0.00    -0.343 N 
HETATM    2  C   UNL     1     -42.683 -48.916  12.185  1.00  0.00     0.316 C 
HETATM    3  O   UNL     1     -41.657 -49.398  11.719  1.00  0.00    -0.247 OA
HETATM    4  N   UNL     1     -43.408 -47.933  11.563  1.00  0.00    -0.338 N 
HETATM    5  H   UNL     1     -44.136 -49.045  13.635  1.00  0.00     0.164 HD
HETATM    6  H   UNL     1     -44.310 -47.673  11.926  1.00  0.00     0.164 HD
ENDROOT
BRANCH   1   7
HETATM    7  C   UNL     1     -42.478 -50.306  14.178  1.00  0.00     0.129 C 
BRANCH   7   8
HETATM    8  C   UNL     1     -43.382 -51.385  14.783  1.00  0.00     0.063 C 
BRANCH   8   9
HETATM    9  C   UNL     1     -43.910 -52.341  13.758  1.00  0.00    -0.001 A 
HETATM   10  C   UNL     1     -43.254 -53.449  13.138  1.00  0.00     0.037 A 
HETATM   11  C   UNL     1     -41.873 -53.954  13.336  1.00  0.00     0.071 C 
HETATM   12  N   UNL     1     -44.051 -54.068  12.262  1.00  0.00    -0.265 N 
HETATM   13  O   UNL     1     -45.244 -53.381  12.287  1.00  0.00    -0.242 OA
ATOM     14  HN  UNL     1     -43.823 -54.883  11.692  1.00  0.00     0.194 HD
HETATM   15  C   UNL     1     -45.160 -52.354  13.171  1.00  0.00     0.081 A 
HETATM   16  C   UNL     1     -46.371 -51.523  13.293  1.00  0.00     0.079 C 
ENDBRANCH   8   9
ENDBRANCH   7   8
ENDBRANCH   1   7
BRANCH   4  17
HETATM   17  C   UNL     1     -42.984 -47.420  10.269  1.00  0.00     0.090 C 
HETATM   18  C   UNL     1     -42.994 -45.883  10.141  1.00  0.00     0.030 C 
HETATM   19  C   UNL     1     -43.710 -45.651   8.793  1.00  0.00    -0.012 C 
HETATM   20  C   UNL     1     -45.214 -45.869   9.000  1.00  0.00     0.005 C 
HETATM   21  C   UNL     1     -43.331 -46.898   7.990  1.00  0.00     0.011 C 
HETATM   22  C   UNL     1     -45.310 -47.388   9.210  1.00  0.00     0.007 C 
HETATM   23  C   UNL     1     -43.849 -47.860   9.064  1.00  0.00     0.009 C 
ENDBRANCH   4  17
TORSDOF 4
ENDMDL
MODEL 5
REMARK VINA RESULT:      -6.0      0.792      1.703
REMARK  4 active torsions:
REMARK  status: ('A' for Active; 'I' for Inactive)
REMARK    1  A    between atoms: C_8  and  C_9 
REMARK    2  A    between atoms: C_9  and  C_10 
REMARK    3  A    between atoms: C_10  and  N_11 
REMARK       I    between atoms: N_11  and  C_12 
REMARK       I    between atoms: C_12  and  N_14 
REMARK    4  A    between atoms: N_14  and  C_15 
ROOT
HETATM    1  N   UNL     1     -43.065 -49.590  12.136  1.00  0.00    -0.343 N 
HETATM    2  C   UNL     1     -42.683 -50.807  12.648  1.00  0.00     0.316 C 
HETATM    3  O   UNL     1     -41.523 -51.063  12.948  1.00  0.00    -0.247 OA
HETATM    4  N   UNL     1     -43.705 -51.717  12.734  1.00  0.00    -0.338 N 
HETATM    5  H   UNL     1     -44.045 -49.351  12.144  1.00  0.00     0.164 HD
HETATM    6  H   UNL     1     -44.655 -51.413  12.603  1.00  0.00     0.164 HD
ENDROOT
BRANCH   1   7
HETATM    7  C   UNL     1     -42.054 -48.547  11.984  1.00  0.00     0.129 C 
BRANCH   7   8
HETATM    8  C   UNL     1     -41.732 -48.173  10.533  1.00  0.00     0.063 C 
BRANCH   8   9
HETATM    9  C   UNL     1     -42.560 -47.031  10.030  1.00  0.00    -0.001 A 
HETATM   10  C   UNL     1     -42.775 -45.748  10.619  1.00  0.00     0.037 A 
HETATM   11  C   UNL     1     -42.242 -45.194  11.888  1.00  0.00     0.071 C 
HETATM   12  N   UNL     1     -43.587 -44.991   9.873  1.00  0.00    -0.265 N 
HETATM   13  O   UNL     1     -43.922 -45.761   8.783  1.00  0.00    -0.242 OA
ATOM     14  HN  UNL     1     -43.895 -44.039  10.071  1.00  0.00     0.194 HD
HETATM   15  C   UNL     1     -43.317 -46.973   8.876  1.00  0.00     0.081 A 
HETATM   16  C   UNL     1     -43.598 -47.909   7.773  1.00  0.00     0.079 C 
ENDBRANCH   8   9
ENDBRANCH   7   8
ENDBRANCH   1   7
BRANCH   4  17
HETATM   17  C   UNL     1     -43.446 -53.063  13.222  1.00  0.00     0.090 C 
HETATM   18  C   UNL     1     -44.375 -54.154  12.652  1.00  0.00     0.030 C 
HETATM   19  C   UNL     1     -44.804 -54.938  13.911  1.00  0.00    -0.012 C 
HETATM   20  C   UNL     1     -45.858 -54.113  14.661  1.00  0.00     0.005 C 
HETATM   21  C   UNL     1     -43.591 -54.787  14.832  1.00  0.00     0.011 C 
HETATM   22  C   UNL     1     -45.036 -52.942  15.219  1.00  0.00     0.007 C 
HETATM   23  C   UNL     1     -43.602 -53.257  14.750  1.00  0.00     0.009 C 
ENDBRANCH   4  17
TORSDOF 4
ENDMDL
MODEL 6
REMARK VINA RESULT:      -6.0      2.657      7.096
REMARK  4 active torsions:
REMARK  status: ('A' for Active; 'I' for Inactive)
REMARK    1  A    between atoms: C_8  and  C_9 
REMARK    2  A    between atoms: C_9  and  C_10 
REMARK    3  A    between atoms: C_10  and  N_11 
REMARK       I    between atoms: N_11  and  C_12 
REMARK       I    between atoms: C_12  and  N_14 
REMARK    4  A    between atoms: N_14  and  C_15 
ROOT
HETATM    1  N   UNL     1     -43.087 -52.732  12.158  1.00  0.00    -0.343 N 
HETATM    2  C   UNL     1     -42.552 -51.616  12.756  1.00  0.00     0.316 C 
HETATM    3  O   UNL     1     -42.322 -51.557  13.958  1.00  0.00    -0.247 OA
HETATM    4  N   UNL     1     -42.357 -50.567  11.895  1.00  0.00    -0.338 N 
HETATM    5  H   UNL     1     -43.021 -52.819  11.155  1.00  0.00     0.164 HD
HETATM    6  H   UNL     1     -42.435 -50.716  10.903  1.00  0.00     0.164 HD
ENDROOT
BRANCH   1   7
HETATM    7  C   UNL     1     -43.352 -53.908  12.982  1.00  0.00     0.129 C 
BRANCH   7   8
HETATM    8  C   UNL     1     -44.837 -54.228  13.185  1.00  0.00     0.063 C 
BRANCH   8   9
HETATM    9  C   UNL     1     -45.553 -53.180  13.980  1.00  0.00    -0.001 A 
HETATM   10  C   UNL     1     -46.371 -52.103  13.520  1.00  0.00     0.037 A 
HETATM   11  C   UNL     1     -46.734 -51.726  12.132  1.00  0.00     0.071 C 
HETATM   12  N   UNL     1     -46.837 -51.367  14.534  1.00  0.00    -0.265 N 
HETATM   13  O   UNL     1     -46.334 -51.943  15.679  1.00  0.00    -0.242 OA
ATOM     14  HN  UNL     1     -47.441 -50.547  14.473  1.00  0.00     0.194 HD
HETATM   15  C   UNL     1     -45.569 -53.016  15.352  1.00  0.00     0.081 A 
HETATM   16  C   UNL     1     -44.955 -53.727  16.488  1.00  0.00     0.079 C 
ENDBRANCH   8   9
ENDBRANCH   7   8
ENDBRANCH   1   7
BRANCH   4  17
HETATM   17  C   UNL     1     -41.832 -49.304  12.390  1.00  0.00     0.090 C 
HETATM   18  C   UNL     1     -42.889 -48.332  12.952  1.00  0.00     0.030 C 
HETATM   19  C   UNL     1     -42.519 -46.990  12.284  1.00  0.00    -0.012 C 
HETATM   20  C   UNL     1     -42.998 -47.026  10.827  1.00  0.00     0.005 C 
HETATM   21  C   UNL     1     -41.004 -47.108  12.107  1.00  0.00     0.011 C 
HETATM   22  C   UNL     1     -42.038 -48.036  10.180  1.00  0.00     0.007 C 
HETATM   23  C   UNL     1     -41.102 -48.431  11.340  1.00  0.00     0.009 C 
ENDBRANCH   4  17
TORSDOF 4
ENDMDL
MODEL 7
REMARK VINA RESULT:      -5.9      3.210      4.659
REMARK  4 active torsions:
REMARK  status: ('A' for Active; 'I' for Inactive)
REMARK    1  A    between atoms: C_8  and  C_9 
REMARK    2  A    between atoms: C_9  and  C_10 
REMARK    3  A    between atoms: C_10  and  N_11 
REMARK       I    between atoms: N_11  and  C_12 
REMARK       I    between atoms: C_12  and  N_14 
REMARK    4  A    between atoms: N_14  and  C_15 
ROOT
HETATM    1  N   UNL     1     -42.027 -50.231  11.739  1.00  0.00    -0.343 N 
HETATM    2  C   UNL     1     -41.930 -51.551  12.111  1.00  0.00     0.316 C 
HETATM    3  O   UNL     1     -40.927 -52.224  11.904  1.00  0.00    -0.247 OA
HETATM    4  N   UNL     1     -43.073 -52.052  12.678  1.00  0.00    -0.338 N 
HETATM    5  H   UNL     1     -42.756 -49.668  12.148  1.00  0.00     0.164 HD
HETATM    6  H   UNL     1     -43.812 -51.423  12.945  1.00  0.00     0.164 HD
ENDROOT
BRANCH   1   7
HETATM    7  C   UNL     1     -40.872 -49.596  11.109  1.00  0.00     0.129 C 
BRANCH   7   8
HETATM    8  C   UNL     1     -39.989 -48.782  12.061  1.00  0.00     0.063 C 
BRANCH   8   9
HETATM    9  C   UNL     1     -38.951 -49.616  12.745  1.00  0.00    -0.001 A 
HETATM   10  C   UNL     1     -38.905 -50.063  14.101  1.00  0.00     0.037 A 
HETATM   11  C   UNL     1     -39.869 -49.823  15.203  1.00  0.00     0.071 C 
HETATM   12  N   UNL     1     -37.809 -50.788  14.346  1.00  0.00    -0.265 N 
HETATM   13  O   UNL     1     -37.113 -50.830  13.160  1.00  0.00    -0.242 OA
ATOM     14  HN  UNL     1     -37.543 -51.221  15.231  1.00  0.00     0.194 HD
HETATM   15  C   UNL     1     -37.786 -50.132  12.210  1.00  0.00     0.081 A 
HETATM   16  C   UNL     1     -37.146 -50.086  10.883  1.00  0.00     0.079 C 
ENDBRANCH   8   9
ENDBRANCH   7   8
ENDBRANCH   1   7
BRANCH   4  17
HETATM   17  C   UNL     1     -43.136 -53.445  13.090  1.00  0.00     0.090 C 
HETATM   18  C   UNL     1     -44.488 -54.142  12.834  1.00  0.00     0.030 C 
HETATM   19  C   UNL     1     -44.773 -54.852  14.175  1.00  0.00    -0.012 C 
HETATM   20  C   UNL     1     -45.248 -53.802  15.188  1.00  0.00     0.005 C 
HETATM   21  C   UNL     1     -43.368 -55.161  14.698  1.00  0.00     0.011 C 
HETATM   22  C   UNL     1     -43.969 -52.995  15.463  1.00  0.00     0.007 C 
HETATM   23  C   UNL     1     -42.908 -53.703  14.599  1.00  0.00     0.009 C 
ENDBRANCH   4  17
TORSDOF 4
ENDMDL
MODEL 8
REMARK VINA RESULT:      -5.6      3.955      4.748
REMARK  4 active torsions:
REMARK  status: ('A' for Active; 'I' for Inactive)
REMARK    1  A    between atoms: C_8  and  C_9 
REMARK    2  A    between atoms: C_9  and  C_10 
REMARK    3  A    between atoms: C_10  and  N_11 
REMARK       I    between atoms: N_11  and  C_12 
REMARK       I    between atoms: C_12  and  N_14 
REMARK    4  A    between atoms: N_14  and  C_15 
ROOT
HETATM    1  N   UNL     1     -40.939 -52.609  14.238  1.00  0.00    -0.343 N 
HETATM    2  C   UNL     1     -42.005 -52.111  13.526  1.00  0.00     0.316 C 
HETATM    3  O   UNL     1     -41.887 -51.646  12.399  1.00  0.00    -0.247 OA
HETATM    4  N   UNL     1     -43.189 -52.131  14.217  1.00  0.00    -0.338 N 
HETATM    5  H   UNL     1     -41.126 -53.196  15.037  1.00  0.00     0.164 HD
HETATM    6  H   UNL     1     -43.253 -52.645  15.080  1.00  0.00     0.164 HD
ENDROOT
BRANCH   1   7
HETATM    7  C   UNL     1     -39.622 -52.623  13.607  1.00  0.00     0.129 C 
BRANCH   7   8
HETATM    8  C   UNL     1     -38.655 -51.549  14.117  1.00  0.00     0.063 C 
BRANCH   8   9
HETATM    9  C   UNL     1     -38.919 -50.200  13.523  1.00  0.00    -0.001 A 
HETATM   10  C   UNL     1     -38.380 -49.619  12.335  1.00  0.00     0.037 A 
HETATM   11  C   UNL     1     -37.412 -50.187  11.366  1.00  0.00     0.071 C 
HETATM   12  N   UNL     1     -38.852 -48.384  12.130  1.00  0.00    -0.265 N 
HETATM   13  O   UNL     1     -39.707 -48.130  13.178  1.00  0.00    -0.242 OA
ATOM     14  HN  UNL     1     -38.625 -47.760  11.356  1.00  0.00     0.194 HD
HETATM   15  C   UNL     1     -39.745 -49.204  14.008  1.00  0.00     0.081 A 
HETATM   16  C   UNL     1     -40.620 -49.065  15.186  1.00  0.00     0.079 C 
ENDBRANCH   8   9
ENDBRANCH   7   8
ENDBRANCH   1   7
BRANCH   4  17
HETATM   17  C   UNL     1     -44.399 -51.602  13.608  1.00  0.00     0.090 C 
HETATM   18  C   UNL     1     -45.431 -51.026  14.600  1.00  0.00     0.030 C 
HETATM   19  C   UNL     1     -46.758 -51.658  14.127  1.00  0.00    -0.012 C 
HETATM   20  C   UNL     1     -46.791 -53.120  14.592  1.00  0.00     0.005 C 
HETATM   21  C   UNL     1     -46.536 -51.824  12.622  1.00  0.00     0.011 C 
HETATM   22  C   UNL     1     -45.730 -53.782  13.699  1.00  0.00     0.007 C 
HETATM   23  C   UNL     1     -45.241 -52.623  12.807  1.00  0.00     0.009 C 
ENDBRANCH   4  17
TORSDOF 4
ENDMDL
MODEL 9
REMARK VINA RESULT:      -5.6      3.926      7.311
REMARK  4 active torsions:
REMARK  status: ('A' for Active; 'I' for Inactive)
REMARK    1  A    between atoms: C_8  and  C_9 
REMARK    2  A    between atoms: C_9  and  C_10 
REMARK    3  A    between atoms: C_10  and  N_11 
REMARK       I    between atoms: N_11  and  C_12 
REMARK       I    between atoms: C_12  and  N_14 
REMARK    4  A    between atoms: N_14  and  C_15 
ROOT
HETATM    1  N   UNL     1     -42.533 -52.736  13.327  1.00  0.00    -0.343 N 
HETATM    2  C   UNL     1     -41.247 -52.612  12.856  1.00  0.00     0.316 C 
HETATM    3  O   UNL     1     -40.569 -53.577  12.523  1.00  0.00    -0.247 OA
HETATM    4  N   UNL     1     -40.782 -51.322  12.851  1.00  0.00    -0.338 N 
HETATM    5  H   UNL     1     -43.120 -51.917  13.346  1.00  0.00     0.164 HD
HETATM    6  H   UNL     1     -41.423 -50.562  13.004  1.00  0.00     0.164 HD
ENDROOT
BRANCH   1   7
HETATM    7  C   UNL     1     -43.127 -54.069  13.392  1.00  0.00     0.129 C 
BRANCH   7   8
HETATM    8  C   UNL     1     -44.629 -54.117  13.089  1.00  0.00     0.063 C 
BRANCH   8   9
HETATM    9  C   UNL     1     -45.423 -53.174  13.939  1.00  0.00    -0.001 A 
HETATM   10  C   UNL     1     -46.284 -52.108  13.536  1.00  0.00     0.037 A 
HETATM   11  C   UNL     1     -46.627 -51.640  12.170  1.00  0.00     0.071 C 
HETATM   12  N   UNL     1     -46.819 -51.480  14.588  1.00  0.00    -0.265 N 
HETATM   13  O   UNL     1     -46.320 -52.118  15.701  1.00  0.00    -0.242 OA
ATOM     14  HN  UNL     1     -47.464 -50.689  14.570  1.00  0.00     0.194 HD
HETATM   15  C   UNL     1     -45.489 -53.120  15.318  1.00  0.00     0.081 A 
HETATM   16  C   UNL     1     -44.871 -53.887  16.415  1.00  0.00     0.079 C 
ENDBRANCH   8   9
ENDBRANCH   7   8
ENDBRANCH   1   7
BRANCH   4  17
HETATM   17  C   UNL     1     -39.424 -51.037  12.414  1.00  0.00     0.090 C 
HETATM   18  C   UNL     1     -38.412 -50.788  13.551  1.00  0.00     0.030 C 
HETATM   19  C   UNL     1     -37.681 -49.508  13.091  1.00  0.00    -0.012 C 
HETATM   20  C   UNL     1     -38.601 -48.307  13.343  1.00  0.00     0.005 C 
HETATM   21  C   UNL     1     -37.736 -49.617  11.566  1.00  0.00     0.011 C 
HETATM   22  C   UNL     1     -39.703 -48.499  12.289  1.00  0.00     0.007 C 
HETATM   23  C   UNL     1     -39.261 -49.771  11.539  1.00  0.00     0.009 C 
ENDBRANCH   4  17
TORSDOF 4
ENDMDL
