MODEL 1
REMARK VINA RESULT:      -5.5      0.000      0.000
REMARK  5 active torsions:
REMARK  status: ('A' for Active; 'I' for Inactive)
REMARK    1  A    between atoms: N_6  and  C_7 
REMARK    2  A    between atoms: C_7  and  C_8 
REMARK    3  A    between atoms: C_8  and  N_9 
REMARK    4  A    between atoms: N_9  and  C_10 
REMARK    5  A    between atoms: C_10  and  C_11 
ROOT
HETATM    1  C   UNL     1     -41.600 -49.141  11.443  1.00  0.00     0.291 C 
ENDROOT
BRANCH   1   2
HETATM    2  C   UNL     1     -41.600 -47.930  10.507  1.00  0.00     0.178 C 
BRANCH   2   3
HETATM    3  N   UNL     1     -42.828 -47.813   9.746  1.00  0.00    -0.302 N 
HETATM    4  N   UNL     1     -42.813 -47.996   8.415  1.00  0.00    -0.310 N 
HETATM    5  C   UNL     1     -44.083 -47.782   8.055  1.00  0.00     0.115 A 
ATOM      6  HN  UNL     1     -42.022 -48.240   7.820  1.00  0.00     0.186 HD
HETATM    7  C   UNL     1     -44.909 -47.442   9.153  1.00  0.00    -0.028 A 
HETATM    8  C   UNL     1     -46.352 -47.118   9.148  1.00  0.00     0.051 C 
HETATM    9  C   UNL     1     -44.056 -47.470  10.234  1.00  0.00     0.118 A 
ENDBRANCH   2   3
ENDBRANCH   1   2
BRANCH   1  10
HETATM   10  N   UNL     1     -40.679 -50.218  11.045  1.00  0.00     0.085 N 
HETATM   11  H   UNL     1     -40.139 -49.933  10.228  1.00  0.00     0.315 HD
BRANCH  10  12
HETATM   12  C   UNL     1     -39.790 -50.629  12.127  1.00  0.00     0.274 C 
BRANCH  12  13
HETATM   13  C   UNL     1     -40.411 -51.756  12.951  1.00  0.00     0.014 C 
HETATM   14  C   UNL     1     -39.414 -52.523  13.825  1.00  0.00     0.006 C 
HETATM   15  C   UNL     1     -39.922 -53.965  13.875  1.00  0.00     0.000 C 
HETATM   16  C   UNL     1     -41.184 -54.004  13.018  1.00  0.00     0.000 C 
HETATM   17  C   UNL     1     -41.025 -52.837  12.063  1.00  0.00     0.006 C 
ENDBRANCH  12  13
ENDBRANCH  10  12
ENDBRANCH   1  10
TORSDOF 5
ENDMDL
MODEL 2
REMARK VINA RESULT:      -5.4      4.822      7.262
REMARK  5 active torsions:
REMARK  status: ('A' for Active; 'I' for Inactive)
REMARK    1  A    between atoms: N_6  and  C_7 
REMARK    2  A    between atoms: C_7  and  C_8 
REMARK    3  A    between atoms: C_8  and  N_9 
REMARK    4  A    between atoms: N_9  and  C_10 
REMARK    5  A    between atoms: C_10  and  C_11 
ROOT
HETATM    1  C   UNL     1     -45.029 -54.188  13.501  1.00  0.00     0.291 C 
ENDROOT
BRANCH   1   2
HETATM    2  C   UNL     1     -44.345 -53.443  12.352  1.00  0.00     0.178 C 
BRANCH   2   3
HETATM    3  N   UNL     1     -42.908 -53.354  12.522  1.00  0.00    -0.302 N 
HETATM    4  N   UNL     1     -42.186 -52.551  11.722  1.00  0.00    -0.310 N 
HETATM    5  C   UNL     1     -40.929 -52.745  12.136  1.00  0.00     0.115 A 
ATOM      6  HN  UNL     1     -42.518 -51.938  10.977  1.00  0.00     0.186 HD
HETATM    7  C   UNL     1     -40.843 -53.688  13.187  1.00  0.00    -0.028 A 
HETATM    8  C   UNL     1     -39.633 -54.173  13.886  1.00  0.00     0.051 C 
HETATM    9  C   UNL     1     -42.150 -54.063  13.408  1.00  0.00     0.118 A 
ENDBRANCH   2   3
ENDBRANCH   1   2
BRANCH   1  10
HETATM   10  N   UNL     1     -46.374 -53.690  13.834  1.00  0.00     0.085 N 
HETATM   11  H   UNL     1     -46.532 -53.751  14.840  1.00  0.00     0.315 HD
BRANCH  10  12
HETATM   12  C   UNL     1     -46.601 -52.326  13.364  1.00  0.00     0.274 C 
BRANCH  12  13
HETATM   13  C   UNL     1     -46.625 -51.340  14.531  1.00  0.00     0.014 C 
HETATM   14  C   UNL     1     -45.240 -50.937  15.046  1.00  0.00     0.006 C 
HETATM   15  C   UNL     1     -45.400 -50.711  16.550  1.00  0.00     0.000 C 
HETATM   16  C   UNL     1     -46.862 -51.004  16.874  1.00  0.00     0.000 C 
HETATM   17  C   UNL     1     -47.314 -51.929  15.760  1.00  0.00     0.006 C 
ENDBRANCH  12  13
ENDBRANCH  10  12
ENDBRANCH   1  10
TORSDOF 5
ENDMDL
MODEL 3
REMARK VINA RESULT:      -5.3      1.632      2.160
REMARK  5 active torsions:
REMARK  status: ('A' for Active; 'I' for Inactive)
REMARK    1  A    between atoms: N_6  and  C_7 
REMARK    2  A    between atoms: C_7  and  C_8 
REMARK    3  A    between atoms: C_8  and  N_9 
REMARK    4  A    between atoms: N_9  and  C_10 
REMARK    5  A    between atoms: C_10  and  C_11 
ROOT
HETATM    1  C   UNL     1     -41.905 -48.766  11.872  1.00  0.00     0.291 C 
ENDROOT
BRANCH   1   2
HETATM    2  C   UNL     1     -41.647 -48.046  10.546  1.00  0.00     0.178 C 
BRANCH   2   3
HETATM    3  N   UNL     1     -42.856 -47.864   9.766  1.00  0.00    -0.302 N 
HETATM    4  N   UNL     1     -42.817 -47.989   8.429  1.00  0.00    -0.310 N 
HETATM    5  C   UNL     1     -44.073 -47.727   8.053  1.00  0.00     0.115 A 
ATOM      6  HN  UNL     1     -42.018 -48.227   7.840  1.00  0.00     0.186 HD
HETATM    7  C   UNL     1     -44.913 -47.415   9.147  1.00  0.00    -0.028 A 
HETATM    8  C   UNL     1     -46.348 -47.055   9.128  1.00  0.00     0.051 C 
HETATM    9  C   UNL     1     -44.085 -47.512  10.244  1.00  0.00     0.118 A 
ENDBRANCH   2   3
ENDBRANCH   1   2
BRANCH   1  10
HETATM   10  N   UNL     1     -42.093 -50.221  11.747  1.00  0.00     0.085 N 
HETATM   11  H   UNL     1     -41.198 -50.676  11.570  1.00  0.00     0.315 HD
BRANCH  10  12
HETATM   12  C   UNL     1     -42.741 -50.808  12.917  1.00  0.00     0.274 C 
BRANCH  12  13
HETATM   13  C   UNL     1     -42.737 -52.334  12.840  1.00  0.00     0.014 C 
HETATM   14  C   UNL     1     -44.103 -52.955  12.536  1.00  0.00     0.006 C 
HETATM   15  C   UNL     1     -44.131 -54.291  13.279  1.00  0.00     0.000 C 
HETATM   16  C   UNL     1     -42.795 -54.405  14.008  1.00  0.00     0.000 C 
HETATM   17  C   UNL     1     -42.334 -52.969  14.169  1.00  0.00     0.006 C 
ENDBRANCH  12  13
ENDBRANCH  10  12
ENDBRANCH   1  10
TORSDOF 5
ENDMDL
MODEL 4
REMARK VINA RESULT:      -5.2      3.918      4.734
REMARK  5 active torsions:
REMARK  status: ('A' for Active; 'I' for Inactive)
REMARK    1  A    between atoms: N_6  and  C_7 
REMARK    2  A    between atoms: C_7  and  C_8 
REMARK    3  A    between atoms: C_8  and  N_9 
REMARK    4  A    between atoms: N_9  and  C_10 
REMARK    5  A    between atoms: C_10  and  C_11 
ROOT
HETATM    1  C   UNL     1     -42.167 -50.769  13.030  1.00  0.00     0.291 C 
ENDROOT
BRANCH   1   2
HETATM    2  C   UNL     1     -43.434 -49.915  12.927  1.00  0.00     0.178 C 
BRANCH   2   3
HETATM    3  N   UNL     1     -44.625 -50.634  13.333  1.00  0.00    -0.302 N 
HETATM    4  N   UNL     1     -45.503 -51.056  12.407  1.00  0.00    -0.310 N 
HETATM    5  C   UNL     1     -46.468 -51.633  13.131  1.00  0.00     0.115 A 
ATOM      6  HN  UNL     1     -45.446 -50.960  11.393  1.00  0.00     0.186 HD
HETATM    7  C   UNL     1     -46.220 -51.563  14.522  1.00  0.00    -0.028 A 
HETATM    8  C   UNL     1     -47.060 -52.068  15.629  1.00  0.00     0.051 C 
HETATM    9  C   UNL     1     -45.013 -50.904  14.614  1.00  0.00     0.118 A 
ENDBRANCH   2   3
ENDBRANCH   1   2
BRANCH   1  10
HETATM   10  N   UNL     1     -41.978 -51.712  11.915  1.00  0.00     0.085 N 
HETATM   11  H   UNL     1     -41.242 -51.376  11.293  1.00  0.00     0.315 HD
BRANCH  10  12
HETATM   12  C   UNL     1     -41.684 -53.069  12.368  1.00  0.00     0.274 C 
BRANCH  12  13
HETATM   13  C   UNL     1     -42.558 -53.451  13.561  1.00  0.00     0.014 C 
HETATM   14  C   UNL     1     -41.890 -54.406  14.555  1.00  0.00     0.006 C 
HETATM   15  C   UNL     1     -43.012 -55.283  15.112  1.00  0.00     0.000 C 
HETATM   16  C   UNL     1     -44.294 -54.831  14.421  1.00  0.00     0.000 C 
HETATM   17  C   UNL     1     -43.818 -54.197  13.127  1.00  0.00     0.006 C 
ENDBRANCH  12  13
ENDBRANCH  10  12
ENDBRANCH   1  10
TORSDOF 5
ENDMDL
MODEL 5
REMARK VINA RESULT:      -5.1      3.559      6.020
REMARK  5 active torsions:
REMARK  status: ('A' for Active; 'I' for Inactive)
REMARK    1  A    between atoms: N_6  and  C_7 
REMARK    2  A    between atoms: C_7  and  C_8 
REMARK    3  A    between atoms: C_8  and  N_9 
REMARK    4  A    between atoms: N_9  and  C_10 
REMARK    5  A    between atoms: C_10  and  C_11 
ROOT
HETATM    1  C   UNL     1     -42.434 -52.575  12.748  1.00  0.00     0.291 C 
ENDROOT
BRANCH   1   2
HETATM    2  C   UNL     1     -41.153 -52.617  11.910  1.00  0.00     0.178 C 
BRANCH   2   3
HETATM    3  N   UNL     1     -40.402 -51.380  11.978  1.00  0.00    -0.302 N 
HETATM    4  N   UNL     1     -40.561 -50.444  11.026  1.00  0.00    -0.310 N 
HETATM    5  C   UNL     1     -39.707 -49.481  11.387  1.00  0.00     0.115 A 
ATOM      6  HN  UNL     1     -41.186 -50.464  10.220  1.00  0.00     0.186 HD
HETATM    7  C   UNL     1     -38.984 -49.807  12.558  1.00  0.00    -0.028 A 
HETATM    8  C   UNL     1     -37.946 -49.010  13.246  1.00  0.00     0.051 C 
HETATM    9  C   UNL     1     -39.462 -51.051  12.911  1.00  0.00     0.118 A 
ENDBRANCH   2   3
ENDBRANCH   1   2
BRANCH   1  10
HETATM   10  N   UNL     1     -43.644 -53.009  12.030  1.00  0.00     0.085 N 
HETATM   11  H   UNL     1     -43.401 -53.326  11.091  1.00  0.00     0.315 HD
BRANCH  10  12
HETATM   12  C   UNL     1     -44.381 -54.048  12.744  1.00  0.00     0.274 C 
BRANCH  12  13
HETATM   13  C   UNL     1     -45.665 -53.489  13.357  1.00  0.00     0.014 C 
HETATM   14  C   UNL     1     -46.075 -52.115  12.819  1.00  0.00     0.006 C 
HETATM   15  C   UNL     1     -46.746 -51.390  13.986  1.00  0.00     0.000 C 
HETATM   16  C   UNL     1     -46.693 -52.348  15.172  1.00  0.00     0.000 C 
HETATM   17  C   UNL     1     -45.526 -53.266  14.861  1.00  0.00     0.006 C 
ENDBRANCH  12  13
ENDBRANCH  10  12
ENDBRANCH   1  10
TORSDOF 5
ENDMDL
MODEL 6
REMARK VINA RESULT:      -5.1      2.091      3.414
REMARK  5 active torsions:
REMARK  status: ('A' for Active; 'I' for Inactive)
REMARK    1  A    between atoms: N_6  and  C_7 
REMARK    2  A    between atoms: C_7  and  C_8 
REMARK    3  A    between atoms: C_8  and  N_9 
REMARK    4  A    between atoms: N_9  and  C_10 
REMARK    5  A    between atoms: C_10  and  C_11 
ROOT
HETATM    1  C   UNL     1     -41.335 -50.998  12.034  1.00  0.00     0.291 C 
ENDROOT
BRANCH   1   2
HETATM    2  C   UNL     1     -40.299 -50.052  11.420  1.00  0.00     0.178 C 
BRANCH   2   3
HETATM    3  N   UNL     1     -40.859 -48.762  11.071  1.00  0.00    -0.302 N 
HETATM    4  N   UNL     1     -42.017 -48.693  10.392  1.00  0.00    -0.310 N 
HETATM    5  C   UNL     1     -42.203 -47.381  10.222  1.00  0.00     0.115 A 
ATOM      6  HN  UNL     1     -42.612 -49.461  10.080  1.00  0.00     0.186 HD
HETATM    7  C   UNL     1     -41.155 -46.607  10.774  1.00  0.00    -0.028 A 
HETATM    8  C   UNL     1     -41.000 -45.136  10.767  1.00  0.00     0.051 C 
HETATM    9  C   UNL     1     -40.299 -47.541  11.315  1.00  0.00     0.118 A 
ENDBRANCH   2   3
ENDBRANCH   1   2
BRANCH   1  10
HETATM   10  N   UNL     1     -41.336 -52.354  11.459  1.00  0.00     0.085 N 
HETATM   11  H   UNL     1     -40.575 -52.450  10.787  1.00  0.00     0.315 HD
BRANCH  10  12
HETATM   12  C   UNL     1     -41.252 -53.397  12.478  1.00  0.00     0.274 C 
BRANCH  12  13
HETATM   13  C   UNL     1     -42.531 -53.453  13.313  1.00  0.00     0.014 C 
HETATM   14  C   UNL     1     -42.520 -54.516  14.415  1.00  0.00     0.006 C 
HETATM   15  C   UNL     1     -43.964 -55.002  14.544  1.00  0.00     0.000 C 
HETATM   16  C   UNL     1     -44.772 -54.227  13.507  1.00  0.00     0.000 C 
HETATM   17  C   UNL     1     -43.748 -53.818  12.465  1.00  0.00     0.006 C 
ENDBRANCH  12  13
ENDBRANCH  10  12
ENDBRANCH   1  10
TORSDOF 5
ENDMDL
MODEL 7
REMARK VINA RESULT:      -5.0      3.862      6.527
REMARK  5 active torsions:
REMARK  status: ('A' for Active; 'I' for Inactive)
REMARK    1  A    between atoms: N_6  and  C_7 
REMARK    2  A    between atoms: C_7  and  C_8 
REMARK    3  A    between atoms: C_8  and  N_9 
REMARK    4  A    between atoms: N_9  and  C_10 
REMARK    5  A    between atoms: C_10  and  C_11 
ROOT
HETATM    1  C   UNL     1     -42.987 -49.278  13.051  1.00  0.00     0.291 C 
ENDROOT
BRANCH   1   2
HETATM    2  C   UNL     1     -43.244 -50.785  13.132  1.00  0.00     0.178 C 
BRANCH   2   3
HETATM    3  N   UNL     1     -44.589 -51.099  13.573  1.00  0.00    -0.302 N 
HETATM    4  N   UNL     1     -45.536 -51.407  12.671  1.00  0.00    -0.310 N 
HETATM    5  C   UNL     1     -46.628 -51.598  13.417  1.00  0.00     0.115 A 
ATOM      6  HN  UNL     1     -45.443 -51.479  11.658  1.00  0.00     0.186 HD
HETATM    7  C   UNL     1     -46.387 -51.392  14.796  1.00  0.00    -0.028 A 
HETATM    8  C   UNL     1     -47.345 -51.491  15.918  1.00  0.00     0.051 C 
HETATM    9  C   UNL     1     -45.050 -51.067  14.857  1.00  0.00     0.118 A 
ENDBRANCH   2   3
ENDBRANCH   1   2
BRANCH   1  10
HETATM   10  N   UNL     1     -42.840 -48.760  11.680  1.00  0.00     0.085 N 
HETATM   11  H   UNL     1     -43.340 -49.359  11.023  1.00  0.00     0.315 HD
BRANCH  10  12
HETATM   12  C   UNL     1     -43.287 -47.376  11.551  1.00  0.00     0.274 C 
BRANCH  12  13
HETATM   13  C   UNL     1     -43.696 -47.063  10.112  1.00  0.00     0.014 C 
HETATM   14  C   UNL     1     -45.114 -47.510   9.746  1.00  0.00     0.006 C 
HETATM   15  C   UNL     1     -45.063 -47.902   8.269  1.00  0.00     0.000 C 
HETATM   16  C   UNL     1     -43.620 -47.692   7.820  1.00  0.00     0.000 C 
HETATM   17  C   UNL     1     -42.811 -47.788   9.100  1.00  0.00     0.006 C 
ENDBRANCH  12  13
ENDBRANCH  10  12
ENDBRANCH   1  10
TORSDOF 5
ENDMDL
MODEL 8
REMARK VINA RESULT:      -4.9      3.333      4.932
REMARK  5 active torsions:
REMARK  status: ('A' for Active; 'I' for Inactive)
REMARK    1  A    between atoms: N_6  and  C_7 
REMARK    2  A    between atoms: C_7  and  C_8 
REMARK    3  A    between atoms: C_8  and  N_9 
REMARK    4  A    between atoms: N_9  and  C_10 
REMARK    5  A    between atoms: C_10  and  C_11 
ROOT
HETATM    1  C   UNL     1     -42.018 -52.671  12.948  1.00  0.00     0.291 C 
ENDROOT
BRANCH   1   2
HETATM    2  C   UNL     1     -41.052 -52.053  11.934  1.00  0.00     0.178 C 
BRANCH   2   3
HETATM    3  N   UNL     1     -41.325 -50.651  11.686  1.00  0.00    -0.302 N 
HETATM    4  N   UNL     1     -40.626 -49.985  10.751  1.00  0.00    -0.310 N 
HETATM    5  C   UNL     1     -41.113 -48.742  10.822  1.00  0.00     0.115 A 
ATOM      6  HN  UNL     1     -39.897 -50.344  10.134  1.00  0.00     0.186 HD
HETATM    7  C   UNL     1     -42.110 -48.605  11.816  1.00  0.00    -0.028 A 
HETATM    8  C   UNL     1     -42.860 -47.390  12.200  1.00  0.00     0.051 C 
HETATM    9  C   UNL     1     -42.218 -49.867  12.358  1.00  0.00     0.118 A 
ENDBRANCH   2   3
ENDBRANCH   1   2
BRANCH   1  10
HETATM   10  N   UNL     1     -43.166 -53.369  12.346  1.00  0.00     0.085 N 
HETATM   11  H   UNL     1     -42.847 -53.998  11.609  1.00  0.00     0.315 HD
BRANCH  10  12
HETATM   12  C   UNL     1     -43.961 -54.098  13.331  1.00  0.00     0.274 C 
BRANCH  12  13
HETATM   13  C   UNL     1     -45.327 -53.441  13.529  1.00  0.00     0.014 C 
HETATM   14  C   UNL     1     -45.825 -52.642  12.322  1.00  0.00     0.006 C 
HETATM   15  C   UNL     1     -46.632 -51.476  12.894  1.00  0.00     0.000 C 
HETATM   16  C   UNL     1     -46.569 -51.616  14.412  1.00  0.00     0.000 C 
HETATM   17  C   UNL     1     -45.306 -52.417  14.662  1.00  0.00     0.006 C 
ENDBRANCH  12  13
ENDBRANCH  10  12
ENDBRANCH   1  10
TORSDOF 5
ENDMDL
MODEL 9
REMARK VINA RESULT:      -4.9      4.278      5.842
REMARK  5 active torsions:
REMARK  status: ('A' for Active; 'I' for Inactive)
REMARK    1  A    between atoms: N_6  and  C_7 
REMARK    2  A    between atoms: C_7  and  C_8 
REMARK    3  A    between atoms: C_8  and  N_9 
REMARK    4  A    between atoms: N_9  and  C_10 
REMARK    5  A    between atoms: C_10  and  C_11 
ROOT
HETATM    1  C   UNL     1     -46.558 -53.102  14.697  1.00  0.00     0.291 C 
ENDROOT
BRANCH   1   2
HETATM    2  C   UNL     1     -46.595 -51.626  14.295  1.00  0.00     0.178 C 
BRANCH   2   3
HETATM    3  N   UNL     1     -45.271 -51.054  14.146  1.00  0.00    -0.302 N 
HETATM    4  N   UNL     1     -44.772 -50.825  12.920  1.00  0.00    -0.310 N 
HETATM    5  C   UNL     1     -43.551 -50.339  13.165  1.00  0.00     0.115 A 
ATOM      6  HN  UNL     1     -45.219 -50.983  12.017  1.00  0.00     0.186 HD
HETATM    7  C   UNL     1     -43.258 -50.276  14.547  1.00  0.00    -0.028 A 
HETATM    8  C   UNL     1     -42.013 -49.817  15.200  1.00  0.00     0.051 C 
HETATM    9  C   UNL     1     -44.401 -50.752  15.153  1.00  0.00     0.118 A 
ENDBRANCH   2   3
ENDBRANCH   1   2
BRANCH   1  10
HETATM   10  N   UNL     1     -46.311 -54.030  13.581  1.00  0.00     0.085 N 
HETATM   11  H   UNL     1     -46.067 -53.509  12.739  1.00  0.00     0.315 HD
BRANCH  10  12
HETATM   12  C   UNL     1     -45.280 -55.018  13.887  1.00  0.00     0.274 C 
BRANCH  12  13
HETATM   13  C   UNL     1     -43.968 -54.339  14.277  1.00  0.00     0.014 C 
HETATM   14  C   UNL     1     -43.069 -53.973  13.092  1.00  0.00     0.006 C 
HETATM   15  C   UNL     1     -41.632 -54.120  13.595  1.00  0.00     0.000 C 
HETATM   16  C   UNL     1     -41.730 -54.583  15.045  1.00  0.00     0.000 C 
HETATM   17  C   UNL     1     -43.090 -55.249  15.134  1.00  0.00     0.006 C 
ENDBRANCH  12  13
ENDBRANCH  10  12
ENDBRANCH   1  10
TORSDOF 5
ENDMDL
