MODEL 1
REMARK VINA RESULT:      -6.1      0.000      0.000
REMARK  4 active torsions:
REMARK  status: ('A' for Active; 'I' for Inactive)
REMARK    1  A    between atoms: C_2  and  C_4 
REMARK       I    between atoms: N_8  and  C_9 
REMARK       I    between atoms: C_9  and  N_11 
REMARK    2  A    between atoms: N_11  and  C_12 
REMARK    3  A    between atoms: C_12  and  C_13 
REMARK    4  A    between atoms: C_13  and  C_14 
ROOT
HETATM    1  C   UNL     1     -39.693 -49.408  11.595  1.00  0.00     0.092 C 
HETATM    2  C   UNL     1     -39.965 -47.923  11.890  1.00  0.00     0.027 C 
HETATM    3  C   UNL     1     -41.481 -47.758  11.849  1.00  0.00     0.022 C 
HETATM    4  C   UNL     1     -42.047 -49.155  11.676  1.00  0.00     0.128 C 
HETATM    5  N   UNL     1     -40.952 -50.064  11.964  1.00  0.00    -0.329 N 
HETATM    6  C   UNL     1     -41.104 -51.415  12.213  1.00  0.00     0.318 C 
HETATM    7  O   UNL     1     -40.185 -52.169  12.508  1.00  0.00    -0.247 OA
HETATM    8  N   UNL     1     -42.409 -51.867  12.120  1.00  0.00    -0.343 N 
HETATM    9  H   UNL     1     -42.986 -51.389  11.448  1.00  0.00     0.164 HD
ENDROOT
BRANCH   8  10
HETATM   10  C   UNL     1     -42.784 -53.235  12.471  1.00  0.00     0.129 C 
BRANCH  10  11
HETATM   11  C   UNL     1     -44.296 -53.479  12.364  1.00  0.00     0.062 C 
BRANCH  11  12
HETATM   12  C   UNL     1     -45.103 -52.631  13.300  1.00  0.00    -0.009 A 
HETATM   13  C   UNL     1     -46.261 -51.850  13.020  1.00  0.00     0.030 A 
HETATM   14  C   UNL     1     -46.993 -51.663  11.741  1.00  0.00     0.070 C 
HETATM   15  N   UNL     1     -46.713 -51.221  14.107  1.00  0.00    -0.303 N 
HETATM   16  N   UNL     1     -45.869 -51.586  15.083  1.00  0.00    -0.300 N 
ATOM     17  HN  UNL     1     -47.521 -50.601  14.179  1.00  0.00     0.186 HD
HETATM   18  C   UNL     1     -46.070 -51.052  16.411  1.00  0.00     0.177 C 
HETATM   19  C   UNL     1     -44.896 -52.454  14.663  1.00  0.00     0.032 A 
HETATM   20  C   UNL     1     -43.866 -53.036  15.563  1.00  0.00     0.070 C 
ENDBRANCH  11  12
ENDBRANCH  10  11
ENDBRANCH   8  10
BRANCH   1  21
HETATM   21  C   UNL     1     -38.334 -49.915  12.132  1.00  0.00     0.000 C 
HETATM   22  C   UNL     1     -37.290 -49.948  10.998  1.00  0.00     0.011 C 
HETATM   23  C   UNL     1     -37.767 -49.120  13.308  1.00  0.00     0.011 C 
ENDBRANCH   1  21
TORSDOF 4
ENDMDL
MODEL 2
REMARK VINA RESULT:      -6.1      0.987      1.995
REMARK  4 active torsions:
REMARK  status: ('A' for Active; 'I' for Inactive)
REMARK    1  A    between atoms: C_2  and  C_4 
REMARK       I    between atoms: N_8  and  C_9 
REMARK       I    between atoms: C_9  and  N_11 
REMARK    2  A    between atoms: N_11  and  C_12 
REMARK    3  A    between atoms: C_12  and  C_13 
REMARK    4  A    between atoms: C_13  and  C_14 
ROOT
HETATM    1  C   UNL     1     -39.672 -49.347  11.665  1.00  0.00     0.092 C 
HETATM    2  C   UNL     1     -39.967 -47.881  12.028  1.00  0.00     0.027 C 
HETATM    3  C   UNL     1     -41.485 -47.732  11.971  1.00  0.00     0.022 C 
HETATM    4  C   UNL     1     -42.030 -49.126  11.721  1.00  0.00     0.128 C 
HETATM    5  N   UNL     1     -40.928 -50.035  11.981  1.00  0.00    -0.329 N 
HETATM    6  C   UNL     1     -41.067 -51.399  12.161  1.00  0.00     0.318 C 
HETATM    7  O   UNL     1     -40.143 -52.155  12.433  1.00  0.00    -0.247 OA
HETATM    8  N   UNL     1     -42.364 -51.860  12.025  1.00  0.00    -0.343 N 
HETATM    9  H   UNL     1     -42.938 -51.357  11.368  1.00  0.00     0.164 HD
ENDROOT
BRANCH   8  10
HETATM   10  C   UNL     1     -42.728 -53.249  12.302  1.00  0.00     0.129 C 
BRANCH  10  11
HETATM   11  C   UNL     1     -44.242 -53.440  12.474  1.00  0.00     0.062 C 
BRANCH  11  12
HETATM   12  C   UNL     1     -44.692 -53.370  13.901  1.00  0.00    -0.009 A 
HETATM   13  C   UNL     1     -44.236 -54.131  15.017  1.00  0.00     0.030 A 
HETATM   14  C   UNL     1     -43.194 -55.187  15.083  1.00  0.00     0.070 C 
HETATM   15  N   UNL     1     -44.872 -53.796  16.142  1.00  0.00    -0.303 N 
HETATM   16  N   UNL     1     -45.727 -52.831  15.771  1.00  0.00    -0.300 N 
ATOM     17  HN  UNL     1     -44.738 -54.186  17.075  1.00  0.00     0.186 HD
HETATM   18  C   UNL     1     -46.598 -52.254  16.769  1.00  0.00     0.177 C 
HETATM   19  C   UNL     1     -45.646 -52.515  14.441  1.00  0.00     0.032 A 
HETATM   20  C   UNL     1     -46.458 -51.450  13.795  1.00  0.00     0.070 C 
ENDBRANCH  11  12
ENDBRANCH  10  11
ENDBRANCH   8  10
BRANCH   1  21
HETATM   21  C   UNL     1     -38.315 -49.864  12.197  1.00  0.00     0.000 C 
HETATM   22  C   UNL     1     -37.291 -49.959  11.049  1.00  0.00     0.011 C 
HETATM   23  C   UNL     1     -37.712 -49.040  13.335  1.00  0.00     0.011 C 
ENDBRANCH   1  21
TORSDOF 4
ENDMDL
MODEL 3
REMARK VINA RESULT:      -6.0      1.968      7.108
REMARK  4 active torsions:
REMARK  status: ('A' for Active; 'I' for Inactive)
REMARK    1  A    between atoms: C_2  and  C_4 
REMARK       I    between atoms: N_8  and  C_9 
REMARK       I    between atoms: C_9  and  N_11 
REMARK    2  A    between atoms: N_11  and  C_12 
REMARK    3  A    between atoms: C_12  and  C_13 
REMARK    4  A    between atoms: C_13  and  C_14 
ROOT
HETATM    1  C   UNL     1     -45.122 -52.814  12.917  1.00  0.00     0.092 C 
HETATM    2  C   UNL     1     -45.662 -54.061  13.638  1.00  0.00     0.027 C 
HETATM    3  C   UNL     1     -44.442 -54.921  13.958  1.00  0.00     0.022 C 
HETATM    4  C   UNL     1     -43.235 -54.098  13.551  1.00  0.00     0.128 C 
HETATM    5  N   UNL     1     -43.725 -52.745  13.357  1.00  0.00    -0.329 N 
HETATM    6  C   UNL     1     -42.916 -51.627  13.273  1.00  0.00     0.318 C 
HETATM    7  O   UNL     1     -43.335 -50.480  13.163  1.00  0.00    -0.247 OA
HETATM    8  N   UNL     1     -41.561 -51.899  13.341  1.00  0.00    -0.343 N 
HETATM    9  H   UNL     1     -41.277 -52.782  12.952  1.00  0.00     0.164 HD
ENDROOT
BRANCH   8  10
HETATM   10  C   UNL     1     -40.557 -50.837  13.395  1.00  0.00     0.129 C 
BRANCH  10  11
HETATM   11  C   UNL     1     -40.233 -50.259  12.010  1.00  0.00     0.062 C 
BRANCH  11  12
HETATM   12  C   UNL     1     -40.186 -48.761  11.987  1.00  0.00    -0.009 A 
HETATM   13  C   UNL     1     -39.310 -47.888  12.696  1.00  0.00     0.030 A 
HETATM   14  C   UNL     1     -38.207 -48.208  13.638  1.00  0.00     0.070 C 
HETATM   15  N   UNL     1     -39.564 -46.604  12.430  1.00  0.00    -0.303 N 
HETATM   16  N   UNL     1     -40.584 -46.637  11.560  1.00  0.00    -0.300 N 
ATOM     17  HN  UNL     1     -39.088 -45.783  12.804  1.00  0.00     0.186 HD
HETATM   18  C   UNL     1     -41.124 -45.386  11.077  1.00  0.00     0.177 C 
HETATM   19  C   UNL     1     -40.984 -47.906  11.236  1.00  0.00     0.032 A 
HETATM   20  C   UNL     1     -42.066 -48.208  10.263  1.00  0.00     0.070 C 
ENDBRANCH  11  12
ENDBRANCH  10  11
ENDBRANCH   8  10
BRANCH   1  21
HETATM   21  C   UNL     1     -46.056 -51.585  13.008  1.00  0.00     0.000 C 
HETATM   22  C   UNL     1     -47.057 -51.586  11.835  1.00  0.00     0.011 C 
HETATM   23  C   UNL     1     -46.829 -51.456  14.321  1.00  0.00     0.011 C 
ENDBRANCH   1  21
TORSDOF 4
ENDMDL
MODEL 4
REMARK VINA RESULT:      -6.0      2.557      6.897
REMARK  4 active torsions:
REMARK  status: ('A' for Active; 'I' for Inactive)
REMARK    1  A    between atoms: C_2  and  C_4 
REMARK       I    between atoms: N_8  and  C_9 
REMARK       I    between atoms: C_9  and  N_11 
REMARK    2  A    between atoms: N_11  and  C_12 
REMARK    3  A    between atoms: C_12  and  C_13 
REMARK    4  A    between atoms: C_13  and  C_14 
ROOT
HETATM    1  C   UNL     1     -44.610 -52.479  12.937  1.00  0.00     0.092 C 
HETATM    2  C   UNL     1     -44.510 -53.805  13.710  1.00  0.00     0.027 C 
HETATM    3  C   UNL     1     -43.032 -54.186  13.700  1.00  0.00     0.022 C 
HETATM    4  C   UNL     1     -42.306 -53.019  13.058  1.00  0.00     0.128 C 
HETATM    5  N   UNL     1     -43.258 -51.921  13.041  1.00  0.00    -0.329 N 
HETATM    6  C   UNL     1     -42.921 -50.600  12.818  1.00  0.00     0.318 C 
HETATM    7  O   UNL     1     -43.717 -49.669  12.858  1.00  0.00    -0.247 OA
HETATM    8  N   UNL     1     -41.578 -50.392  12.556  1.00  0.00    -0.343 N 
HETATM    9  H   UNL     1     -41.109 -51.141  12.074  1.00  0.00     0.164 HD
ENDROOT
BRANCH   8  10
HETATM   10  C   UNL     1     -41.011 -49.051  12.420  1.00  0.00     0.129 C 
BRANCH  10  11
HETATM   11  C   UNL     1     -41.153 -48.492  10.997  1.00  0.00     0.062 C 
BRANCH  11  12
HETATM   12  C   UNL     1     -41.741 -47.114  10.957  1.00  0.00    -0.009 A 
HETATM   13  C   UNL     1     -43.046 -46.714  10.544  1.00  0.00     0.030 A 
HETATM   14  C   UNL     1     -44.180 -47.539  10.053  1.00  0.00     0.070 C 
HETATM   15  N   UNL     1     -43.217 -45.394  10.642  1.00  0.00    -0.303 N 
HETATM   16  N   UNL     1     -42.047 -44.937  11.112  1.00  0.00    -0.300 N 
ATOM     17  HN  UNL     1     -44.051 -44.854  10.410  1.00  0.00     0.186 HD
HETATM   18  C   UNL     1     -41.889 -43.515  11.316  1.00  0.00     0.177 C 
HETATM   19  C   UNL     1     -41.130 -45.927  11.345  1.00  0.00     0.032 A 
HETATM   20  C   UNL     1     -39.776 -45.683  11.906  1.00  0.00     0.070 C 
ENDBRANCH  11  12
ENDBRANCH  10  11
ENDBRANCH   8  10
BRANCH   1  21
HETATM   21  C   UNL     1     -45.857 -51.638  13.296  1.00  0.00     0.000 C 
HETATM   22  C   UNL     1     -46.847 -51.617  12.113  1.00  0.00     0.011 C 
HETATM   23  C   UNL     1     -46.598 -52.085  14.556  1.00  0.00     0.011 C 
ENDBRANCH   1  21
TORSDOF 4
ENDMDL
MODEL 5
REMARK VINA RESULT:      -6.0      2.003      6.867
REMARK  4 active torsions:
REMARK  status: ('A' for Active; 'I' for Inactive)
REMARK    1  A    between atoms: C_2  and  C_4 
REMARK       I    between atoms: N_8  and  C_9 
REMARK       I    between atoms: C_9  and  N_11 
REMARK    2  A    between atoms: N_11  and  C_12 
REMARK    3  A    between atoms: C_12  and  C_13 
REMARK    4  A    between atoms: C_13  and  C_14 
ROOT
HETATM    1  C   UNL     1     -44.533 -52.217  13.091  1.00  0.00     0.092 C 
HETATM    2  C   UNL     1     -44.678 -53.733  13.310  1.00  0.00     0.027 C 
HETATM    3  C   UNL     1     -43.291 -54.234  13.702  1.00  0.00     0.022 C 
HETATM    4  C   UNL     1     -42.424 -52.997  13.838  1.00  0.00     0.128 C 
HETATM    5  N   UNL     1     -43.342 -51.872  13.875  1.00  0.00    -0.329 N 
HETATM    6  C   UNL     1     -42.999 -50.598  14.286  1.00  0.00     0.318 C 
HETATM    7  O   UNL     1     -43.789 -49.664  14.368  1.00  0.00    -0.247 OA
HETATM    8  N   UNL     1     -41.666 -50.450  14.626  1.00  0.00    -0.343 N 
HETATM    9  H   UNL     1     -41.021 -51.026  14.111  1.00  0.00     0.164 HD
ENDROOT
BRANCH   8  10
HETATM   10  C   UNL     1     -41.143 -49.211  15.201  1.00  0.00     0.129 C 
BRANCH  10  11
HETATM   11  C   UNL     1     -40.760 -48.179  14.132  1.00  0.00     0.062 C 
BRANCH  11  12
HETATM   12  C   UNL     1     -40.036 -48.774  12.963  1.00  0.00    -0.009 A 
HETATM   13  C   UNL     1     -40.534 -49.058  11.658  1.00  0.00     0.030 A 
HETATM   14  C   UNL     1     -41.890 -48.839  11.091  1.00  0.00     0.070 C 
HETATM   15  N   UNL     1     -39.597 -49.592  10.872  1.00  0.00    -0.303 N 
HETATM   16  N   UNL     1     -38.504 -49.655  11.646  1.00  0.00    -0.300 N 
ATOM     17  HN  UNL     1     -39.691 -49.887   9.899  1.00  0.00     0.186 HD
HETATM   18  C   UNL     1     -37.292 -50.215  11.092  1.00  0.00     0.177 C 
HETATM   19  C   UNL     1     -38.700 -49.153  12.905  1.00  0.00     0.032 A 
HETATM   20  C   UNL     1     -37.633 -49.072  13.937  1.00  0.00     0.070 C 
ENDBRANCH  11  12
ENDBRANCH  10  11
ENDBRANCH   8  10
BRANCH   1  21
HETATM   21  C   UNL     1     -45.856 -51.432  13.249  1.00  0.00     0.000 C 
HETATM   22  C   UNL     1     -46.778 -51.688  12.041  1.00  0.00     0.011 C 
HETATM   23  C   UNL     1     -46.630 -51.723  14.536  1.00  0.00     0.011 C 
ENDBRANCH   1  21
TORSDOF 4
ENDMDL
MODEL 6
REMARK VINA RESULT:      -5.9      2.329      7.101
REMARK  4 active torsions:
REMARK  status: ('A' for Active; 'I' for Inactive)
REMARK    1  A    between atoms: C_2  and  C_4 
REMARK       I    between atoms: N_8  and  C_9 
REMARK       I    between atoms: C_9  and  N_11 
REMARK    2  A    between atoms: N_11  and  C_12 
REMARK    3  A    between atoms: C_12  and  C_13 
REMARK    4  A    between atoms: C_13  and  C_14 
ROOT
HETATM    1  C   UNL     1     -44.459 -52.236  13.152  1.00  0.00     0.092 C 
HETATM    2  C   UNL     1     -44.633 -53.711  13.550  1.00  0.00     0.027 C 
HETATM    3  C   UNL     1     -43.245 -54.203  13.953  1.00  0.00     0.022 C 
HETATM    4  C   UNL     1     -42.345 -52.982  13.916  1.00  0.00     0.128 C 
HETATM    5  N   UNL     1     -43.234 -51.836  13.852  1.00  0.00    -0.329 N 
HETATM    6  C   UNL     1     -42.847 -50.532  14.100  1.00  0.00     0.318 C 
HETATM    7  O   UNL     1     -43.610 -49.574  14.098  1.00  0.00    -0.247 OA
HETATM    8  N   UNL     1     -41.499 -50.383  14.377  1.00  0.00    -0.343 N 
HETATM    9  H   UNL     1     -40.887 -51.033  13.913  1.00  0.00     0.164 HD
ENDROOT
BRANCH   8  10
HETATM   10  C   UNL     1     -40.927 -49.102  14.787  1.00  0.00     0.129 C 
BRANCH  10  11
HETATM   11  C   UNL     1     -39.628 -48.769  14.041  1.00  0.00     0.062 C 
BRANCH  11  12
HETATM   12  C   UNL     1     -39.843 -47.940  12.811  1.00  0.00    -0.009 A 
HETATM   13  C   UNL     1     -40.294 -48.356  11.525  1.00  0.00     0.030 A 
HETATM   14  C   UNL     1     -40.681 -49.708  11.046  1.00  0.00     0.070 C 
HETATM   15  N   UNL     1     -40.364 -47.335  10.667  1.00  0.00    -0.303 N 
HETATM   16  N   UNL     1     -39.970 -46.269  11.379  1.00  0.00    -0.300 N 
ATOM     17  HN  UNL     1     -40.654 -47.360   9.689  1.00  0.00     0.186 HD
HETATM   18  C   UNL     1     -39.912 -44.981  10.726  1.00  0.00     0.177 C 
HETATM   19  C   UNL     1     -39.669 -46.567  12.682  1.00  0.00     0.032 A 
HETATM   20  C   UNL     1     -39.249 -45.552  13.684  1.00  0.00     0.070 C 
ENDBRANCH  11  12
ENDBRANCH  10  11
ENDBRANCH   8  10
BRANCH   1  21
HETATM   21  C   UNL     1     -45.757 -51.401  13.260  1.00  0.00     0.000 C 
HETATM   22  C   UNL     1     -46.712 -51.744  12.099  1.00  0.00     0.011 C 
HETATM   23  C   UNL     1     -46.511 -51.547  14.582  1.00  0.00     0.011 C 
ENDBRANCH   1  21
TORSDOF 4
ENDMDL
MODEL 7
REMARK VINA RESULT:      -5.8      3.104      6.894
REMARK  4 active torsions:
REMARK  status: ('A' for Active; 'I' for Inactive)
REMARK    1  A    between atoms: C_2  and  C_4 
REMARK       I    between atoms: N_8  and  C_9 
REMARK       I    between atoms: C_9  and  N_11 
REMARK    2  A    between atoms: N_11  and  C_12 
REMARK    3  A    between atoms: C_12  and  C_13 
REMARK    4  A    between atoms: C_13  and  C_14 
ROOT
HETATM    1  C   UNL     1     -45.130 -52.851  12.939  1.00  0.00     0.092 C 
HETATM    2  C   UNL     1     -45.644 -54.021  13.796  1.00  0.00     0.027 C 
HETATM    3  C   UNL     1     -44.417 -54.864  14.134  1.00  0.00     0.022 C 
HETATM    4  C   UNL     1     -43.224 -54.097  13.594  1.00  0.00     0.128 C 
HETATM    5  N   UNL     1     -43.712 -52.761  13.301  1.00  0.00    -0.329 N 
HETATM    6  C   UNL     1     -42.899 -51.666  13.076  1.00  0.00     0.318 C 
HETATM    7  O   UNL     1     -43.313 -50.529  12.883  1.00  0.00    -0.247 OA
HETATM    8  N   UNL     1     -41.545 -51.948  13.101  1.00  0.00    -0.343 N 
HETATM    9  H   UNL     1     -41.287 -52.867  12.781  1.00  0.00     0.164 HD
ENDROOT
BRANCH   8  10
HETATM   10  C   UNL     1     -40.530 -50.900  13.009  1.00  0.00     0.129 C 
BRANCH  10  11
HETATM   11  C   UNL     1     -39.109 -51.430  13.246  1.00  0.00     0.062 C 
BRANCH  11  12
HETATM   12  C   UNL     1     -38.932 -52.078  14.586  1.00  0.00    -0.009 A 
HETATM   13  C   UNL     1     -38.661 -51.464  15.843  1.00  0.00     0.030 A 
HETATM   14  C   UNL     1     -38.488 -50.027  16.180  1.00  0.00     0.070 C 
HETATM   15  N   UNL     1     -38.565 -52.362  16.826  1.00  0.00    -0.303 N 
HETATM   16  N   UNL     1     -38.773 -53.543  16.224  1.00  0.00    -0.300 N 
ATOM     17  HN  UNL     1     -38.377 -52.189  17.814  1.00  0.00     0.186 HD
HETATM   18  C   UNL     1     -38.715 -54.747  17.021  1.00  0.00     0.177 C 
HETATM   19  C   UNL     1     -39.025 -53.433  14.883  1.00  0.00     0.032 A 
HETATM   20  C   UNL     1     -39.327 -54.591  14.002  1.00  0.00     0.070 C 
ENDBRANCH  11  12
ENDBRANCH  10  11
ENDBRANCH   8  10
BRANCH   1  21
HETATM   21  C   UNL     1     -46.048 -51.607  12.963  1.00  0.00     0.000 C 
HETATM   22  C   UNL     1     -47.059 -51.666  11.801  1.00  0.00     0.011 C 
HETATM   23  C   UNL     1     -46.807 -51.389  14.272  1.00  0.00     0.011 C 
ENDBRANCH   1  21
TORSDOF 4
ENDMDL
MODEL 8
REMARK VINA RESULT:      -5.8      2.768      7.180
REMARK  4 active torsions:
REMARK  status: ('A' for Active; 'I' for Inactive)
REMARK    1  A    between atoms: C_2  and  C_4 
REMARK       I    between atoms: N_8  and  C_9 
REMARK       I    between atoms: C_9  and  N_11 
REMARK    2  A    between atoms: N_11  and  C_12 
REMARK    3  A    between atoms: C_12  and  C_13 
REMARK    4  A    between atoms: C_13  and  C_14 
ROOT
HETATM    1  C   UNL     1     -44.956 -53.151  15.018  1.00  0.00     0.092 C 
HETATM    2  C   UNL     1     -46.440 -53.248  15.411  1.00  0.00     0.027 C 
HETATM    3  C   UNL     1     -46.888 -51.821  15.714  1.00  0.00     0.022 C 
HETATM    4  C   UNL     1     -45.712 -50.931  15.356  1.00  0.00     0.128 C 
HETATM    5  N   UNL     1     -44.812 -51.761  14.574  1.00  0.00    -0.329 N 
HETATM    6  C   UNL     1     -43.773 -51.273  13.803  1.00  0.00     0.318 C 
HETATM    7  O   UNL     1     -43.049 -51.970  13.103  1.00  0.00    -0.247 OA
HETATM    8  N   UNL     1     -43.615 -49.900  13.866  1.00  0.00    -0.343 N 
HETATM    9  H   UNL     1     -43.860 -49.475  14.745  1.00  0.00     0.164 HD
ENDROOT
BRANCH   8  10
HETATM   10  C   UNL     1     -42.653 -49.189  13.025  1.00  0.00     0.129 C 
BRANCH  10  11
HETATM   11  C   UNL     1     -42.890 -47.673  13.008  1.00  0.00     0.062 C 
BRANCH  11  12
HETATM   12  C   UNL     1     -42.195 -46.974  11.879  1.00  0.00    -0.009 A 
HETATM   13  C   UNL     1     -42.601 -46.861  10.517  1.00  0.00     0.030 A 
HETATM   14  C   UNL     1     -43.816 -47.387   9.842  1.00  0.00     0.070 C 
HETATM   15  N   UNL     1     -41.724 -46.163   9.792  1.00  0.00    -0.303 N 
HETATM   16  N   UNL     1     -40.762 -45.824  10.663  1.00  0.00    -0.300 N 
ATOM     17  HN  UNL     1     -41.774 -45.939   8.798  1.00  0.00     0.186 HD
HETATM   18  C   UNL     1     -39.630 -45.064  10.184  1.00  0.00     0.177 C 
HETATM   19  C   UNL     1     -41.004 -46.260  11.938  1.00  0.00     0.032 A 
HETATM   20  C   UNL     1     -40.110 -45.976  13.091  1.00  0.00     0.070 C 
ENDBRANCH  11  12
ENDBRANCH  10  11
ENDBRANCH   8  10
BRANCH   1  21
HETATM   21  C   UNL     1     -44.461 -54.329  14.147  1.00  0.00     0.000 C 
HETATM   22  C   UNL     1     -43.305 -55.066  14.852  1.00  0.00     0.011 C 
HETATM   23  C   UNL     1     -45.536 -55.345  13.762  1.00  0.00     0.011 C 
ENDBRANCH   1  21
TORSDOF 4
ENDMDL
MODEL 9
REMARK VINA RESULT:      -5.8      2.017      6.641
REMARK  4 active torsions:
REMARK  status: ('A' for Active; 'I' for Inactive)
REMARK    1  A    between atoms: C_2  and  C_4 
REMARK       I    between atoms: N_8  and  C_9 
REMARK       I    between atoms: C_9  and  N_11 
REMARK    2  A    between atoms: N_11  and  C_12 
REMARK    3  A    between atoms: C_12  and  C_13 
REMARK    4  A    between atoms: C_13  and  C_14 
ROOT
HETATM    1  C   UNL     1     -44.036 -52.016  13.268  1.00  0.00     0.092 C 
HETATM    2  C   UNL     1     -43.634 -53.273  14.059  1.00  0.00     0.027 C 
HETATM    3  C   UNL     1     -42.278 -53.701  13.505  1.00  0.00     0.022 C 
HETATM    4  C   UNL     1     -41.869 -52.619  12.524  1.00  0.00     0.128 C 
HETATM    5  N   UNL     1     -42.753 -51.496  12.781  1.00  0.00    -0.329 N 
HETATM    6  C   UNL     1     -42.536 -50.210  12.323  1.00  0.00     0.318 C 
HETATM    7  O   UNL     1     -43.255 -49.254  12.586  1.00  0.00    -0.247 OA
HETATM    8  N   UNL     1     -41.406 -50.071  11.537  1.00  0.00    -0.343 N 
HETATM    9  H   UNL     1     -41.162 -50.874  10.981  1.00  0.00     0.164 HD
ENDROOT
BRANCH   8  10
HETATM   10  C   UNL     1     -40.943 -48.767  11.065  1.00  0.00     0.129 C 
BRANCH  10  11
HETATM   11  C   UNL     1     -39.903 -48.135  12.001  1.00  0.00     0.062 C 
BRANCH  11  12
HETATM   12  C   UNL     1     -39.130 -49.142  12.797  1.00  0.00    -0.009 A 
HETATM   13  C   UNL     1     -38.017 -49.934  12.390  1.00  0.00     0.030 A 
HETATM   14  C   UNL     1     -37.312 -49.980  11.083  1.00  0.00     0.070 C 
HETATM   15  N   UNL     1     -37.584 -50.728  13.372  1.00  0.00    -0.303 N 
HETATM   16  N   UNL     1     -38.397 -50.458  14.405  1.00  0.00    -0.300 N 
ATOM     17  HN  UNL     1     -36.809 -51.391  13.343  1.00  0.00     0.186 HD
HETATM   18  C   UNL     1     -38.206 -51.178  15.643  1.00  0.00     0.177 C 
HETATM   19  C   UNL     1     -39.328 -49.494  14.127  1.00  0.00     0.032 A 
HETATM   20  C   UNL     1     -40.315 -48.989  15.118  1.00  0.00     0.070 C 
ENDBRANCH  11  12
ENDBRANCH  10  11
ENDBRANCH   8  10
BRANCH   1  21
HETATM   21  C   UNL     1     -45.044 -51.106  14.008  1.00  0.00     0.000 C 
HETATM   22  C   UNL     1     -46.489 -51.519  13.665  1.00  0.00     0.011 C 
HETATM   23  C   UNL     1     -44.885 -51.067  15.528  1.00  0.00     0.011 C 
ENDBRANCH   1  21
TORSDOF 4
ENDMDL
