MODEL 1
REMARK VINA RESULT:      -7.0      0.000      0.000
REMARK  8 active torsions:
REMARK  status: ('A' for Active; 'I' for Inactive)
REMARK    1  A    between atoms: O_1  and  C_2 
REMARK    2  A    between atoms: C_2  and  C_3 
REMARK    3  A    between atoms: N_12  and  C_13 
REMARK    4  A    between atoms: C_13  and  C_14 
REMARK    5  A    between atoms: C_14  and  O_15 
REMARK    6  A    between atoms: C_14  and  C_16 
REMARK    7  A    between atoms: C_19  and  O_20 
REMARK    8  A    between atoms: O_20  and  C_21 
ROOT
HETATM    1  C   UNL     1     -40.387 -51.600  12.984  1.00  0.00     0.167 C 
ENDROOT
BRANCH   1   2
HETATM    2  N   UNL     1     -40.124 -50.285  12.417  1.00  0.00    -0.330 N 
HETATM    3  C   UNL     1     -38.893 -49.802  12.015  1.00  0.00     0.108 A 
HETATM    4  N   UNL     1     -39.025 -48.627  11.428  1.00  0.00    -0.342 N 
HETATM    5  C   UNL     1     -40.365 -48.342  11.443  1.00  0.00     0.060 A 
ATOM      6  HN  UNL     1     -38.280 -48.048  11.041  1.00  0.00     0.167 HD
HETATM    7  C   UNL     1     -41.040 -47.223  10.932  1.00  0.00     0.032 A 
HETATM    8  C   UNL     1     -41.086 -49.362  12.055  1.00  0.00     0.062 A 
HETATM    9  C   UNL     1     -42.432 -47.161  11.048  1.00  0.00     0.002 A 
HETATM   10  C   UNL     1     -43.138 -48.189  11.671  1.00  0.00     0.002 A 
HETATM   11  C   UNL     1     -42.480 -49.315  12.188  1.00  0.00     0.032 A 
BRANCH   3  12
HETATM   12  C   UNL     1     -37.603 -50.529  12.170  1.00  0.00     0.240 C 
BRANCH  12  13
HETATM   13  O   UNL     1     -37.319 -51.204  10.952  1.00  0.00    -0.393 OA
HETATM   14  H   UNL     1     -36.995 -52.088  11.198  1.00  0.00     0.209 HD
ENDBRANCH  12  13
ENDBRANCH   3  12
ENDBRANCH   1   2
BRANCH   1  15
HETATM   15  C   UNL     1     -41.218 -52.524  12.075  1.00  0.00     0.169 C 
BRANCH  15  16
HETATM   16  O   UNL     1     -40.394 -53.513  11.454  1.00  0.00    -0.389 OA
HETATM   17  H   UNL     1     -40.325 -54.271  12.054  1.00  0.00     0.210 HD
ENDBRANCH  15  16
BRANCH  15  18
HETATM   18  C   UNL     1     -42.347 -53.257  12.791  1.00  0.00    -0.028 A 
HETATM   19  C   UNL     1     -43.653 -53.119  12.296  1.00  0.00     0.012 A 
HETATM   20  C   UNL     1     -44.732 -53.756  12.918  1.00  0.00     0.037 A 
HETATM   21  C   UNL     1     -44.528 -54.569  14.033  1.00  0.00     0.074 A 
HETATM   22  C   UNL     1     -43.237 -54.722  14.535  1.00  0.00     0.037 A 
HETATM   23  C   UNL     1     -42.154 -54.080  13.912  1.00  0.00     0.012 A 
BRANCH  21  24
HETATM   24  O   UNL     1     -45.662 -55.122  14.556  1.00  0.00    -0.290 OA
BRANCH  24  25
HETATM   25  C   UNL     1     -46.433 -54.278  15.393  1.00  0.00     0.505 C 
HETATM   26  F   UNL     1     -45.624 -53.338  15.942  1.00  0.00    -0.184 F 
HETATM   27  F   UNL     1     -47.314 -53.617  14.600  1.00  0.00    -0.184 F 
ENDBRANCH  24  25
ENDBRANCH  21  24
ENDBRANCH  15  18
ENDBRANCH   1  15
TORSDOF 8
ENDMDL
MODEL 2
REMARK VINA RESULT:      -6.8      3.496      6.368
REMARK  8 active torsions:
REMARK  status: ('A' for Active; 'I' for Inactive)
REMARK    1  A    between atoms: O_1  and  C_2 
REMARK    2  A    between atoms: C_2  and  C_3 
REMARK    3  A    between atoms: N_12  and  C_13 
REMARK    4  A    between atoms: C_13  and  C_14 
REMARK    5  A    between atoms: C_14  and  O_15 
REMARK    6  A    between atoms: C_14  and  C_16 
REMARK    7  A    between atoms: C_19  and  O_20 
REMARK    8  A    between atoms: O_20  and  C_21 
ROOT
HETATM    1  C   UNL     1     -40.860 -52.751  11.952  1.00  0.00     0.167 C 
ENDROOT
BRANCH   1   2
HETATM    2  N   UNL     1     -41.449 -53.553  13.014  1.00  0.00    -0.330 N 
HETATM    3  C   UNL     1     -40.770 -54.139  14.065  1.00  0.00     0.108 A 
HETATM    4  N   UNL     1     -41.617 -54.685  14.919  1.00  0.00    -0.342 N 
HETATM    5  C   UNL     1     -42.870 -54.445  14.417  1.00  0.00     0.060 A 
ATOM      6  HN  UNL     1     -41.386 -55.184  15.777  1.00  0.00     0.167 HD
HETATM    7  C   UNL     1     -44.119 -54.799  14.947  1.00  0.00     0.032 A 
HETATM    8  C   UNL     1     -42.802 -53.736  13.223  1.00  0.00     0.062 A 
HETATM    9  C   UNL     1     -45.277 -54.424  14.258  1.00  0.00     0.002 A 
HETATM   10  C   UNL     1     -45.191 -53.719  13.059  1.00  0.00     0.002 A 
HETATM   11  C   UNL     1     -43.950 -53.357  12.515  1.00  0.00     0.032 A 
BRANCH   3  12
HETATM   12  C   UNL     1     -39.292 -54.112  14.243  1.00  0.00     0.240 C 
BRANCH  12  13
HETATM   13  O   UNL     1     -38.711 -55.009  13.307  1.00  0.00    -0.393 OA
HETATM   14  H   UNL     1     -37.842 -54.639  13.074  1.00  0.00     0.209 HD
ENDBRANCH  12  13
ENDBRANCH   3  12
ENDBRANCH   1   2
BRANCH   1  15
HETATM   15  C   UNL     1     -40.335 -51.380  12.413  1.00  0.00     0.169 C 
BRANCH  15  16
HETATM   16  O   UNL     1     -38.995 -51.163  11.963  1.00  0.00    -0.389 OA
HETATM   17  H   UNL     1     -38.504 -50.723  12.673  1.00  0.00     0.210 HD
ENDBRANCH  15  16
BRANCH  15  18
HETATM   18  C   UNL     1     -41.170 -50.197  11.939  1.00  0.00    -0.028 A 
HETATM   19  C   UNL     1     -42.405 -49.958  12.562  1.00  0.00     0.012 A 
HETATM   20  C   UNL     1     -43.222 -48.896  12.161  1.00  0.00     0.037 A 
HETATM   21  C   UNL     1     -42.812 -48.029  11.147  1.00  0.00     0.074 A 
HETATM   22  C   UNL     1     -41.586 -48.248  10.521  1.00  0.00     0.037 A 
HETATM   23  C   UNL     1     -40.767 -49.316  10.922  1.00  0.00     0.012 A 
BRANCH  21  24
HETATM   24  O   UNL     1     -43.705 -47.042  10.840  1.00  0.00    -0.290 OA
BRANCH  24  25
HETATM   25  C   UNL     1     -44.424 -47.213   9.631  1.00  0.00     0.505 C 
HETATM   26  F   UNL     1     -45.743 -47.349   9.916  1.00  0.00    -0.184 F 
HETATM   27  F   UNL     1     -44.298 -46.064   8.920  1.00  0.00    -0.184 F 
ENDBRANCH  24  25
ENDBRANCH  21  24
ENDBRANCH  15  18
ENDBRANCH   1  15
TORSDOF 8
ENDMDL
MODEL 3
REMARK VINA RESULT:      -6.7      3.812      6.377
REMARK  8 active torsions:
REMARK  status: ('A' for Active; 'I' for Inactive)
REMARK    1  A    between atoms: O_1  and  C_2 
REMARK    2  A    between atoms: C_2  and  C_3 
REMARK    3  A    between atoms: N_12  and  C_13 
REMARK    4  A    between atoms: C_13  and  C_14 
REMARK    5  A    between atoms: C_14  and  O_15 
REMARK    6  A    between atoms: C_14  and  C_16 
REMARK    7  A    between atoms: C_19  and  O_20 
REMARK    8  A    between atoms: O_20  and  C_21 
ROOT
HETATM    1  C   UNL     1     -41.663 -50.850  14.452  1.00  0.00     0.167 C 
ENDROOT
BRANCH   1   2
HETATM    2  N   UNL     1     -42.599 -51.546  13.580  1.00  0.00    -0.330 N 
HETATM    3  C   UNL     1     -42.268 -52.370  12.521  1.00  0.00     0.108 A 
HETATM    4  N   UNL     1     -43.349 -52.943  12.024  1.00  0.00    -0.342 N 
HETATM    5  C   UNL     1     -44.400 -52.487  12.775  1.00  0.00     0.060 A 
ATOM      6  HN  UNL     1     -43.392 -53.592  11.239  1.00  0.00     0.167 HD
HETATM    7  C   UNL     1     -45.764 -52.800  12.672  1.00  0.00     0.032 A 
HETATM    8  C   UNL     1     -43.967 -51.609  13.762  1.00  0.00     0.062 A 
HETATM    9  C   UNL     1     -46.662 -52.220  13.573  1.00  0.00     0.002 A 
HETATM   10  C   UNL     1     -46.210 -51.336  14.553  1.00  0.00     0.002 A 
HETATM   11  C   UNL     1     -44.850 -51.012  14.670  1.00  0.00     0.032 A 
BRANCH   3  12
HETATM   12  C   UNL     1     -40.881 -52.624  12.043  1.00  0.00     0.240 C 
BRANCH  12  13
HETATM   13  O   UNL     1     -40.687 -54.028  11.952  1.00  0.00    -0.393 OA
HETATM   14  H   UNL     1     -41.116 -54.312  11.126  1.00  0.00     0.209 HD
ENDBRANCH  12  13
ENDBRANCH   3  12
ENDBRANCH   1   2
BRANCH   1  15
HETATM   15  C   UNL     1     -41.686 -49.318  14.308  1.00  0.00     0.169 C 
BRANCH  15  16
HETATM   16  O   UNL     1     -40.459 -48.740  14.759  1.00  0.00    -0.389 OA
HETATM   17  H   UNL     1     -39.975 -49.410  15.264  1.00  0.00     0.210 HD
ENDBRANCH  15  16
BRANCH  15  18
HETATM   18  C   UNL     1     -41.924 -48.826  12.886  1.00  0.00    -0.028 A 
HETATM   19  C   UNL     1     -43.162 -48.238  12.580  1.00  0.00     0.012 A 
HETATM   20  C   UNL     1     -43.444 -47.780  11.289  1.00  0.00     0.037 A 
HETATM   21  C   UNL     1     -42.487 -47.871  10.279  1.00  0.00     0.074 A 
HETATM   22  C   UNL     1     -41.250 -48.447  10.566  1.00  0.00     0.037 A 
HETATM   23  C   UNL     1     -40.968 -48.909  11.861  1.00  0.00     0.012 A 
BRANCH  21  24
HETATM   24  O   UNL     1     -42.890 -47.402   9.061  1.00  0.00    -0.290 OA
BRANCH  24  25
HETATM   25  C   UNL     1     -44.276 -47.501   8.787  1.00  0.00     0.505 C 
HETATM   26  F   UNL     1     -44.770 -46.262   8.541  1.00  0.00    -0.184 F 
HETATM   27  F   UNL     1     -44.411 -48.208   7.636  1.00  0.00    -0.184 F 
ENDBRANCH  24  25
ENDBRANCH  21  24
ENDBRANCH  15  18
ENDBRANCH   1  15
TORSDOF 8
ENDMDL
MODEL 4
REMARK VINA RESULT:      -6.6      3.962      6.815
REMARK  8 active torsions:
REMARK  status: ('A' for Active; 'I' for Inactive)
REMARK    1  A    between atoms: O_1  and  C_2 
REMARK    2  A    between atoms: C_2  and  C_3 
REMARK    3  A    between atoms: N_12  and  C_13 
REMARK    4  A    between atoms: C_13  and  C_14 
REMARK    5  A    between atoms: C_14  and  O_15 
REMARK    6  A    between atoms: C_14  and  C_16 
REMARK    7  A    between atoms: C_19  and  O_20 
REMARK    8  A    between atoms: O_20  and  C_21 
ROOT
HETATM    1  C   UNL     1     -41.440 -50.824  13.660  1.00  0.00     0.167 C 
ENDROOT
BRANCH   1   2
HETATM    2  N   UNL     1     -42.293 -52.002  13.598  1.00  0.00    -0.330 N 
HETATM    3  C   UNL     1     -41.887 -53.312  13.770  1.00  0.00     0.108 A 
HETATM    4  N   UNL     1     -42.929 -54.123  13.781  1.00  0.00    -0.342 N 
HETATM    5  C   UNL     1     -44.032 -53.327  13.619  1.00  0.00     0.060 A 
ATOM      6  HN  UNL     1     -42.915 -55.137  13.888  1.00  0.00     0.167 HD
HETATM    7  C   UNL     1     -45.387 -53.688  13.576  1.00  0.00     0.032 A 
HETATM    8  C   UNL     1     -43.671 -51.989  13.502  1.00  0.00     0.062 A 
HETATM    9  C   UNL     1     -46.350 -52.687  13.419  1.00  0.00     0.002 A 
HETATM   10  C   UNL     1     -45.970 -51.351  13.297  1.00  0.00     0.002 A 
HETATM   11  C   UNL     1     -44.620 -50.972  13.338  1.00  0.00     0.032 A 
BRANCH   3  12
HETATM   12  C   UNL     1     -40.477 -53.745  13.971  1.00  0.00     0.240 C 
BRANCH  12  13
HETATM   13  O   UNL     1     -39.884 -53.951  12.696  1.00  0.00    -0.393 OA
HETATM   14  H   UNL     1     -39.952 -54.904  12.513  1.00  0.00     0.209 HD
ENDBRANCH  12  13
ENDBRANCH   3  12
ENDBRANCH   1   2
BRANCH   1  15
HETATM   15  C   UNL     1     -40.726 -50.491  12.337  1.00  0.00     0.169 C 
BRANCH  15  16
HETATM   16  O   UNL     1     -40.985 -51.490  11.347  1.00  0.00    -0.389 OA
HETATM   17  H   UNL     1     -40.356 -52.216  11.477  1.00  0.00     0.210 HD
ENDBRANCH  15  16
BRANCH  15  18
HETATM   18  C   UNL     1     -41.114 -49.145  11.736  1.00  0.00    -0.028 A 
HETATM   19  C   UNL     1     -42.459 -48.925  11.401  1.00  0.00     0.012 A 
HETATM   20  C   UNL     1     -42.873 -47.716  10.834  1.00  0.00     0.037 A 
HETATM   21  C   UNL     1     -41.958 -46.686  10.614  1.00  0.00     0.074 A 
HETATM   22  C   UNL     1     -40.619 -46.885  10.946  1.00  0.00     0.037 A 
HETATM   23  C   UNL     1     -40.203 -48.100  11.513  1.00  0.00     0.012 A 
BRANCH  21  24
HETATM   24  O   UNL     1     -42.484 -45.563  10.043  1.00  0.00    -0.290 OA
BRANCH  24  25
HETATM   25  C   UNL     1     -43.632 -45.758   9.235  1.00  0.00     0.505 C 
HETATM   26  F   UNL     1     -44.315 -44.590   9.144  1.00  0.00    -0.184 F 
HETATM   27  F   UNL     1     -43.199 -46.052   7.982  1.00  0.00    -0.184 F 
ENDBRANCH  24  25
ENDBRANCH  21  24
ENDBRANCH  15  18
ENDBRANCH   1  15
TORSDOF 8
ENDMDL
MODEL 5
REMARK VINA RESULT:      -6.4      4.612      7.573
REMARK  8 active torsions:
REMARK  status: ('A' for Active; 'I' for Inactive)
REMARK    1  A    between atoms: O_1  and  C_2 
REMARK    2  A    between atoms: C_2  and  C_3 
REMARK    3  A    between atoms: N_12  and  C_13 
REMARK    4  A    between atoms: C_13  and  C_14 
REMARK    5  A    between atoms: C_14  and  O_15 
REMARK    6  A    between atoms: C_14  and  C_16 
REMARK    7  A    between atoms: C_19  and  O_20 
REMARK    8  A    between atoms: O_20  and  C_21 
ROOT
HETATM    1  C   UNL     1     -41.935 -50.152  14.132  1.00  0.00     0.167 C 
ENDROOT
BRANCH   1   2
HETATM    2  N   UNL     1     -42.747 -51.122  13.412  1.00  0.00    -0.330 N 
HETATM    3  C   UNL     1     -42.303 -51.988  12.430  1.00  0.00     0.108 A 
HETATM    4  N   UNL     1     -43.264 -52.821  12.077  1.00  0.00    -0.342 N 
HETATM    5  C   UNL     1     -44.351 -52.496  12.845  1.00  0.00     0.060 A 
ATOM      6  HN  UNL     1     -43.209 -53.558  11.374  1.00  0.00     0.167 HD
HETATM    7  C   UNL     1     -45.624 -53.084  12.875  1.00  0.00     0.032 A 
HETATM    8  C   UNL     1     -44.062 -51.434  13.695  1.00  0.00     0.062 A 
HETATM    9  C   UNL     1     -46.579 -52.587  13.767  1.00  0.00     0.002 A 
HETATM   10  C   UNL     1     -46.275 -51.518  14.608  1.00  0.00     0.002 A 
HETATM   11  C   UNL     1     -45.007 -50.918  14.592  1.00  0.00     0.032 A 
BRANCH   3  12
HETATM   12  C   UNL     1     -40.918 -52.017  11.886  1.00  0.00     0.240 C 
BRANCH  12  13
HETATM   13  O   UNL     1     -40.655 -53.325  11.398  1.00  0.00    -0.393 OA
HETATM   14  H   UNL     1     -40.872 -53.937  12.122  1.00  0.00     0.209 HD
ENDBRANCH  12  13
ENDBRANCH   3  12
ENDBRANCH   1   2
BRANCH   1  15
HETATM   15  C   UNL     1     -42.564 -48.751  14.229  1.00  0.00     0.169 C 
BRANCH  15  16
HETATM   16  O   UNL     1     -42.202 -48.107  15.454  1.00  0.00    -0.389 OA
HETATM   17  H   UNL     1     -42.774 -47.334  15.571  1.00  0.00     0.210 HD
ENDBRANCH  15  16
BRANCH  15  18
HETATM   18  C   UNL     1     -42.182 -47.811  13.092  1.00  0.00    -0.028 A 
HETATM   19  C   UNL     1     -41.048 -48.118  12.323  1.00  0.00     0.012 A 
HETATM   20  C   UNL     1     -40.640 -47.287  11.276  1.00  0.00     0.037 A 
HETATM   21  C   UNL     1     -41.369 -46.143  10.952  1.00  0.00     0.074 A 
HETATM   22  C   UNL     1     -42.501 -45.825  11.701  1.00  0.00     0.037 A 
HETATM   23  C   UNL     1     -42.910 -46.659  12.755  1.00  0.00     0.012 A 
BRANCH  21  24
HETATM   24  O   UNL     1     -40.859 -45.409   9.919  1.00  0.00    -0.290 OA
BRANCH  24  25
HETATM   25  C   UNL     1     -39.640 -44.736  10.181  1.00  0.00     0.505 C 
HETATM   26  F   UNL     1     -38.984 -44.537   9.011  1.00  0.00    -0.184 F 
HETATM   27  F   UNL     1     -39.953 -43.507  10.664  1.00  0.00    -0.184 F 
ENDBRANCH  24  25
ENDBRANCH  21  24
ENDBRANCH  15  18
ENDBRANCH   1  15
TORSDOF 8
ENDMDL
MODEL 6
REMARK VINA RESULT:      -6.3      2.946      4.091
REMARK  8 active torsions:
REMARK  status: ('A' for Active; 'I' for Inactive)
REMARK    1  A    between atoms: O_1  and  C_2 
REMARK    2  A    between atoms: C_2  and  C_3 
REMARK    3  A    between atoms: N_12  and  C_13 
REMARK    4  A    between atoms: C_13  and  C_14 
REMARK    5  A    between atoms: C_14  and  O_15 
REMARK    6  A    between atoms: C_14  and  C_16 
REMARK    7  A    between atoms: C_19  and  O_20 
REMARK    8  A    between atoms: O_20  and  C_21 
ROOT
HETATM    1  C   UNL     1     -42.468 -49.725  13.432  1.00  0.00     0.167 C 
ENDROOT
BRANCH   1   2
HETATM    2  N   UNL     1     -41.326 -49.655  12.531  1.00  0.00    -0.330 N 
HETATM    3  C   UNL     1     -41.260 -48.935  11.354  1.00  0.00     0.108 A 
HETATM    4  N   UNL     1     -40.042 -48.984  10.847  1.00  0.00    -0.342 N 
HETATM    5  C   UNL     1     -39.300 -49.744  11.713  1.00  0.00     0.060 A 
ATOM      6  HN  UNL     1     -39.718 -48.544   9.986  1.00  0.00     0.167 HD
HETATM    7  C   UNL     1     -37.942 -50.091  11.648  1.00  0.00     0.032 A 
HETATM    8  C   UNL     1     -40.074 -50.182  12.782  1.00  0.00     0.062 A 
HETATM    9  C   UNL     1     -37.394 -50.872  12.671  1.00  0.00     0.002 A 
HETATM   10  C   UNL     1     -38.186 -51.307  13.732  1.00  0.00     0.002 A 
HETATM   11  C   UNL     1     -39.545 -50.970  13.813  1.00  0.00     0.032 A 
BRANCH   3  12
HETATM   12  C   UNL     1     -42.389 -48.163  10.765  1.00  0.00     0.240 C 
BRANCH  12  13
HETATM   13  O   UNL     1     -42.330 -48.289   9.351  1.00  0.00    -0.393 OA
HETATM   14  H   UNL     1     -41.738 -49.039   9.167  1.00  0.00     0.209 HD
ENDBRANCH  12  13
ENDBRANCH   3  12
ENDBRANCH   1   2
BRANCH   1  15
HETATM   15  C   UNL     1     -43.619 -50.610  12.924  1.00  0.00     0.169 C 
BRANCH  15  16
HETATM   16  O   UNL     1     -43.133 -51.872  12.459  1.00  0.00    -0.389 OA
HETATM   17  H   UNL     1     -43.737 -52.563  12.768  1.00  0.00     0.210 HD
ENDBRANCH  15  16
BRANCH  15  18
HETATM   18  C   UNL     1     -44.698 -50.894  13.963  1.00  0.00    -0.028 A 
HETATM   19  C   UNL     1     -45.936 -51.389  13.524  1.00  0.00     0.012 A 
HETATM   20  C   UNL     1     -46.968 -51.655  14.429  1.00  0.00     0.037 A 
HETATM   21  C   UNL     1     -46.780 -51.461  15.797  1.00  0.00     0.074 A 
HETATM   22  C   UNL     1     -45.555 -50.976  16.252  1.00  0.00     0.037 A 
HETATM   23  C   UNL     1     -44.519 -50.706  15.343  1.00  0.00     0.012 A 
BRANCH  21  24
HETATM   24  O   UNL     1     -47.868 -51.744  16.573  1.00  0.00    -0.290 OA
BRANCH  24  25
HETATM   25  C   UNL     1     -47.970 -51.018  17.785  1.00  0.00     0.505 C 
HETATM   26  F   UNL     1     -48.535 -49.811  17.532  1.00  0.00    -0.184 F 
HETATM   27  F   UNL     1     -48.834 -51.690  18.587  1.00  0.00    -0.184 F 
ENDBRANCH  24  25
ENDBRANCH  21  24
ENDBRANCH  15  18
ENDBRANCH   1  15
TORSDOF 8
ENDMDL
MODEL 7
REMARK VINA RESULT:      -6.2      2.738      3.726
REMARK  8 active torsions:
REMARK  status: ('A' for Active; 'I' for Inactive)
REMARK    1  A    between atoms: O_1  and  C_2 
REMARK    2  A    between atoms: C_2  and  C_3 
REMARK    3  A    between atoms: N_12  and  C_13 
REMARK    4  A    between atoms: C_13  and  C_14 
REMARK    5  A    between atoms: C_14  and  O_15 
REMARK    6  A    between atoms: C_14  and  C_16 
REMARK    7  A    between atoms: C_19  and  O_20 
REMARK    8  A    between atoms: O_20  and  C_21 
ROOT
HETATM    1  C   UNL     1     -42.529 -48.168  12.838  1.00  0.00     0.167 C 
ENDROOT
BRANCH   1   2
HETATM    2  N   UNL     1     -41.815 -47.218  11.997  1.00  0.00    -0.330 N 
HETATM    3  C   UNL     1     -42.080 -46.947  10.668  1.00  0.00     0.108 A 
HETATM    4  N   UNL     1     -41.335 -45.944  10.241  1.00  0.00    -0.342 N 
HETATM    5  C   UNL     1     -40.575 -45.552  11.313  1.00  0.00     0.060 A 
ATOM      6  HN  UNL     1     -41.326 -45.542   9.304  1.00  0.00     0.167 HD
HETATM    7  C   UNL     1     -39.631 -44.519  11.399  1.00  0.00     0.032 A 
HETATM    8  C   UNL     1     -40.851 -46.330  12.432  1.00  0.00     0.062 A 
HETATM    9  C   UNL     1     -38.986 -44.291  12.619  1.00  0.00     0.002 A 
HETATM   10  C   UNL     1     -39.270 -45.085  13.729  1.00  0.00     0.002 A 
HETATM   11  C   UNL     1     -40.212 -46.122  13.661  1.00  0.00     0.032 A 
BRANCH   3  12
HETATM   12  C   UNL     1     -43.104 -47.648   9.845  1.00  0.00     0.240 C 
BRANCH  12  13
HETATM   13  O   UNL     1     -42.464 -48.187   8.697  1.00  0.00    -0.393 OA
HETATM   14  H   UNL     1     -42.440 -47.474   8.036  1.00  0.00     0.209 HD
ENDBRANCH  12  13
ENDBRANCH   3  12
ENDBRANCH   1   2
BRANCH   1  15
HETATM   15  C   UNL     1     -41.835 -49.535  12.976  1.00  0.00     0.169 C 
BRANCH  15  16
HETATM   16  O   UNL     1     -41.118 -49.627  14.210  1.00  0.00    -0.389 OA
HETATM   17  H   UNL     1     -40.289 -49.135  14.117  1.00  0.00     0.210 HD
ENDBRANCH  15  16
BRANCH  15  18
HETATM   18  C   UNL     1     -42.781 -50.728  12.910  1.00  0.00    -0.028 A 
HETATM   19  C   UNL     1     -44.115 -50.547  13.306  1.00  0.00     0.012 A 
HETATM   20  C   UNL     1     -45.026 -51.607  13.281  1.00  0.00     0.037 A 
HETATM   21  C   UNL     1     -44.634 -52.868  12.832  1.00  0.00     0.074 A 
HETATM   22  C   UNL     1     -43.314 -53.066  12.429  1.00  0.00     0.037 A 
HETATM   23  C   UNL     1     -42.399 -52.001  12.457  1.00  0.00     0.012 A 
BRANCH  21  24
HETATM   24  O   UNL     1     -45.613 -53.821  12.869  1.00  0.00    -0.290 OA
BRANCH  24  25
HETATM   25  C   UNL     1     -45.628 -54.648  14.019  1.00  0.00     0.505 C 
HETATM   26  F   UNL     1     -46.711 -54.339  14.774  1.00  0.00    -0.184 F 
HETATM   27  F   UNL     1     -45.802 -55.926  13.595  1.00  0.00    -0.184 F 
ENDBRANCH  24  25
ENDBRANCH  21  24
ENDBRANCH  15  18
ENDBRANCH   1  15
TORSDOF 8
ENDMDL
MODEL 8
REMARK VINA RESULT:      -6.2      3.297      4.228
REMARK  8 active torsions:
REMARK  status: ('A' for Active; 'I' for Inactive)
REMARK    1  A    between atoms: O_1  and  C_2 
REMARK    2  A    between atoms: C_2  and  C_3 
REMARK    3  A    between atoms: N_12  and  C_13 
REMARK    4  A    between atoms: C_13  and  C_14 
REMARK    5  A    between atoms: C_14  and  O_15 
REMARK    6  A    between atoms: C_14  and  C_16 
REMARK    7  A    between atoms: C_19  and  O_20 
REMARK    8  A    between atoms: O_20  and  C_21 
ROOT
HETATM    1  C   UNL     1     -43.100 -51.100  14.058  1.00  0.00     0.167 C 
ENDROOT
BRANCH   1   2
HETATM    2  N   UNL     1     -42.266 -50.603  12.972  1.00  0.00    -0.330 N 
HETATM    3  C   UNL     1     -41.403 -51.355  12.198  1.00  0.00     0.108 A 
HETATM    4  N   UNL     1     -40.900 -50.624  11.221  1.00  0.00    -0.342 N 
HETATM    5  C   UNL     1     -41.448 -49.376  11.358  1.00  0.00     0.060 A 
ATOM      6  HN  UNL     1     -40.236 -50.926  10.507  1.00  0.00     0.167 HD
HETATM    7  C   UNL     1     -41.258 -48.232  10.569  1.00  0.00     0.032 A 
HETATM    8  C   UNL     1     -42.312 -49.327  12.447  1.00  0.00     0.062 A 
HETATM    9  C   UNL     1     -41.948 -47.061  10.896  1.00  0.00     0.002 A 
HETATM   10  C   UNL     1     -42.806 -47.027  11.995  1.00  0.00     0.002 A 
HETATM   11  C   UNL     1     -43.008 -48.162  12.795  1.00  0.00     0.032 A 
BRANCH   3  12
HETATM   12  C   UNL     1     -41.122 -52.803  12.400  1.00  0.00     0.240 C 
BRANCH  12  13
HETATM   13  O   UNL     1     -40.626 -53.339  11.181  1.00  0.00    -0.393 OA
HETATM   14  H   UNL     1     -41.043 -52.827  10.467  1.00  0.00     0.209 HD
ENDBRANCH  12  13
ENDBRANCH   3  12
ENDBRANCH   1   2
BRANCH   1  15
HETATM   15  C   UNL     1     -44.598 -51.184  13.715  1.00  0.00     0.169 C 
BRANCH  15  16
HETATM   16  O   UNL     1     -44.894 -52.381  12.992  1.00  0.00    -0.389 OA
HETATM   17  H   UNL     1     -45.809 -52.327  12.676  1.00  0.00     0.210 HD
ENDBRANCH  15  16
BRANCH  15  18
HETATM   18  C   UNL     1     -45.522 -51.144  14.926  1.00  0.00    -0.028 A 
HETATM   19  C   UNL     1     -45.024 -50.621  16.130  1.00  0.00     0.012 A 
HETATM   20  C   UNL     1     -45.819 -50.571  17.279  1.00  0.00     0.037 A 
HETATM   21  C   UNL     1     -47.141 -51.016  17.247  1.00  0.00     0.074 A 
HETATM   22  C   UNL     1     -47.654 -51.534  16.058  1.00  0.00     0.037 A 
HETATM   23  C   UNL     1     -46.854 -51.586  14.905  1.00  0.00     0.012 A 
BRANCH  21  24
HETATM   24  O   UNL     1     -47.806 -50.927  18.436  1.00  0.00    -0.290 OA
BRANCH  24  25
HETATM   25  C   UNL     1     -48.089 -49.616  18.891  1.00  0.00     0.505 C 
HETATM   26  F   UNL     1     -48.803 -48.961  17.942  1.00  0.00    -0.184 F 
HETATM   27  F   UNL     1     -48.897 -49.729  19.976  1.00  0.00    -0.184 F 
ENDBRANCH  24  25
ENDBRANCH  21  24
ENDBRANCH  15  18
ENDBRANCH   1  15
TORSDOF 8
ENDMDL
MODEL 9
REMARK VINA RESULT:      -6.0      3.835      6.650
REMARK  8 active torsions:
REMARK  status: ('A' for Active; 'I' for Inactive)
REMARK    1  A    between atoms: O_1  and  C_2 
REMARK    2  A    between atoms: C_2  and  C_3 
REMARK    3  A    between atoms: N_12  and  C_13 
REMARK    4  A    between atoms: C_13  and  C_14 
REMARK    5  A    between atoms: C_14  and  O_15 
REMARK    6  A    between atoms: C_14  and  C_16 
REMARK    7  A    between atoms: C_19  and  O_20 
REMARK    8  A    between atoms: O_20  and  C_21 
ROOT
HETATM    1  C   UNL     1     -40.726 -52.982  12.435  1.00  0.00     0.167 C 
ENDROOT
BRANCH   1   2
HETATM    2  N   UNL     1     -41.996 -52.340  12.744  1.00  0.00    -0.330 N 
HETATM    3  C   UNL     1     -42.303 -51.006  12.553  1.00  0.00     0.108 A 
HETATM    4  N   UNL     1     -43.578 -50.782  12.814  1.00  0.00    -0.342 N 
HETATM    5  C   UNL     1     -44.111 -51.991  13.175  1.00  0.00     0.060 A 
ATOM      6  HN  UNL     1     -44.067 -49.888  12.759  1.00  0.00     0.167 HD
HETATM    7  C   UNL     1     -45.430 -52.307  13.535  1.00  0.00     0.032 A 
HETATM    8  C   UNL     1     -43.147 -52.993  13.141  1.00  0.00     0.062 A 
HETATM    9  C   UNL     1     -45.747 -53.632  13.849  1.00  0.00     0.002 A 
HETATM   10  C   UNL     1     -44.767 -54.622  13.816  1.00  0.00     0.002 A 
HETATM   11  C   UNL     1     -43.443 -54.325  13.459  1.00  0.00     0.032 A 
BRANCH   3  12
HETATM   12  C   UNL     1     -41.346 -49.975  12.067  1.00  0.00     0.240 C 
BRANCH  12  13
HETATM   13  O   UNL     1     -41.945 -49.283  10.981  1.00  0.00    -0.393 OA
HETATM   14  H   UNL     1     -42.811 -48.974  11.297  1.00  0.00     0.209 HD
ENDBRANCH  12  13
ENDBRANCH   3  12
ENDBRANCH   1   2
BRANCH   1  15
HETATM   15  C   UNL     1     -39.908 -53.390  13.673  1.00  0.00     0.169 C 
BRANCH  15  16
HETATM   16  O   UNL     1     -39.032 -54.480  13.375  1.00  0.00    -0.389 OA
HETATM   17  H   UNL     1     -38.391 -54.183  12.712  1.00  0.00     0.210 HD
ENDBRANCH  15  16
BRANCH  15  18
HETATM   18  C   UNL     1     -39.056 -52.270  14.259  1.00  0.00    -0.028 A 
HETATM   19  C   UNL     1     -38.243 -51.525  13.391  1.00  0.00     0.012 A 
HETATM   20  C   UNL     1     -37.429 -50.495  13.872  1.00  0.00     0.037 A 
HETATM   21  C   UNL     1     -37.429 -50.164  15.227  1.00  0.00     0.074 A 
HETATM   22  C   UNL     1     -38.235 -50.890  16.103  1.00  0.00     0.037 A 
HETATM   23  C   UNL     1     -39.050 -51.926  15.620  1.00  0.00     0.012 A 
BRANCH  21  24
HETATM   24  O   UNL     1     -36.581 -49.150  15.572  1.00  0.00    -0.290 OA
BRANCH  24  25
HETATM   25  C   UNL     1     -37.093 -47.838  15.422  1.00  0.00     0.505 C 
HETATM   26  F   UNL     1     -36.622 -47.307  14.267  1.00  0.00    -0.184 F 
HETATM   27  F   UNL     1     -38.439 -47.943  15.281  1.00  0.00    -0.184 F 
ENDBRANCH  24  25
ENDBRANCH  21  24
ENDBRANCH  15  18
ENDBRANCH   1  15
TORSDOF 8
ENDMDL
