MODEL 1
REMARK VINA RESULT:      -5.7      0.000      0.000
REMARK  5 active torsions:
REMARK  status: ('A' for Active; 'I' for Inactive)
REMARK    1  A    between atoms: C_2  and  C_3 
REMARK    2  A    between atoms: C_3  and  N_5 
REMARK       I    between atoms: N_5  and  C_6 
REMARK    3  A    between atoms: C_6  and  C_8 
REMARK    4  A    between atoms: C_8  and  N_9 
REMARK    5  A    between atoms: C_10  and  N_11 
ROOT
HETATM    1  N   UNL     1     -44.860 -54.090  13.614  1.00  0.00    -0.162 N 
HETATM    2  C   UNL     1     -44.870 -53.217  12.549  1.00  0.00     0.680 A 
HETATM    3  N   UNL     1     -43.652 -52.933  12.155  1.00  0.00    -0.179 N 
ATOM      4  HN  UNL     1     -43.381 -52.329  11.380  1.00  0.00     0.185 HD
HETATM    5  C   UNL     1     -42.817 -53.616  13.004  1.00  0.00     0.167 A 
HETATM    6  C   UNL     1     -41.392 -53.500  12.904  1.00  0.00     0.121 C 
HETATM    7  N   UNL     1     -40.234 -53.429  12.858  1.00  0.00    -0.190 NA
HETATM    8  C   UNL     1     -43.540 -54.352  13.914  1.00  0.00     0.170 A 
HETATM    9  C   UNL     1     -43.064 -55.183  14.956  1.00  0.00     0.121 C 
HETATM   10  N   UNL     1     -42.743 -55.887  15.818  1.00  0.00    -0.190 NA
ENDROOT
BRANCH   2  11
HETATM   11  N   UNL     1     -45.994 -52.720  12.024  1.00  0.00    -0.234 N 
HETATM   12  H   UNL     1     -46.213 -51.720  12.024  1.00  0.00     0.174 HD
HETATM   13  H   UNL     1     -46.828 -53.299  12.092  1.00  0.00     0.174 HD
ENDBRANCH   2  11
BRANCH   1  14
HETATM   14  C   UNL     1     -46.016 -54.540  14.371  1.00  0.00     0.251 C 
BRANCH  14  15
HETATM   15  C   UNL     1     -46.148 -53.837  15.704  1.00  0.00     0.236 C 
HETATM   16  N   UNL     1     -46.450 -52.492  15.640  1.00  0.00    -0.355 N 
HETATM   17  H   UNL     1     -46.460 -52.015  14.744  1.00  0.00     0.162 HD
HETATM   18  O   UNL     1     -45.977 -54.442  16.760  1.00  0.00    -0.272 OA
BRANCH  16  19
HETATM   19  C   UNL     1     -46.574 -51.668  16.841  1.00  0.00     0.080 C 
HETATM   20  C   UNL     1     -48.000 -51.128  16.948  1.00  0.00     0.032 C 
BRANCH  19  21
HETATM   21  C   UNL     1     -45.572 -50.499  16.851  1.00  0.00     0.020 C 
HETATM   22  C   UNL     1     -44.558 -50.533  15.717  1.00  0.00     0.007 C 
ENDBRANCH  19  21
ENDBRANCH  16  19
ENDBRANCH  14  15
ENDBRANCH   1  14
TORSDOF 5
ENDMDL
MODEL 2
REMARK VINA RESULT:      -5.5      3.295      4.667
REMARK  5 active torsions:
REMARK  status: ('A' for Active; 'I' for Inactive)
REMARK    1  A    between atoms: C_2  and  C_3 
REMARK    2  A    between atoms: C_3  and  N_5 
REMARK       I    between atoms: N_5  and  C_6 
REMARK    3  A    between atoms: C_6  and  C_8 
REMARK    4  A    between atoms: C_8  and  N_9 
REMARK    5  A    between atoms: C_10  and  N_11 
ROOT
HETATM    1  N   UNL     1     -41.732 -51.442  12.945  1.00  0.00    -0.162 N 
HETATM    2  C   UNL     1     -41.091 -51.843  11.793  1.00  0.00     0.680 A 
HETATM    3  N   UNL     1     -40.796 -50.818  11.031  1.00  0.00    -0.179 N 
ATOM      4  HN  UNL     1     -40.307 -50.837  10.137  1.00  0.00     0.185 HD
HETATM    5  C   UNL     1     -41.283 -49.714  11.686  1.00  0.00     0.167 A 
HETATM    6  C   UNL     1     -41.185 -48.403  11.115  1.00  0.00     0.121 C 
HETATM    7  N   UNL     1     -41.130 -47.326  10.684  1.00  0.00    -0.190 NA
HETATM    8  C   UNL     1     -41.861 -50.070  12.883  1.00  0.00     0.170 A 
HETATM    9  C   UNL     1     -42.481 -49.239  13.847  1.00  0.00     0.121 C 
HETATM   10  N   UNL     1     -42.989 -48.618  14.681  1.00  0.00    -0.190 NA
ENDROOT
BRANCH   2  11
HETATM   11  N   UNL     1     -40.841 -53.124  11.507  1.00  0.00    -0.234 N 
HETATM   12  H   UNL     1     -40.854 -53.864  12.213  1.00  0.00     0.174 HD
HETATM   13  H   UNL     1     -40.165 -53.306  10.768  1.00  0.00     0.174 HD
ENDBRANCH   2  11
BRANCH   1  14
HETATM   14  C   UNL     1     -42.295 -52.309  13.965  1.00  0.00     0.251 C 
BRANCH  14  15
HETATM   15  C   UNL     1     -43.600 -52.943  13.535  1.00  0.00     0.236 C 
HETATM   16  N   UNL     1     -44.728 -52.171  13.724  1.00  0.00    -0.355 N 
HETATM   17  H   UNL     1     -44.663 -51.292  14.226  1.00  0.00     0.162 HD
HETATM   18  O   UNL     1     -43.629 -54.080  13.066  1.00  0.00    -0.272 OA
BRANCH  16  19
HETATM   19  C   UNL     1     -46.065 -52.660  13.392  1.00  0.00     0.080 C 
HETATM   20  C   UNL     1     -46.706 -51.737  12.355  1.00  0.00     0.032 C 
BRANCH  19  21
HETATM   21  C   UNL     1     -46.973 -52.759  14.632  1.00  0.00     0.020 C 
HETATM   22  C   UNL     1     -47.058 -51.479  15.451  1.00  0.00     0.007 C 
ENDBRANCH  19  21
ENDBRANCH  16  19
ENDBRANCH  14  15
ENDBRANCH   1  14
TORSDOF 5
ENDMDL
MODEL 3
REMARK VINA RESULT:      -5.5      4.978      6.428
REMARK  5 active torsions:
REMARK  status: ('A' for Active; 'I' for Inactive)
REMARK    1  A    between atoms: C_2  and  C_3 
REMARK    2  A    between atoms: C_3  and  N_5 
REMARK       I    between atoms: N_5  and  C_6 
REMARK    3  A    between atoms: C_6  and  C_8 
REMARK    4  A    between atoms: C_8  and  N_9 
REMARK    5  A    between atoms: C_10  and  N_11 
ROOT
HETATM    1  N   UNL     1     -41.649 -48.679  12.038  1.00  0.00    -0.162 N 
HETATM    2  C   UNL     1     -41.240 -49.066  10.780  1.00  0.00     0.680 A 
HETATM    3  N   UNL     1     -41.611 -48.198   9.871  1.00  0.00    -0.179 N 
ATOM      4  HN  UNL     1     -41.421 -48.236   8.870  1.00  0.00     0.185 HD
HETATM    5  C   UNL     1     -42.310 -47.228  10.545  1.00  0.00     0.167 A 
HETATM    6  C   UNL     1     -42.919 -46.130   9.854  1.00  0.00     0.121 C 
HETATM    7  N   UNL     1     -43.431 -45.228   9.331  1.00  0.00    -0.190 NA
HETATM    8  C   UNL     1     -42.341 -47.495  11.895  1.00  0.00     0.170 A 
HETATM    9  C   UNL     1     -42.960 -46.753  12.929  1.00  0.00     0.121 C 
HETATM   10  N   UNL     1     -43.431 -46.188  13.824  1.00  0.00    -0.190 NA
ENDROOT
BRANCH   2  11
HETATM   11  N   UNL     1     -40.573 -50.201  10.548  1.00  0.00    -0.234 N 
HETATM   12  H   UNL     1     -39.764 -50.494  11.102  1.00  0.00     0.174 HD
HETATM   13  H   UNL     1     -40.510 -50.507   9.579  1.00  0.00     0.174 HD
ENDBRANCH   2  11
BRANCH   1  14
HETATM   14  C   UNL     1     -41.505 -49.444  13.264  1.00  0.00     0.251 C 
BRANCH  14  15
HETATM   15  C   UNL     1     -42.494 -50.585  13.359  1.00  0.00     0.236 C 
HETATM   16  N   UNL     1     -43.676 -50.295  14.009  1.00  0.00    -0.355 N 
HETATM   17  H   UNL     1     -43.792 -49.404  14.480  1.00  0.00     0.162 HD
HETATM   18  O   UNL     1     -42.230 -51.692  12.894  1.00  0.00    -0.272 OA
BRANCH  16  19
HETATM   19  C   UNL     1     -44.714 -51.304  14.213  1.00  0.00     0.080 C 
HETATM   20  C   UNL     1     -45.655 -51.322  13.008  1.00  0.00     0.032 C 
BRANCH  19  21
HETATM   21  C   UNL     1     -45.522 -51.056  15.501  1.00  0.00     0.020 C 
HETATM   22  C   UNL     1     -46.989 -51.448  15.405  1.00  0.00     0.007 C 
ENDBRANCH  19  21
ENDBRANCH  16  19
ENDBRANCH  14  15
ENDBRANCH   1  14
TORSDOF 5
ENDMDL
MODEL 4
REMARK VINA RESULT:      -5.4      4.227      5.905
REMARK  5 active torsions:
REMARK  status: ('A' for Active; 'I' for Inactive)
REMARK    1  A    between atoms: C_2  and  C_3 
REMARK    2  A    between atoms: C_3  and  N_5 
REMARK       I    between atoms: N_5  and  C_6 
REMARK    3  A    between atoms: C_6  and  C_8 
REMARK    4  A    between atoms: C_8  and  N_9 
REMARK    5  A    between atoms: C_10  and  N_11 
ROOT
HETATM    1  N   UNL     1     -42.726 -51.531  12.884  1.00  0.00    -0.162 N 
HETATM    2  C   UNL     1     -42.216 -52.509  12.058  1.00  0.00     0.680 A 
HETATM    3  N   UNL     1     -42.942 -53.599  12.107  1.00  0.00    -0.179 N 
ATOM      4  HN  UNL     1     -42.795 -54.461  11.582  1.00  0.00     0.185 HD
HETATM    5  C   UNL     1     -43.942 -53.342  13.011  1.00  0.00     0.167 A 
HETATM    6  C   UNL     1     -44.908 -54.340  13.362  1.00  0.00     0.121 C 
HETATM    7  N   UNL     1     -45.707 -55.123  13.675  1.00  0.00    -0.190 NA
HETATM    8  C   UNL     1     -43.839 -52.060  13.502  1.00  0.00     0.170 A 
HETATM    9  C   UNL     1     -44.662 -51.409  14.452  1.00  0.00     0.121 C 
HETATM   10  N   UNL     1     -45.301 -50.814  15.213  1.00  0.00    -0.190 NA
ENDROOT
BRANCH   2  11
HETATM   11  N   UNL     1     -41.105 -52.345  11.334  1.00  0.00    -0.234 N 
HETATM   12  H   UNL     1     -41.116 -52.012  10.366  1.00  0.00     0.174 HD
HETATM   13  H   UNL     1     -40.340 -52.992  11.512  1.00  0.00     0.174 HD
ENDBRANCH   2  11
BRANCH   1  14
HETATM   14  C   UNL     1     -42.127 -50.237  13.160  1.00  0.00     0.251 C 
BRANCH  14  15
HETATM   15  C   UNL     1     -42.055 -49.355  11.933  1.00  0.00     0.236 C 
HETATM   16  N   UNL     1     -43.177 -48.590  11.683  1.00  0.00    -0.355 N 
HETATM   17  H   UNL     1     -44.016 -48.723  12.238  1.00  0.00     0.162 HD
HETATM   18  O   UNL     1     -41.059 -49.350  11.213  1.00  0.00    -0.272 OA
BRANCH  16  19
HETATM   19  C   UNL     1     -43.273 -47.716  10.515  1.00  0.00     0.080 C 
HETATM   20  C   UNL     1     -42.736 -46.329  10.868  1.00  0.00     0.032 C 
BRANCH  19  21
HETATM   21  C   UNL     1     -44.717 -47.598   9.994  1.00  0.00     0.020 C 
HETATM   22  C   UNL     1     -44.851 -47.729   8.484  1.00  0.00     0.007 C 
ENDBRANCH  19  21
ENDBRANCH  16  19
ENDBRANCH  14  15
ENDBRANCH   1  14
TORSDOF 5
ENDMDL
MODEL 5
REMARK VINA RESULT:      -5.4      7.146      8.181
REMARK  5 active torsions:
REMARK  status: ('A' for Active; 'I' for Inactive)
REMARK    1  A    between atoms: C_2  and  C_3 
REMARK    2  A    between atoms: C_3  and  N_5 
REMARK       I    between atoms: N_5  and  C_6 
REMARK    3  A    between atoms: C_6  and  C_8 
REMARK    4  A    between atoms: C_8  and  N_9 
REMARK    5  A    between atoms: C_10  and  N_11 
ROOT
HETATM    1  N   UNL     1     -39.947 -48.279  11.878  1.00  0.00    -0.162 N 
HETATM    2  C   UNL     1     -39.778 -49.581  11.462  1.00  0.00     0.680 A 
HETATM    3  N   UNL     1     -38.993 -50.243  12.277  1.00  0.00    -0.179 N 
ATOM      4  HN  UNL     1     -38.722 -51.223  12.209  1.00  0.00     0.185 HD
HETATM    5  C   UNL     1     -38.611 -49.342  13.240  1.00  0.00     0.167 A 
HETATM    6  C   UNL     1     -37.697 -49.706  14.282  1.00  0.00     0.121 C 
HETATM    7  N   UNL     1     -36.956 -49.960  15.140  1.00  0.00    -0.190 NA
HETATM    8  C   UNL     1     -39.197 -48.116  13.023  1.00  0.00     0.170 A 
HETATM    9  C   UNL     1     -39.058 -46.925  13.776  1.00  0.00     0.121 C 
HETATM   10  N   UNL     1     -39.001 -45.923  14.353  1.00  0.00    -0.190 NA
ENDROOT
BRANCH   2  11
HETATM   11  N   UNL     1     -40.337 -50.069  10.350  1.00  0.00    -0.234 N 
HETATM   12  H   UNL     1     -40.838 -49.484   9.677  1.00  0.00     0.174 HD
HETATM   13  H   UNL     1     -40.717 -51.012  10.403  1.00  0.00     0.174 HD
ENDBRANCH   2  11
BRANCH   1  14
HETATM   14  C   UNL     1     -40.663 -47.233  11.168  1.00  0.00     0.251 C 
BRANCH  14  15
HETATM   15  C   UNL     1     -42.036 -47.675  10.712  1.00  0.00     0.236 C 
HETATM   16  N   UNL     1     -42.388 -47.298   9.432  1.00  0.00    -0.355 N 
HETATM   17  H   UNL     1     -41.790 -46.669   8.905  1.00  0.00     0.162 HD
HETATM   18  O   UNL     1     -42.778 -48.312  11.457  1.00  0.00    -0.272 OA
BRANCH  16  19
HETATM   19  C   UNL     1     -43.696 -47.618   8.862  1.00  0.00     0.080 C 
HETATM   20  C   UNL     1     -43.530 -48.031   7.400  1.00  0.00     0.032 C 
BRANCH  19  21
HETATM   21  C   UNL     1     -44.679 -46.436   8.962  1.00  0.00     0.020 C 
HETATM   22  C   UNL     1     -46.141 -46.844   9.067  1.00  0.00     0.007 C 
ENDBRANCH  19  21
ENDBRANCH  16  19
ENDBRANCH  14  15
ENDBRANCH   1  14
TORSDOF 5
ENDMDL
MODEL 6
REMARK VINA RESULT:      -5.3      3.226      5.160
REMARK  5 active torsions:
REMARK  status: ('A' for Active; 'I' for Inactive)
REMARK    1  A    between atoms: C_2  and  C_3 
REMARK    2  A    between atoms: C_3  and  N_5 
REMARK       I    between atoms: N_5  and  C_6 
REMARK    3  A    between atoms: C_6  and  C_8 
REMARK    4  A    between atoms: C_8  and  N_9 
REMARK    5  A    between atoms: C_10  and  N_11 
ROOT
HETATM    1  N   UNL     1     -40.184 -51.583  12.219  1.00  0.00    -0.162 N 
HETATM    2  C   UNL     1     -39.875 -50.361  11.663  1.00  0.00     0.680 A 
HETATM    3  N   UNL     1     -38.940 -49.750  12.348  1.00  0.00    -0.179 N 
ATOM      4  HN  UNL     1     -38.518 -48.844  12.142  1.00  0.00     0.185 HD
HETATM    5  C   UNL     1     -38.645 -50.580  13.401  1.00  0.00     0.167 A 
HETATM    6  C   UNL     1     -37.690 -50.207  14.402  1.00  0.00     0.121 C 
HETATM    7  N   UNL     1     -36.926 -49.941  15.235  1.00  0.00    -0.190 NA
HETATM    8  C   UNL     1     -39.396 -51.732  13.340  1.00  0.00     0.170 A 
HETATM    9  C   UNL     1     -39.400 -52.832  14.231  1.00  0.00     0.121 C 
HETATM   10  N   UNL     1     -39.445 -53.768  14.911  1.00  0.00    -0.190 NA
ENDROOT
BRANCH   2  11
HETATM   11  N   UNL     1     -40.488 -49.878  10.578  1.00  0.00    -0.234 N 
HETATM   12  H   UNL     1     -41.270 -49.220  10.628  1.00  0.00     0.174 HD
HETATM   13  H   UNL     1     -40.555 -50.497   9.774  1.00  0.00     0.174 HD
ENDBRANCH   2  11
BRANCH   1  14
HETATM   14  C   UNL     1     -41.240 -52.484  11.789  1.00  0.00     0.251 C 
BRANCH  14  15
HETATM   15  C   UNL     1     -42.504 -52.332  12.607  1.00  0.00     0.236 C 
HETATM   16  N   UNL     1     -43.388 -53.388  12.537  1.00  0.00    -0.355 N 
HETATM   17  H   UNL     1     -43.225 -54.145  11.882  1.00  0.00     0.162 HD
HETATM   18  O   UNL     1     -42.712 -51.316  13.269  1.00  0.00    -0.272 OA
BRANCH  16  19
HETATM   19  C   UNL     1     -44.670 -53.373  13.242  1.00  0.00     0.080 C 
HETATM   20  C   UNL     1     -45.078 -54.804  13.593  1.00  0.00     0.032 C 
BRANCH  19  21
HETATM   21  C   UNL     1     -45.781 -52.702  12.415  1.00  0.00     0.020 C 
HETATM   22  C   UNL     1     -46.479 -51.548  13.120  1.00  0.00     0.007 C 
ENDBRANCH  19  21
ENDBRANCH  16  19
ENDBRANCH  14  15
ENDBRANCH   1  14
TORSDOF 5
ENDMDL
MODEL 7
REMARK VINA RESULT:      -5.3      2.550      3.815
REMARK  5 active torsions:
REMARK  status: ('A' for Active; 'I' for Inactive)
REMARK    1  A    between atoms: C_2  and  C_3 
REMARK    2  A    between atoms: C_3  and  N_5 
REMARK       I    between atoms: N_5  and  C_6 
REMARK    3  A    between atoms: C_6  and  C_8 
REMARK    4  A    between atoms: C_8  and  N_9 
REMARK    5  A    between atoms: C_10  and  N_11 
ROOT
HETATM    1  N   UNL     1     -41.258 -53.137  13.996  1.00  0.00    -0.162 N 
HETATM    2  C   UNL     1     -40.630 -53.680  12.896  1.00  0.00     0.680 A 
HETATM    3  N   UNL     1     -39.700 -54.533  13.252  1.00  0.00    -0.179 N 
ATOM      4  HN  UNL     1     -39.104 -55.085  12.636  1.00  0.00     0.185 HD
HETATM    5  C   UNL     1     -39.696 -54.530  14.625  1.00  0.00     0.167 A 
HETATM    6  C   UNL     1     -38.759 -55.316  15.371  1.00  0.00     0.121 C 
HETATM    7  N   UNL     1     -38.014 -55.935  16.012  1.00  0.00    -0.190 NA
HETATM    8  C   UNL     1     -40.661 -53.679  15.114  1.00  0.00     0.170 A 
HETATM    9  C   UNL     1     -40.977 -53.384  16.463  1.00  0.00     0.121 C 
HETATM   10  N   UNL     1     -41.295 -53.108  17.541  1.00  0.00    -0.190 NA
ENDROOT
BRANCH   2  11
HETATM   11  N   UNL     1     -40.936 -53.340  11.640  1.00  0.00    -0.234 N 
HETATM   12  H   UNL     1     -40.398 -53.660  10.831  1.00  0.00     0.174 HD
HETATM   13  H   UNL     1     -41.335 -52.414  11.499  1.00  0.00     0.174 HD
ENDBRANCH   2  11
BRANCH   1  14
HETATM   14  C   UNL     1     -42.260 -52.086  13.985  1.00  0.00     0.251 C 
BRANCH  14  15
HETATM   15  C   UNL     1     -43.672 -52.629  13.927  1.00  0.00     0.236 C 
HETATM   16  N   UNL     1     -44.659 -51.695  13.689  1.00  0.00    -0.355 N 
HETATM   17  H   UNL     1     -44.431 -50.706  13.676  1.00  0.00     0.162 HD
HETATM   18  O   UNL     1     -43.899 -53.825  14.100  1.00  0.00    -0.272 OA
BRANCH  16  19
HETATM   19  C   UNL     1     -46.074 -52.059  13.642  1.00  0.00     0.080 C 
HETATM   20  C   UNL     1     -46.640 -51.736  12.259  1.00  0.00     0.032 C 
BRANCH  19  21
HETATM   21  C   UNL     1     -46.898 -51.336  14.724  1.00  0.00     0.020 C 
HETATM   22  C   UNL     1     -46.973 -52.075  16.052  1.00  0.00     0.007 C 
ENDBRANCH  19  21
ENDBRANCH  16  19
ENDBRANCH  14  15
ENDBRANCH   1  14
TORSDOF 5
ENDMDL
MODEL 8
REMARK VINA RESULT:      -5.2      2.887      5.624
REMARK  5 active torsions:
REMARK  status: ('A' for Active; 'I' for Inactive)
REMARK    1  A    between atoms: C_2  and  C_3 
REMARK    2  A    between atoms: C_3  and  N_5 
REMARK       I    between atoms: N_5  and  C_6 
REMARK    3  A    between atoms: C_6  and  C_8 
REMARK    4  A    between atoms: C_8  and  N_9 
REMARK    5  A    between atoms: C_10  and  N_11 
ROOT
HETATM    1  N   UNL     1     -42.168 -53.960  13.498  1.00  0.00    -0.162 N 
HETATM    2  C   UNL     1     -42.887 -53.227  12.580  1.00  0.00     0.680 A 
HETATM    3  N   UNL     1     -44.175 -53.309  12.808  1.00  0.00    -0.179 N 
ATOM      4  HN  UNL     1     -44.923 -52.849  12.289  1.00  0.00     0.185 HD
HETATM    5  C   UNL     1     -44.310 -54.143  13.890  1.00  0.00     0.167 A 
HETATM    6  C   UNL     1     -45.599 -54.509  14.396  1.00  0.00     0.121 C 
HETATM    7  N   UNL     1     -46.626 -54.832  14.834  1.00  0.00    -0.190 NA
HETATM    8  C   UNL     1     -43.078 -54.555  14.346  1.00  0.00     0.170 A 
HETATM    9  C   UNL     1     -42.780 -55.418  15.428  1.00  0.00     0.121 C 
HETATM   10  N   UNL     1     -42.465 -56.105  16.306  1.00  0.00    -0.190 NA
ENDROOT
BRANCH   2  11
HETATM   11  N   UNL     1     -42.315 -52.550  11.579  1.00  0.00    -0.234 N 
HETATM   12  H   UNL     1     -42.509 -52.746  10.594  1.00  0.00     0.174 HD
HETATM   13  H   UNL     1     -41.363 -52.225  11.729  1.00  0.00     0.174 HD
ENDBRANCH   2  11
BRANCH   1  14
HETATM   14  C   UNL     1     -40.733 -54.181  13.491  1.00  0.00     0.251 C 
BRANCH  14  15
HETATM   15  C   UNL     1     -39.968 -53.066  14.169  1.00  0.00     0.236 C 
HETATM   16  N   UNL     1     -39.401 -52.134  13.324  1.00  0.00    -0.355 N 
HETATM   17  H   UNL     1     -39.417 -52.282  12.320  1.00  0.00     0.162 HD
HETATM   18  O   UNL     1     -39.859 -53.024  15.394  1.00  0.00    -0.272 OA
BRANCH  16  19
HETATM   19  C   UNL     1     -38.600 -51.018  13.827  1.00  0.00     0.080 C 
HETATM   20  C   UNL     1     -39.457 -49.752  13.871  1.00  0.00     0.032 C 
BRANCH  19  21
HETATM   21  C   UNL     1     -37.346 -50.769  12.970  1.00  0.00     0.020 C 
HETATM   22  C   UNL     1     -37.591 -49.918  11.733  1.00  0.00     0.007 C 
ENDBRANCH  19  21
ENDBRANCH  16  19
ENDBRANCH  14  15
ENDBRANCH   1  14
TORSDOF 5
ENDMDL
MODEL 9
REMARK VINA RESULT:      -5.1      3.206      5.692
REMARK  5 active torsions:
REMARK  status: ('A' for Active; 'I' for Inactive)
REMARK    1  A    between atoms: C_2  and  C_3 
REMARK    2  A    between atoms: C_3  and  N_5 
REMARK       I    between atoms: N_5  and  C_6 
REMARK    3  A    between atoms: C_6  and  C_8 
REMARK    4  A    between atoms: C_8  and  N_9 
REMARK    5  A    between atoms: C_10  and  N_11 
ROOT
HETATM    1  N   UNL     1     -41.957 -53.239  12.909  1.00  0.00    -0.162 N 
HETATM    2  C   UNL     1     -41.909 -52.050  12.216  1.00  0.00     0.680 A 
HETATM    3  N   UNL     1     -43.016 -51.365  12.368  1.00  0.00    -0.179 N 
ATOM      4  HN  UNL     1     -43.231 -50.448  11.977  1.00  0.00     0.185 HD
HETATM    5  C   UNL     1     -43.827 -52.139  13.160  1.00  0.00     0.167 A 
HETATM    6  C   UNL     1     -45.157 -51.725  13.497  1.00  0.00     0.121 C 
HETATM    7  N   UNL     1     -46.241 -51.427  13.789  1.00  0.00    -0.190 NA
HETATM    8  C   UNL     1     -43.191 -53.304  13.521  1.00  0.00     0.170 A 
HETATM    9  C   UNL     1     -43.679 -54.366  14.320  1.00  0.00     0.121 C 
HETATM   10  N   UNL     1     -44.009 -55.263  14.974  1.00  0.00    -0.190 NA
ENDROOT
BRANCH   2  11
HETATM   11  N   UNL     1     -40.862 -51.683  11.470  1.00  0.00    -0.234 N 
HETATM   12  H   UNL     1     -40.919 -51.556  10.456  1.00  0.00     0.174 HD
HETATM   13  H   UNL     1     -39.947 -52.013  11.768  1.00  0.00     0.174 HD
ENDBRANCH   2  11
BRANCH   1  14
HETATM   14  C   UNL     1     -40.956 -54.291  12.887  1.00  0.00     0.251 C 
BRANCH  14  15
HETATM   15  C   UNL     1     -39.812 -54.027  13.842  1.00  0.00     0.236 C 
HETATM   16  N   UNL     1     -39.931 -54.609  15.088  1.00  0.00    -0.355 N 
HETATM   17  H   UNL     1     -40.792 -55.078  15.350  1.00  0.00     0.162 HD
HETATM   18  O   UNL     1     -38.860 -53.323  13.512  1.00  0.00    -0.272 OA
BRANCH  16  19
HETATM   19  C   UNL     1     -38.925 -54.415  16.132  1.00  0.00     0.080 C 
HETATM   20  C   UNL     1     -38.077 -55.680  16.266  1.00  0.00     0.032 C 
BRANCH  19  21
HETATM   21  C   UNL     1     -39.558 -54.066  17.491  1.00  0.00     0.020 C 
HETATM   22  C   UNL     1     -40.113 -55.262  18.251  1.00  0.00     0.007 C 
ENDBRANCH  19  21
ENDBRANCH  16  19
ENDBRANCH  14  15
ENDBRANCH   1  14
TORSDOF 5
ENDMDL
