MODEL 1
REMARK VINA RESULT:      -5.3      0.000      0.000
REMARK  6 active torsions:
REMARK  status: ('A' for Active; 'I' for Inactive)
REMARK    1  A    between atoms: C_2  and  C_4 
REMARK    2  A    between atoms: C_4  and  N_5 
REMARK    3  A    between atoms: C_4  and  C_9 
REMARK       I    between atoms: N_5  and  C_6 
REMARK       I    between atoms: C_9  and  N_11 
REMARK    4  A    between atoms: N_11  and  C_12 
REMARK    5  A    between atoms: C_12  and  C_14 
REMARK    6  A    between atoms: C_14  and  N_15 
ROOT
HETATM    1  C   UNL     1     -42.200 -52.109  12.205  1.00  0.00     0.241 C 
HETATM    2  O   UNL     1     -41.171 -52.509  11.662  1.00  0.00    -0.271 OA
HETATM    3  N   UNL     1     -42.453 -50.761  12.406  1.00  0.00    -0.353 N 
HETATM    4  H   UNL     1     -43.411 -50.527  12.632  1.00  0.00     0.163 HD
ENDROOT
BRANCH   1   5
HETATM    5  C   UNL     1     -43.188 -53.065  12.919  1.00  0.00     0.179 C 
BRANCH   5   6
HETATM    6  C   UNL     1     -42.450 -53.912  13.987  1.00  0.00     0.009 C 
HETATM    7  C   UNL     1     -41.813 -53.027  15.068  1.00  0.00     0.012 C 
HETATM    8  C   UNL     1     -43.390 -54.911  14.673  1.00  0.00     0.012 C 
ENDBRANCH   5   6
BRANCH   5   9
HETATM    9  N   UNL     1     -44.261 -52.261  13.530  1.00  0.00    -0.348 N 
HETATM   10  C   UNL     1     -45.547 -52.314  13.040  1.00  0.00     0.214 C 
HETATM   11  O   UNL     1     -45.879 -52.992  12.076  1.00  0.00    -0.274 OA
HETATM   12  C   UNL     1     -46.529 -51.462  13.796  1.00  0.00     0.117 C 
HETATM   13  H   UNL     1     -44.070 -51.759  14.387  1.00  0.00     0.163 HD
ENDBRANCH   5   9
ENDBRANCH   1   5
BRANCH   3  14
HETATM   14  C   UNL     1     -41.559 -49.735  11.875  1.00  0.00     0.098 C 
HETATM   15  C   UNL     1     -42.367 -48.509  11.451  1.00  0.00     0.034 C 
BRANCH  14  16
HETATM   16  C   UNL     1     -40.471 -49.331  12.882  1.00  0.00     0.153 C 
BRANCH  16  17
HETATM   17  N   UNL     1     -39.189 -49.953  12.616  1.00  0.00    -0.350 N 
HETATM   18  C   UNL     1     -38.491 -50.773  13.455  1.00  0.00     0.108 A 
HETATM   19  C   UNL     1     -37.362 -51.122  12.748  1.00  0.00     0.106 A 
HETATM   20  N   UNL     1     -37.369 -50.546  11.503  1.00  0.00    -0.361 N 
HETATM   21  C   UNL     1     -38.485 -49.854  11.449  1.00  0.00     0.182 A 
ATOM     22  HN  UNL     1     -36.660 -50.635  10.775  1.00  0.00     0.166 HD
ENDBRANCH  16  17
ENDBRANCH  14  16
ENDBRANCH   3  14
TORSDOF 6
ENDMDL
MODEL 2
REMARK VINA RESULT:      -5.3      3.096      5.842
REMARK  6 active torsions:
REMARK  status: ('A' for Active; 'I' for Inactive)
REMARK    1  A    between atoms: C_2  and  C_4 
REMARK    2  A    between atoms: C_4  and  N_5 
REMARK    3  A    between atoms: C_4  and  C_9 
REMARK       I    between atoms: N_5  and  C_6 
REMARK       I    between atoms: C_9  and  N_11 
REMARK    4  A    between atoms: N_11  and  C_12 
REMARK    5  A    between atoms: C_12  and  C_14 
REMARK    6  A    between atoms: C_14  and  N_15 
ROOT
HETATM    1  C   UNL     1     -40.805 -48.579  11.337  1.00  0.00     0.241 C 
HETATM    2  O   UNL     1     -41.658 -49.463  11.410  1.00  0.00    -0.271 OA
HETATM    3  N   UNL     1     -39.458 -48.833  11.548  1.00  0.00    -0.353 N 
HETATM    4  H   UNL     1     -38.824 -48.111  11.232  1.00  0.00     0.163 HD
ENDROOT
BRANCH   1   5
HETATM    5  C   UNL     1     -41.170 -47.077  11.238  1.00  0.00     0.179 C 
BRANCH   5   6
HETATM    6  C   UNL     1     -39.913 -46.197  11.456  1.00  0.00     0.009 C 
HETATM    7  C   UNL     1     -39.741 -45.169  10.329  1.00  0.00     0.012 C 
HETATM    8  C   UNL     1     -39.968 -45.444  12.791  1.00  0.00     0.012 C 
ENDBRANCH   5   6
BRANCH   5   9
HETATM    9  N   UNL     1     -41.769 -46.826   9.916  1.00  0.00    -0.348 N 
HETATM   10  C   UNL     1     -43.133 -46.902   9.734  1.00  0.00     0.214 C 
HETATM   11  O   UNL     1     -43.920 -47.199  10.624  1.00  0.00    -0.274 OA
HETATM   12  C   UNL     1     -43.586 -46.583   8.337  1.00  0.00     0.117 C 
HETATM   13  H   UNL     1     -41.182 -46.480   9.169  1.00  0.00     0.163 HD
ENDBRANCH   5   9
ENDBRANCH   1   5
BRANCH   3  14
HETATM   14  C   UNL     1     -38.968 -50.194  11.753  1.00  0.00     0.098 C 
HETATM   15  C   UNL     1     -37.454 -50.238  11.545  1.00  0.00     0.034 C 
BRANCH  14  16
HETATM   16  C   UNL     1     -39.328 -50.741  13.144  1.00  0.00     0.153 C 
BRANCH  16  17
HETATM   17  N   UNL     1     -39.786 -52.115  13.114  1.00  0.00    -0.350 N 
HETATM   18  C   UNL     1     -39.449 -53.107  13.990  1.00  0.00     0.108 A 
HETATM   19  C   UNL     1     -40.151 -54.210  13.560  1.00  0.00     0.106 A 
HETATM   20  N   UNL     1     -40.911 -53.906  12.459  1.00  0.00    -0.361 N 
HETATM   21  C   UNL     1     -40.677 -52.636  12.219  1.00  0.00     0.182 A 
ATOM     22  HN  UNL     1     -41.527 -54.532  11.939  1.00  0.00     0.166 HD
ENDBRANCH  16  17
ENDBRANCH  14  16
ENDBRANCH   3  14
TORSDOF 6
ENDMDL
MODEL 3
REMARK VINA RESULT:      -5.2      3.085      5.969
REMARK  6 active torsions:
REMARK  status: ('A' for Active; 'I' for Inactive)
REMARK    1  A    between atoms: C_2  and  C_4 
REMARK    2  A    between atoms: C_4  and  N_5 
REMARK    3  A    between atoms: C_4  and  C_9 
REMARK       I    between atoms: N_5  and  C_6 
REMARK       I    between atoms: C_9  and  N_11 
REMARK    4  A    between atoms: N_11  and  C_12 
REMARK    5  A    between atoms: C_12  and  C_14 
REMARK    6  A    between atoms: C_14  and  N_15 
ROOT
HETATM    1  C   UNL     1     -41.151 -49.150  11.892  1.00  0.00     0.241 C 
HETATM    2  O   UNL     1     -42.267 -49.582  12.180  1.00  0.00    -0.271 OA
HETATM    3  N   UNL     1     -40.967 -47.899  11.325  1.00  0.00    -0.353 N 
HETATM    4  H   UNL     1     -40.020 -47.544  11.351  1.00  0.00     0.163 HD
ENDROOT
BRANCH   1   5
HETATM    5  C   UNL     1     -39.885 -50.041  11.915  1.00  0.00     0.179 C 
BRANCH   5   6
HETATM    6  C   UNL     1     -38.605 -49.167  11.876  1.00  0.00     0.009 C 
HETATM    7  C   UNL     1     -38.143 -48.779  13.287  1.00  0.00     0.012 C 
HETATM    8  C   UNL     1     -37.446 -49.882  11.169  1.00  0.00     0.012 C 
ENDBRANCH   5   6
BRANCH   5   9
HETATM    9  N   UNL     1     -39.919 -50.875  13.128  1.00  0.00    -0.348 N 
HETATM   10  C   UNL     1     -40.202 -52.222  13.049  1.00  0.00     0.214 C 
HETATM   11  O   UNL     1     -40.461 -52.800  12.002  1.00  0.00    -0.274 OA
HETATM   12  C   UNL     1     -40.162 -52.937  14.371  1.00  0.00     0.117 C 
HETATM   13  H   UNL     1     -39.616 -50.477  14.007  1.00  0.00     0.163 HD
ENDBRANCH   5   9
ENDBRANCH   1   5
BRANCH   3  14
HETATM   14  C   UNL     1     -42.085 -46.975  11.148  1.00  0.00     0.098 C 
HETATM   15  C   UNL     1     -41.841 -45.700  11.955  1.00  0.00     0.034 C 
BRANCH  14  16
HETATM   16  C   UNL     1     -42.329 -46.630   9.670  1.00  0.00     0.153 C 
BRANCH  16  17
HETATM   17  N   UNL     1     -43.528 -47.240   9.132  1.00  0.00    -0.350 N 
HETATM   18  C   UNL     1     -44.748 -47.317   9.742  1.00  0.00     0.108 A 
HETATM   19  C   UNL     1     -45.557 -47.958   8.832  1.00  0.00     0.106 A 
HETATM   20  N   UNL     1     -44.862 -48.257   7.687  1.00  0.00    -0.361 N 
HETATM   21  C   UNL     1     -43.646 -47.805   7.894  1.00  0.00     0.182 A 
ATOM     22  HN  UNL     1     -45.214 -48.728   6.853  1.00  0.00     0.166 HD
ENDBRANCH  16  17
ENDBRANCH  14  16
ENDBRANCH   3  14
TORSDOF 6
ENDMDL
MODEL 4
REMARK VINA RESULT:      -5.1      2.866      4.783
REMARK  6 active torsions:
REMARK  status: ('A' for Active; 'I' for Inactive)
REMARK    1  A    between atoms: C_2  and  C_4 
REMARK    2  A    between atoms: C_4  and  N_5 
REMARK    3  A    between atoms: C_4  and  C_9 
REMARK       I    between atoms: N_5  and  C_6 
REMARK       I    between atoms: C_9  and  N_11 
REMARK    4  A    between atoms: N_11  and  C_12 
REMARK    5  A    between atoms: C_12  and  C_14 
REMARK    6  A    between atoms: C_14  and  N_15 
ROOT
HETATM    1  C   UNL     1     -42.995 -50.587  12.784  1.00  0.00     0.241 C 
HETATM    2  O   UNL     1     -43.830 -50.156  13.579  1.00  0.00    -0.271 OA
HETATM    3  N   UNL     1     -42.475 -49.805  11.764  1.00  0.00    -0.353 N 
HETATM    4  H   UNL     1     -41.635 -50.163  11.327  1.00  0.00     0.163 HD
ENDROOT
BRANCH   1   5
HETATM    5  C   UNL     1     -42.626 -52.088  12.699  1.00  0.00     0.179 C 
BRANCH   5   6
HETATM    6  C   UNL     1     -41.097 -52.283  12.871  1.00  0.00     0.009 C 
HETATM    7  C   UNL     1     -40.594 -51.666  14.183  1.00  0.00     0.012 C 
HETATM    8  C   UNL     1     -40.704 -53.765  12.853  1.00  0.00     0.012 C 
ENDBRANCH   5   6
BRANCH   5   9
HETATM    9  N   UNL     1     -43.372 -52.815  13.741  1.00  0.00    -0.348 N 
HETATM   10  C   UNL     1     -44.311 -53.765  13.401  1.00  0.00     0.214 C 
HETATM   11  O   UNL     1     -44.602 -54.048  12.247  1.00  0.00    -0.274 OA
HETATM   12  C   UNL     1     -44.956 -54.439  14.579  1.00  0.00     0.117 C 
HETATM   13  H   UNL     1     -43.105 -52.696  14.709  1.00  0.00     0.163 HD
ENDBRANCH   5   9
ENDBRANCH   1   5
BRANCH   3  14
HETATM   14  C   UNL     1     -42.805 -48.387  11.653  1.00  0.00     0.098 C 
HETATM   15  C   UNL     1     -41.926 -47.571  12.600  1.00  0.00     0.034 C 
BRANCH  14  16
HETATM   16  C   UNL     1     -42.661 -47.865  10.214  1.00  0.00     0.153 C 
BRANCH  16  17
HETATM   17  N   UNL     1     -43.881 -47.277   9.697  1.00  0.00    -0.350 N 
HETATM   18  C   UNL     1     -45.119 -47.851   9.679  1.00  0.00     0.108 A 
HETATM   19  C   UNL     1     -45.941 -46.900   9.118  1.00  0.00     0.106 A 
HETATM   20  N   UNL     1     -45.234 -45.765   8.811  1.00  0.00    -0.361 N 
HETATM   21  C   UNL     1     -43.998 -46.018   9.178  1.00  0.00     0.182 A 
ATOM     22  HN  UNL     1     -45.591 -44.907   8.389  1.00  0.00     0.166 HD
ENDBRANCH  16  17
ENDBRANCH  14  16
ENDBRANCH   3  14
TORSDOF 6
ENDMDL
MODEL 5
REMARK VINA RESULT:      -5.1      3.022      6.530
REMARK  6 active torsions:
REMARK  status: ('A' for Active; 'I' for Inactive)
REMARK    1  A    between atoms: C_2  and  C_4 
REMARK    2  A    between atoms: C_4  and  N_5 
REMARK    3  A    between atoms: C_4  and  C_9 
REMARK       I    between atoms: N_5  and  C_6 
REMARK       I    between atoms: C_9  and  N_11 
REMARK    4  A    between atoms: N_11  and  C_12 
REMARK    5  A    between atoms: C_12  and  C_14 
REMARK    6  A    between atoms: C_14  and  N_15 
ROOT
HETATM    1  C   UNL     1     -42.072 -49.340  11.799  1.00  0.00     0.241 C 
HETATM    2  O   UNL     1     -41.244 -50.233  11.625  1.00  0.00    -0.271 OA
HETATM    3  N   UNL     1     -43.243 -49.547  12.511  1.00  0.00    -0.353 N 
HETATM    4  H   UNL     1     -43.730 -48.709  12.801  1.00  0.00     0.163 HD
ENDROOT
BRANCH   1   5
HETATM    5  C   UNL     1     -42.003 -47.986  11.050  1.00  0.00     0.179 C 
BRANCH   5   6
HETATM    6  C   UNL     1     -40.620 -47.318  11.261  1.00  0.00     0.009 C 
HETATM    7  C   UNL     1     -40.562 -45.924  10.621  1.00  0.00     0.012 C 
HETATM    8  C   UNL     1     -40.272 -47.181  12.748  1.00  0.00     0.012 C 
ENDBRANCH   5   6
BRANCH   5   9
HETATM    9  N   UNL     1     -42.262 -48.225   9.620  1.00  0.00    -0.348 N 
HETATM   10  C   UNL     1     -43.344 -47.646   8.994  1.00  0.00     0.214 C 
HETATM   11  O   UNL     1     -44.156 -46.931   9.566  1.00  0.00    -0.274 OA
HETATM   12  C   UNL     1     -43.447 -47.961   7.527  1.00  0.00     0.117 C 
HETATM   13  H   UNL     1     -41.573 -48.724   9.073  1.00  0.00     0.163 HD
ENDBRANCH   5   9
ENDBRANCH   1   5
BRANCH   3  14
HETATM   14  C   UNL     1     -43.499 -50.811  13.196  1.00  0.00     0.098 C 
HETATM   15  C   UNL     1     -42.930 -50.760  14.615  1.00  0.00     0.034 C 
BRANCH  14  16
HETATM   16  C   UNL     1     -44.995 -51.161  13.237  1.00  0.00     0.153 C 
BRANCH  16  17
HETATM   17  N   UNL     1     -45.247 -52.552  13.558  1.00  0.00    -0.350 N 
HETATM   18  C   UNL     1     -46.136 -53.029  14.477  1.00  0.00     0.108 A 
HETATM   19  C   UNL     1     -46.025 -54.399  14.396  1.00  0.00     0.106 A 
HETATM   20  N   UNL     1     -45.105 -54.758  13.445  1.00  0.00    -0.361 N 
HETATM   21  C   UNL     1     -44.658 -53.626  12.952  1.00  0.00     0.182 A 
ATOM     22  HN  UNL     1     -44.826 -55.703  13.178  1.00  0.00     0.166 HD
ENDBRANCH  16  17
ENDBRANCH  14  16
ENDBRANCH   3  14
TORSDOF 6
ENDMDL
MODEL 6
REMARK VINA RESULT:      -5.0      2.049      3.532
REMARK  6 active torsions:
REMARK  status: ('A' for Active; 'I' for Inactive)
REMARK    1  A    between atoms: C_2  and  C_4 
REMARK    2  A    between atoms: C_4  and  N_5 
REMARK    3  A    between atoms: C_4  and  C_9 
REMARK       I    between atoms: N_5  and  C_6 
REMARK       I    between atoms: C_9  and  N_11 
REMARK    4  A    between atoms: N_11  and  C_12 
REMARK    5  A    between atoms: C_12  and  C_14 
REMARK    6  A    between atoms: C_14  and  N_15 
ROOT
HETATM    1  C   UNL     1     -42.205 -51.393  12.941  1.00  0.00     0.241 C 
HETATM    2  O   UNL     1     -41.900 -50.938  14.043  1.00  0.00    -0.271 OA
HETATM    3  N   UNL     1     -41.893 -50.737  11.760  1.00  0.00    -0.353 N 
HETATM    4  H   UNL     1     -41.966 -51.296  10.920  1.00  0.00     0.163 HD
ENDROOT
BRANCH   1   5
HETATM    5  C   UNL     1     -43.158 -52.602  12.776  1.00  0.00     0.179 C 
BRANCH   5   6
HETATM    6  C   UNL     1     -42.422 -53.924  13.113  1.00  0.00     0.009 C 
HETATM    7  C   UNL     1     -40.920 -53.827  12.812  1.00  0.00     0.012 C 
HETATM    8  C   UNL     1     -42.595 -54.314  14.586  1.00  0.00     0.012 C 
ENDBRANCH   5   6
BRANCH   5   9
HETATM    9  N   UNL     1     -44.323 -52.406  13.656  1.00  0.00    -0.348 N 
HETATM   10  C   UNL     1     -45.602 -52.609  13.187  1.00  0.00     0.214 C 
HETATM   11  O   UNL     1     -45.859 -52.934  12.035  1.00  0.00    -0.274 OA
HETATM   12  C   UNL     1     -46.676 -52.402  14.219  1.00  0.00     0.117 C 
HETATM   13  H   UNL     1     -44.170 -52.236  14.641  1.00  0.00     0.163 HD
ENDBRANCH   5   9
ENDBRANCH   1   5
BRANCH   3  14
HETATM   14  C   UNL     1     -41.079 -49.524  11.759  1.00  0.00     0.098 C 
HETATM   15  C   UNL     1     -39.612 -49.882  11.520  1.00  0.00     0.034 C 
BRANCH  14  16
HETATM   16  C   UNL     1     -41.553 -48.504  10.712  1.00  0.00     0.153 C 
BRANCH  16  17
HETATM   17  N   UNL     1     -41.985 -47.249  11.295  1.00  0.00    -0.350 N 
HETATM   18  C   UNL     1     -41.533 -46.001  10.973  1.00  0.00     0.108 A 
HETATM   19  C   UNL     1     -42.257 -45.147  11.773  1.00  0.00     0.106 A 
HETATM   20  N   UNL     1     -43.141 -45.844  12.557  1.00  0.00    -0.361 N 
HETATM   21  C   UNL     1     -42.961 -47.107  12.241  1.00  0.00     0.182 A 
ATOM     22  HN  UNL     1     -43.799 -45.464  13.238  1.00  0.00     0.166 HD
ENDBRANCH  16  17
ENDBRANCH  14  16
ENDBRANCH   3  14
TORSDOF 6
ENDMDL
MODEL 7
REMARK VINA RESULT:      -4.8      2.364      3.644
REMARK  6 active torsions:
REMARK  status: ('A' for Active; 'I' for Inactive)
REMARK    1  A    between atoms: C_2  and  C_4 
REMARK    2  A    between atoms: C_4  and  N_5 
REMARK    3  A    between atoms: C_4  and  C_9 
REMARK       I    between atoms: N_5  and  C_6 
REMARK       I    between atoms: C_9  and  N_11 
REMARK    4  A    between atoms: N_11  and  C_12 
REMARK    5  A    between atoms: C_12  and  C_14 
REMARK    6  A    between atoms: C_14  and  N_15 
ROOT
HETATM    1  C   UNL     1     -43.689 -50.463  14.171  1.00  0.00     0.241 C 
HETATM    2  O   UNL     1     -43.885 -49.946  13.072  1.00  0.00    -0.271 OA
HETATM    3  N   UNL     1     -42.501 -50.293  14.866  1.00  0.00    -0.353 N 
HETATM    4  H   UNL     1     -42.529 -50.548  15.844  1.00  0.00     0.163 HD
ENDROOT
BRANCH   1   5
HETATM    5  C   UNL     1     -44.641 -51.527  14.771  1.00  0.00     0.179 C 
BRANCH   5   6
HETATM    6  C   UNL     1     -46.087 -51.316  14.254  1.00  0.00     0.009 C 
HETATM    7  C   UNL     1     -46.424 -52.279  13.108  1.00  0.00     0.012 C 
HETATM    8  C   UNL     1     -47.125 -51.508  15.367  1.00  0.00     0.012 C 
ENDBRANCH   5   6
BRANCH   5   9
HETATM    9  N   UNL     1     -44.140 -52.864  14.407  1.00  0.00    -0.348 N 
HETATM   10  C   UNL     1     -43.849 -53.796  15.379  1.00  0.00     0.214 C 
HETATM   11  O   UNL     1     -43.959 -53.581  16.579  1.00  0.00    -0.274 OA
HETATM   12  C   UNL     1     -43.382 -55.120  14.842  1.00  0.00     0.117 C 
HETATM   13  H   UNL     1     -44.122 -53.133  13.433  1.00  0.00     0.163 HD
ENDBRANCH   5   9
ENDBRANCH   1   5
BRANCH   3  14
HETATM   14  C   UNL     1     -41.461 -49.392  14.377  1.00  0.00     0.098 C 
HETATM   15  C   UNL     1     -41.086 -48.389  15.469  1.00  0.00     0.034 C 
BRANCH  14  16
HETATM   16  C   UNL     1     -40.210 -50.148  13.900  1.00  0.00     0.153 C 
BRANCH  16  17
HETATM   17  N   UNL     1     -40.522 -51.319  13.105  1.00  0.00    -0.350 N 
HETATM   18  C   UNL     1     -40.513 -52.618  13.527  1.00  0.00     0.108 A 
HETATM   19  C   UNL     1     -40.899 -53.349  12.426  1.00  0.00     0.106 A 
HETATM   20  N   UNL     1     -41.153 -52.526  11.359  1.00  0.00    -0.361 N 
HETATM   21  C   UNL     1     -40.925 -51.309  11.799  1.00  0.00     0.182 A 
ATOM     22  HN  UNL     1     -41.454 -52.799  10.423  1.00  0.00     0.166 HD
ENDBRANCH  16  17
ENDBRANCH  14  16
ENDBRANCH   3  14
TORSDOF 6
ENDMDL
MODEL 8
REMARK VINA RESULT:      -4.8      2.271      3.546
REMARK  6 active torsions:
REMARK  status: ('A' for Active; 'I' for Inactive)
REMARK    1  A    between atoms: C_2  and  C_4 
REMARK    2  A    between atoms: C_4  and  N_5 
REMARK    3  A    between atoms: C_4  and  C_9 
REMARK       I    between atoms: N_5  and  C_6 
REMARK       I    between atoms: C_9  and  N_11 
REMARK    4  A    between atoms: N_11  and  C_12 
REMARK    5  A    between atoms: C_12  and  C_14 
REMARK    6  A    between atoms: C_14  and  N_15 
ROOT
HETATM    1  C   UNL     1     -44.049 -51.164  14.681  1.00  0.00     0.241 C 
HETATM    2  O   UNL     1     -43.938 -49.967  14.943  1.00  0.00    -0.271 OA
HETATM    3  N   UNL     1     -43.052 -51.873  14.029  1.00  0.00    -0.353 N 
HETATM    4  H   UNL     1     -43.132 -52.880  14.077  1.00  0.00     0.163 HD
ENDROOT
BRANCH   1   5
HETATM    5  C   UNL     1     -45.387 -51.928  14.838  1.00  0.00     0.179 C 
BRANCH   5   6
HETATM    6  C   UNL     1     -46.013 -51.649  16.228  1.00  0.00     0.009 C 
HETATM    7  C   UNL     1     -47.511 -51.334  16.120  1.00  0.00     0.012 C 
HETATM    8  C   UNL     1     -45.836 -52.836  17.183  1.00  0.00     0.012 C 
ENDBRANCH   5   6
BRANCH   5   9
HETATM    9  N   UNL     1     -46.295 -51.512  13.755  1.00  0.00    -0.348 N 
HETATM   10  C   UNL     1     -46.286 -52.161  12.540  1.00  0.00     0.214 C 
HETATM   11  O   UNL     1     -45.530 -53.086  12.270  1.00  0.00    -0.274 OA
HETATM   12  C   UNL     1     -47.296 -51.639  11.557  1.00  0.00     0.117 C 
HETATM   13  H   UNL     1     -47.008 -50.823  13.951  1.00  0.00     0.163 HD
ENDBRANCH   5   9
ENDBRANCH   1   5
BRANCH   3  14
HETATM   14  C   UNL     1     -41.762 -51.259  13.724  1.00  0.00     0.098 C 
HETATM   15  C   UNL     1     -40.646 -51.990  14.471  1.00  0.00     0.034 C 
BRANCH  14  16
HETATM   16  C   UNL     1     -41.466 -51.241  12.215  1.00  0.00     0.153 C 
BRANCH  16  17
HETATM   17  N   UNL     1     -41.137 -49.921  11.715  1.00  0.00    -0.350 N 
HETATM   18  C   UNL     1     -42.014 -48.916  11.426  1.00  0.00     0.108 A 
HETATM   19  C   UNL     1     -41.225 -47.867  11.013  1.00  0.00     0.106 A 
HETATM   20  N   UNL     1     -39.897 -48.209  11.058  1.00  0.00    -0.361 N 
HETATM   21  C   UNL     1     -39.875 -49.448  11.492  1.00  0.00     0.182 A 
ATOM     22  HN  UNL     1     -39.098 -47.625  10.808  1.00  0.00     0.166 HD
ENDBRANCH  16  17
ENDBRANCH  14  16
ENDBRANCH   3  14
TORSDOF 6
ENDMDL
MODEL 9
REMARK VINA RESULT:      -4.6      3.512      5.780
REMARK  6 active torsions:
REMARK  status: ('A' for Active; 'I' for Inactive)
REMARK    1  A    between atoms: C_2  and  C_4 
REMARK    2  A    between atoms: C_4  and  N_5 
REMARK    3  A    between atoms: C_4  and  C_9 
REMARK       I    between atoms: N_5  and  C_6 
REMARK       I    between atoms: C_9  and  N_11 
REMARK    4  A    between atoms: N_11  and  C_12 
REMARK    5  A    between atoms: C_12  and  C_14 
REMARK    6  A    between atoms: C_14  and  N_15 
ROOT
HETATM    1  C   UNL     1     -40.628 -49.124  11.292  1.00  0.00     0.241 C 
HETATM    2  O   UNL     1     -41.161 -50.180  11.631  1.00  0.00    -0.271 OA
HETATM    3  N   UNL     1     -39.261 -48.918  11.402  1.00  0.00    -0.353 N 
HETATM    4  H   UNL     1     -38.897 -48.130  10.882  1.00  0.00     0.163 HD
ENDROOT
BRANCH   1   5
HETATM    5  C   UNL     1     -41.445 -47.857  10.937  1.00  0.00     0.179 C 
BRANCH   5   6
HETATM    6  C   UNL     1     -42.882 -47.959  11.510  1.00  0.00     0.009 C 
HETATM    7  C   UNL     1     -43.038 -47.135  12.795  1.00  0.00     0.012 C 
HETATM    8  C   UNL     1     -43.934 -47.483  10.500  1.00  0.00     0.012 C 
ENDBRANCH   5   6
BRANCH   5   9
HETATM    9  N   UNL     1     -40.743 -46.679  11.477  1.00  0.00    -0.348 N 
HETATM   10  C   UNL     1     -40.745 -45.484  10.792  1.00  0.00     0.214 C 
HETATM   11  O   UNL     1     -41.291 -45.323   9.709  1.00  0.00    -0.274 OA
HETATM   12  C   UNL     1     -40.015 -44.372  11.494  1.00  0.00     0.117 C 
HETATM   13  H   UNL     1     -40.360 -46.722  12.412  1.00  0.00     0.163 HD
ENDBRANCH   5   9
ENDBRANCH   1   5
BRANCH   3  14
HETATM   14  C   UNL     1     -38.364 -49.993  11.818  1.00  0.00     0.098 C 
HETATM   15  C   UNL     1     -37.166 -50.068  10.871  1.00  0.00     0.034 C 
BRANCH  14  16
HETATM   16  C   UNL     1     -37.884 -49.825  13.269  1.00  0.00     0.153 C 
BRANCH  16  17
HETATM   17  N   UNL     1     -38.431 -50.821  14.169  1.00  0.00    -0.350 N 
HETATM   18  C   UNL     1     -38.901 -52.057  13.829  1.00  0.00     0.108 A 
HETATM   19  C   UNL     1     -39.284 -52.628  15.021  1.00  0.00     0.106 A 
HETATM   20  N   UNL     1     -39.044 -51.777  16.069  1.00  0.00    -0.361 N 
HETATM   21  C   UNL     1     -38.523 -50.700  15.526  1.00  0.00     0.182 A 
ATOM     22  HN  UNL     1     -39.230 -51.944  17.058  1.00  0.00     0.166 HD
ENDBRANCH  16  17
ENDBRANCH  14  16
ENDBRANCH   3  14
TORSDOF 6
ENDMDL
