MODEL 1
REMARK VINA RESULT:      -4.4      0.000      0.000
REMARK  5 active torsions:
REMARK  status: ('A' for Active; 'I' for Inactive)
REMARK    1  A    between atoms: N_5  and  CA_6 
REMARK    2  A    between atoms: CA_6  and  C_7 
REMARK    3  A    between atoms: CA_6  and  C_9 
REMARK    4  A    between atoms: C_7  and  O_8 
REMARK    5  A    between atoms: C_9  and  C_10 
ROOT
HETATM    1  C   UNL     3     -43.113 -46.828  10.903  1.00  0.00     0.076 C 
ENDROOT
BRANCH   1   2
HETATM    2  CA  UNL     3     -42.372 -45.508  10.605  1.00  0.00     0.245 C 
BRANCH   2   3
HETATM    3  N   UNL     3     -42.799 -44.465  11.542  1.00  0.00     0.085 N 
HETATM    4  H1  UNL     3     -43.131 -44.905  12.429  1.00  0.00     0.313 HD
HETATM    5  H2  UNL     3     -43.583 -43.903  11.136  1.00  0.00     0.313 HD
ENDBRANCH   2   3
BRANCH   2   6
HETATM    6  C   UNL     3     -40.844 -45.706  10.652  1.00  0.00     0.199 C 
BRANCH   6   7
HETATM    7  O   UNL     3     -40.212 -45.125   9.541  1.00  0.00    -0.399 OA
HETATM    8  H   UNL     3     -39.501 -44.529   9.894  1.00  0.00     0.209 HD
ENDBRANCH   6   7
ENDBRANCH   2   6
ENDBRANCH   1   2
BRANCH   1   9
HETATM    9  C   UNL     3     -43.855 -47.353   9.696  1.00  0.00    -0.053 A 
HETATM   10  C   UNL     3     -43.162 -47.697   8.526  1.00  0.00     0.024 A 
HETATM   11  C   UNL     3     -43.865 -48.192   7.426  1.00  0.00     0.088 A 
HETATM   12  N   UNL     3     -45.214 -48.342   7.490  1.00  0.00    -0.375 N 
HETATM   13  C   UNL     3     -45.914 -48.019   8.610  1.00  0.00     0.088 A 
ATOM     14  HN  UNL     3     -45.713 -48.706   6.678  1.00  0.00     0.164 HD
HETATM   15  C   UNL     3     -45.249 -47.520   9.733  1.00  0.00     0.024 A 
ENDBRANCH   1   9
TORSDOF 5
ENDMDL
MODEL 2
REMARK VINA RESULT:      -4.4      7.944      8.396
REMARK  5 active torsions:
REMARK  status: ('A' for Active; 'I' for Inactive)
REMARK    1  A    between atoms: N_5  and  CA_6 
REMARK    2  A    between atoms: CA_6  and  C_7 
REMARK    3  A    between atoms: CA_6  and  C_9 
REMARK    4  A    between atoms: C_7  and  O_8 
REMARK    5  A    between atoms: C_9  and  C_10 
ROOT
HETATM    1  C   UNL     3     -42.004 -52.909  13.723  1.00  0.00     0.076 C 
ENDROOT
BRANCH   1   2
HETATM    2  CA  UNL     3     -41.051 -53.941  13.084  1.00  0.00     0.245 C 
BRANCH   2   3
HETATM    3  N   UNL     3     -40.784 -53.586  11.688  1.00  0.00     0.085 N 
HETATM    4  H1  UNL     3     -41.271 -52.692  11.453  1.00  0.00     0.313 HD
HETATM    5  H2  UNL     3     -41.133 -54.333  11.044  1.00  0.00     0.313 HD
ENDBRANCH   2   3
BRANCH   2   6
HETATM    6  C   UNL     3     -39.741 -54.059  13.888  1.00  0.00     0.199 C 
BRANCH   6   7
HETATM    7  O   UNL     3     -38.831 -54.930  13.271  1.00  0.00    -0.399 OA
HETATM    8  H   UNL     3     -37.937 -54.503  13.332  1.00  0.00     0.209 HD
ENDBRANCH   6   7
ENDBRANCH   2   6
ENDBRANCH   1   2
BRANCH   1   9
HETATM    9  C   UNL     3     -43.453 -53.329  13.622  1.00  0.00    -0.053 A 
HETATM   10  C   UNL     3     -43.869 -54.578  14.107  1.00  0.00     0.024 A 
HETATM   11  C   UNL     3     -45.214 -54.941  14.016  1.00  0.00     0.088 A 
HETATM   12  N   UNL     3     -46.115 -54.089  13.462  1.00  0.00    -0.375 N 
HETATM   13  C   UNL     3     -45.743 -52.871  12.984  1.00  0.00     0.088 A 
ATOM     14  HN  UNL     3     -47.094 -54.369  13.403  1.00  0.00     0.164 HD
HETATM   15  C   UNL     3     -44.407 -52.468  13.055  1.00  0.00     0.024 A 
ENDBRANCH   1   9
TORSDOF 5
ENDMDL
MODEL 3
REMARK VINA RESULT:      -4.3      7.692      7.998
REMARK  5 active torsions:
REMARK  status: ('A' for Active; 'I' for Inactive)
REMARK    1  A    between atoms: N_5  and  CA_6 
REMARK    2  A    between atoms: CA_6  and  C_7 
REMARK    3  A    between atoms: CA_6  and  C_9 
REMARK    4  A    between atoms: C_7  and  O_8 
REMARK    5  A    between atoms: C_9  and  C_10 
ROOT
HETATM    1  C   UNL     3     -42.150 -54.158  13.280  1.00  0.00     0.076 C 
ENDROOT
BRANCH   1   2
HETATM    2  CA  UNL     3     -41.402 -52.834  13.540  1.00  0.00     0.245 C 
BRANCH   2   3
HETATM    3  N   UNL     3     -40.400 -53.016  14.594  1.00  0.00     0.085 N 
HETATM    4  H1  UNL     3     -40.813 -52.765  15.519  1.00  0.00     0.313 HD
HETATM    5  H2  UNL     3     -39.569 -52.404  14.423  1.00  0.00     0.313 HD
ENDBRANCH   2   3
BRANCH   2   6
HETATM    6  C   UNL     3     -40.757 -52.297  12.246  1.00  0.00     0.199 C 
BRANCH   6   7
HETATM    7  O   UNL     3     -40.577 -53.315  11.297  1.00  0.00    -0.399 OA
HETATM    8  H   UNL     3     -39.714 -53.757  11.509  1.00  0.00     0.209 HD
ENDBRANCH   6   7
ENDBRANCH   2   6
ENDBRANCH   1   2
BRANCH   1   9
HETATM    9  C   UNL     3     -43.649 -53.998  13.379  1.00  0.00    -0.053 A 
HETATM   10  C   UNL     3     -44.311 -53.004  12.643  1.00  0.00     0.024 A 
HETATM   11  C   UNL     3     -45.698 -52.880  12.738  1.00  0.00     0.088 A 
HETATM   12  N   UNL     3     -46.404 -53.722  13.538  1.00  0.00    -0.375 N 
HETATM   13  C   UNL     3     -45.792 -54.696  14.262  1.00  0.00     0.088 A 
ATOM     14  HN  UNL     3     -47.417 -53.619  13.597  1.00  0.00     0.164 HD
HETATM   15  C   UNL     3     -44.405 -54.854  14.197  1.00  0.00     0.024 A 
ENDBRANCH   1   9
TORSDOF 5
ENDMDL
MODEL 4
REMARK VINA RESULT:      -4.2      7.530      8.409
REMARK  5 active torsions:
REMARK  status: ('A' for Active; 'I' for Inactive)
REMARK    1  A    between atoms: N_5  and  CA_6 
REMARK    2  A    between atoms: CA_6  and  C_7 
REMARK    3  A    between atoms: CA_6  and  C_9 
REMARK    4  A    between atoms: C_7  and  O_8 
REMARK    5  A    between atoms: C_9  and  C_10 
ROOT
HETATM    1  C   UNL     3     -44.285 -53.147  14.165  1.00  0.00     0.076 C 
ENDROOT
BRANCH   1   2
HETATM    2  CA  UNL     3     -45.481 -53.605  13.303  1.00  0.00     0.245 C 
BRANCH   2   3
HETATM    3  N   UNL     3     -46.309 -54.555  14.051  1.00  0.00     0.085 N 
HETATM    4  H1  UNL     3     -46.044 -54.532  15.061  1.00  0.00     0.313 HD
HETATM    5  H2  UNL     3     -46.169 -55.528  13.693  1.00  0.00     0.313 HD
ENDBRANCH   2   3
BRANCH   2   6
HETATM    6  C   UNL     3     -46.313 -52.399  12.823  1.00  0.00     0.199 C 
BRANCH   6   7
HETATM    7  O   UNL     3     -46.658 -52.514  11.468  1.00  0.00    -0.399 OA
HETATM    8  H   UNL     3     -46.767 -53.483  11.280  1.00  0.00     0.209 HD
ENDBRANCH   6   7
ENDBRANCH   2   6
ENDBRANCH   1   2
BRANCH   1   9
HETATM    9  C   UNL     3     -42.981 -53.192  13.402  1.00  0.00    -0.053 A 
HETATM   10  C   UNL     3     -42.075 -54.245  13.598  1.00  0.00     0.024 A 
HETATM   11  C   UNL     3     -40.881 -54.274  12.875  1.00  0.00     0.088 A 
HETATM   12  N   UNL     3     -40.601 -53.289  11.983  1.00  0.00    -0.375 N 
HETATM   13  C   UNL     3     -41.459 -52.256  11.769  1.00  0.00     0.088 A 
ATOM     14  HN  UNL     3     -39.725 -53.324  11.461  1.00  0.00     0.164 HD
HETATM   15  C   UNL     3     -42.664 -52.188  12.472  1.00  0.00     0.024 A 
ENDBRANCH   1   9
TORSDOF 5
ENDMDL
MODEL 5
REMARK VINA RESULT:      -4.2      2.575      4.813
REMARK  5 active torsions:
REMARK  status: ('A' for Active; 'I' for Inactive)
REMARK    1  A    between atoms: N_5  and  CA_6 
REMARK    2  A    between atoms: CA_6  and  C_7 
REMARK    3  A    between atoms: CA_6  and  C_9 
REMARK    4  A    between atoms: C_7  and  O_8 
REMARK    5  A    between atoms: C_9  and  C_10 
ROOT
HETATM    1  C   UNL     3     -44.203 -47.566   8.840  1.00  0.00     0.076 C 
ENDROOT
BRANCH   1   2
HETATM    2  CA  UNL     3     -45.719 -47.486   9.120  1.00  0.00     0.245 C 
BRANCH   2   3
HETATM    3  N   UNL     3     -46.229 -46.160   8.764  1.00  0.00     0.085 N 
HETATM    4  H1  UNL     3     -47.202 -46.048   9.126  1.00  0.00     0.313 HD
HETATM    5  H2  UNL     3     -46.246 -46.038   7.725  1.00  0.00     0.313 HD
ENDBRANCH   2   3
BRANCH   2   6
HETATM    6  C   UNL     3     -46.481 -48.596   8.371  1.00  0.00     0.199 C 
BRANCH   6   7
HETATM    7  O   UNL     3     -46.048 -48.715   7.041  1.00  0.00    -0.399 OA
HETATM    8  H   UNL     3     -45.438 -49.497   7.006  1.00  0.00     0.209 HD
ENDBRANCH   6   7
ENDBRANCH   2   6
ENDBRANCH   1   2
BRANCH   1   9
HETATM    9  C   UNL     3     -43.378 -47.109  10.021  1.00  0.00    -0.053 A 
HETATM   10  C   UNL     3     -43.490 -47.752  11.262  1.00  0.00     0.024 A 
HETATM   11  C   UNL     3     -42.710 -47.322  12.337  1.00  0.00     0.088 A 
HETATM   12  N   UNL     3     -41.844 -46.288  12.180  1.00  0.00    -0.375 N 
HETATM   13  C   UNL     3     -41.711 -45.645  10.989  1.00  0.00     0.088 A 
ATOM     14  HN  UNL     3     -41.280 -45.986  12.974  1.00  0.00     0.164 HD
HETATM   15  C   UNL     3     -42.474 -46.043   9.888  1.00  0.00     0.024 A 
ENDBRANCH   1   9
TORSDOF 5
ENDMDL
MODEL 6
REMARK VINA RESULT:      -4.0      8.142      9.012
REMARK  5 active torsions:
REMARK  status: ('A' for Active; 'I' for Inactive)
REMARK    1  A    between atoms: N_5  and  CA_6 
REMARK    2  A    between atoms: CA_6  and  C_7 
REMARK    3  A    between atoms: CA_6  and  C_9 
REMARK    4  A    between atoms: C_7  and  O_8 
REMARK    5  A    between atoms: C_9  and  C_10 
ROOT
HETATM    1  C   UNL     3     -44.520 -54.403  13.172  1.00  0.00     0.076 C 
ENDROOT
BRANCH   1   2
HETATM    2  CA  UNL     3     -45.529 -53.480  13.889  1.00  0.00     0.245 C 
BRANCH   2   3
HETATM    3  N   UNL     3     -46.488 -52.935  12.925  1.00  0.00     0.085 N 
HETATM    4  H1  UNL     3     -47.458 -53.200  13.206  1.00  0.00     0.313 HD
HETATM    5  H2  UNL     3     -46.305 -53.313  11.967  1.00  0.00     0.313 HD
ENDBRANCH   2   3
BRANCH   2   6
HETATM    6  C   UNL     3     -46.249 -54.226  15.030  1.00  0.00     0.199 C 
BRANCH   6   7
HETATM    7  O   UNL     3     -46.942 -55.351  14.557  1.00  0.00    -0.399 OA
HETATM    8  H   UNL     3     -46.949 -56.015  15.294  1.00  0.00     0.209 HD
ENDBRANCH   6   7
ENDBRANCH   2   6
ENDBRANCH   1   2
BRANCH   1   9
HETATM    9  C   UNL     3     -43.146 -53.782  13.075  1.00  0.00    -0.053 A 
HETATM   10  C   UNL     3     -42.931 -52.640  12.290  1.00  0.00     0.024 A 
HETATM   11  C   UNL     3     -41.657 -52.075  12.224  1.00  0.00     0.088 A 
HETATM   12  N   UNL     3     -40.630 -52.627  12.921  1.00  0.00    -0.375 N 
HETATM   13  C   UNL     3     -40.806 -53.732  13.693  1.00  0.00     0.088 A 
ATOM     14  HN  UNL     3     -39.704 -52.202  12.864  1.00  0.00     0.164 HD
HETATM   15  C   UNL     3     -42.065 -54.330  13.786  1.00  0.00     0.024 A 
ENDBRANCH   1   9
TORSDOF 5
ENDMDL
MODEL 7
REMARK VINA RESULT:      -3.9      8.159      8.896
REMARK  5 active torsions:
REMARK  status: ('A' for Active; 'I' for Inactive)
REMARK    1  A    between atoms: N_5  and  CA_6 
REMARK    2  A    between atoms: CA_6  and  C_7 
REMARK    3  A    between atoms: CA_6  and  C_9 
REMARK    4  A    between atoms: C_7  and  O_8 
REMARK    5  A    between atoms: C_9  and  C_10 
ROOT
HETATM    1  C   UNL     3     -43.869 -53.816  12.760  1.00  0.00     0.076 C 
ENDROOT
BRANCH   1   2
HETATM    2  CA  UNL     3     -44.591 -52.555  13.280  1.00  0.00     0.245 C 
BRANCH   2   3
HETATM    3  N   UNL     3     -43.992 -51.352  12.696  1.00  0.00     0.085 N 
HETATM    4  H1  UNL     3     -43.384 -51.618  11.890  1.00  0.00     0.313 HD
HETATM    5  H2  UNL     3     -43.405 -50.852  13.403  1.00  0.00     0.313 HD
ENDBRANCH   2   3
BRANCH   2   6
HETATM    6  C   UNL     3     -46.104 -52.621  12.988  1.00  0.00     0.199 C 
BRANCH   6   7
HETATM    7  O   UNL     3     -46.365 -52.637  11.609  1.00  0.00    -0.399 OA
HETATM    8  H   UNL     3     -46.560 -51.702  11.343  1.00  0.00     0.209 HD
ENDBRANCH   6   7
ENDBRANCH   2   6
ENDBRANCH   1   2
BRANCH   1   9
HETATM    9  C   UNL     3     -42.596 -54.102  13.522  1.00  0.00    -0.053 A 
HETATM   10  C   UNL     3     -41.344 -53.901  12.923  1.00  0.00     0.024 A 
HETATM   11  C   UNL     3     -40.180 -54.159  13.648  1.00  0.00     0.088 A 
HETATM   12  N   UNL     3     -40.260 -54.599  14.931  1.00  0.00    -0.375 N 
HETATM   13  C   UNL     3     -41.458 -54.800  15.541  1.00  0.00     0.088 A 
ATOM     14  HN  UNL     3     -39.400 -54.782  15.449  1.00  0.00     0.164 HD
HETATM   15  C   UNL     3     -42.648 -54.556  14.851  1.00  0.00     0.024 A 
ENDBRANCH   1   9
TORSDOF 5
ENDMDL
MODEL 8
REMARK VINA RESULT:      -3.9      4.203      5.187
REMARK  5 active torsions:
REMARK  status: ('A' for Active; 'I' for Inactive)
REMARK    1  A    between atoms: N_5  and  CA_6 
REMARK    2  A    between atoms: CA_6  and  C_7 
REMARK    3  A    between atoms: CA_6  and  C_9 
REMARK    4  A    between atoms: C_7  and  O_8 
REMARK    5  A    between atoms: C_9  and  C_10 
ROOT
HETATM    1  C   UNL     3     -39.686 -48.564  12.100  1.00  0.00     0.076 C 
ENDROOT
BRANCH   1   2
HETATM    2  CA  UNL     3     -39.506 -49.978  11.509  1.00  0.00     0.245 C 
BRANCH   2   3
HETATM    3  N   UNL     3     -38.213 -50.080  10.826  1.00  0.00     0.085 N 
HETATM    4  H1  UNL     3     -37.486 -50.413  11.497  1.00  0.00     0.313 HD
HETATM    5  H2  UNL     3     -37.919 -49.148  10.453  1.00  0.00     0.313 HD
ENDBRANCH   2   3
BRANCH   2   6
HETATM    6  C   UNL     3     -39.645 -51.058  12.601  1.00  0.00     0.199 C 
BRANCH   6   7
HETATM    7  O   UNL     3     -39.936 -52.316  12.051  1.00  0.00    -0.399 OA
HETATM    8  H   UNL     3     -39.080 -52.817  12.011  1.00  0.00     0.209 HD
ENDBRANCH   6   7
ENDBRANCH   2   6
ENDBRANCH   1   2
BRANCH   1   9
HETATM    9  C   UNL     3     -40.581 -47.697  11.244  1.00  0.00    -0.053 A 
HETATM   10  C   UNL     3     -41.675 -48.252  10.565  1.00  0.00     0.024 A 
HETATM   11  C   UNL     3     -42.496 -47.431   9.790  1.00  0.00     0.088 A 
HETATM   12  N   UNL     3     -42.239 -46.100   9.698  1.00  0.00    -0.375 N 
HETATM   13  C   UNL     3     -41.187 -45.532  10.346  1.00  0.00     0.088 A 
ATOM     14  HN  UNL     3     -42.849 -45.513   9.128  1.00  0.00     0.164 HD
HETATM   15  C   UNL     3     -40.339 -46.318  11.131  1.00  0.00     0.024 A 
ENDBRANCH   1   9
TORSDOF 5
ENDMDL
MODEL 9
REMARK VINA RESULT:      -3.9      7.960      9.220
REMARK  5 active torsions:
REMARK  status: ('A' for Active; 'I' for Inactive)
REMARK    1  A    between atoms: N_5  and  CA_6 
REMARK    2  A    between atoms: CA_6  and  C_7 
REMARK    3  A    between atoms: CA_6  and  C_9 
REMARK    4  A    between atoms: C_7  and  O_8 
REMARK    5  A    between atoms: C_9  and  C_10 
ROOT
HETATM    1  C   UNL     3     -45.420 -51.522  13.961  1.00  0.00     0.076 C 
ENDROOT
BRANCH   1   2
HETATM    2  CA  UNL     3     -46.162 -52.685  13.269  1.00  0.00     0.245 C 
BRANCH   2   3
HETATM    3  N   UNL     3     -46.450 -52.341  11.874  1.00  0.00     0.085 N 
HETATM    4  H1  UNL     3     -46.705 -53.204  11.345  1.00  0.00     0.313 HD
HETATM    5  H2  UNL     3     -45.613 -51.907  11.420  1.00  0.00     0.313 HD
ENDBRANCH   2   3
BRANCH   2   6
HETATM    6  C   UNL     3     -45.354 -53.994  13.364  1.00  0.00     0.199 C 
BRANCH   6   7
HETATM    7  O   UNL     3     -46.129 -55.044  13.883  1.00  0.00    -0.399 OA
HETATM    8  H   UNL     3     -47.064 -54.880  13.595  1.00  0.00     0.209 HD
ENDBRANCH   6   7
ENDBRANCH   2   6
ENDBRANCH   1   2
BRANCH   1   9
HETATM    9  C   UNL     3     -46.001 -51.201  15.319  1.00  0.00    -0.053 A 
HETATM   10  C   UNL     3     -47.325 -51.543  15.629  1.00  0.00     0.024 A 
HETATM   11  C   UNL     3     -47.838 -51.249  16.893  1.00  0.00     0.088 A 
HETATM   12  N   UNL     3     -47.057 -50.637  17.820  1.00  0.00    -0.375 N 
HETATM   13  C   UNL     3     -45.769 -50.294  17.552  1.00  0.00     0.088 A 
ATOM     14  HN  UNL     3     -47.446 -50.429  18.740  1.00  0.00     0.164 HD
HETATM   15  C   UNL     3     -45.216 -50.570  16.298  1.00  0.00     0.024 A 
ENDBRANCH   1   9
TORSDOF 5
ENDMDL
