MODEL 1
REMARK VINA RESULT:      -5.9      0.000      0.000
REMARK  3 active torsions:
REMARK  status: ('A' for Active; 'I' for Inactive)
REMARK       I    between atoms: N_2  and  C_3 
REMARK    1  A    between atoms: C_3  and  C_5 
REMARK    2  A    between atoms: C_5  and  C_6 
REMARK    3  A    between atoms: C_10  and  C_13 
ROOT
HETATM    1  C   UNL     1     -41.511 -50.057  11.591  1.00  0.00     0.112 A 
HETATM    2  N   UNL     1     -40.810 -51.183  11.388  1.00  0.00    -0.247 N 
ATOM      3  HN  UNL     1     -39.935 -51.300  10.877  1.00  0.00     0.196 HD
HETATM    4  O   UNL     1     -41.566 -52.156  12.045  1.00  0.00    -0.222 OA
HETATM    5  C   UNL     1     -42.637 -51.512  12.590  1.00  0.00     0.152 A 
HETATM    6  N   UNL     1     -42.661 -50.223  12.323  1.00  0.00    -0.326 N 
ATOM      7  HN  UNL     1     -43.355 -49.526  12.592  1.00  0.00     0.169 HD
ENDROOT
BRANCH   1   8
HETATM    8  C   UNL     1     -41.060 -48.728  11.124  1.00  0.00     0.181 C 
BRANCH   8   9
HETATM    9  C   UNL     1     -42.193 -47.935  10.516  1.00  0.00     0.224 C 
HETATM   10  N   UNL     1     -42.426 -48.178   9.175  1.00  0.00    -0.365 N 
HETATM   11  C   UNL     1     -43.454 -47.458   8.469  1.00  0.00     0.149 C 
HETATM   12  H   UNL     1     -41.715 -48.667   8.640  1.00  0.00     0.161 HD
HETATM   13  O   UNL     1     -42.902 -47.187  11.185  1.00  0.00    -0.273 OA
ENDBRANCH   8   9
ENDBRANCH   1   8
BRANCH   5  14
HETATM   14  C   UNL     1     -43.607 -52.312  13.395  1.00  0.00     0.067 C 
HETATM   15  C   UNL     1     -44.642 -53.031  12.513  1.00  0.00     0.017 C 
HETATM   16  C   UNL     1     -46.089 -52.534  12.550  1.00  0.00     0.027 C 
HETATM   17  C   UNL     1     -46.463 -51.667  13.701  1.00  0.00    -0.031 C 
HETATM   18  C   UNL     1     -45.597 -51.208  14.608  1.00  0.00    -0.030 C 
HETATM   19  C   UNL     1     -44.134 -51.508  14.593  1.00  0.00     0.040 C 
ENDBRANCH   5  14
TORSDOF 3
ENDMDL
MODEL 2
REMARK VINA RESULT:      -5.9      1.811      2.543
REMARK  3 active torsions:
REMARK  status: ('A' for Active; 'I' for Inactive)
REMARK       I    between atoms: N_2  and  C_3 
REMARK    1  A    between atoms: C_3  and  C_5 
REMARK    2  A    between atoms: C_5  and  C_6 
REMARK    3  A    between atoms: C_10  and  C_13 
ROOT
HETATM    1  C   UNL     1     -41.998 -52.428  12.261  1.00  0.00     0.112 A 
HETATM    2  N   UNL     1     -41.829 -53.698  12.661  1.00  0.00    -0.247 N 
ATOM      3  HN  UNL     1     -40.958 -54.218  12.763  1.00  0.00     0.196 HD
HETATM    4  O   UNL     1     -43.133 -54.135  12.903  1.00  0.00    -0.222 OA
HETATM    5  C   UNL     1     -43.952 -53.076  12.638  1.00  0.00     0.152 A 
HETATM    6  N   UNL     1     -43.305 -52.009  12.222  1.00  0.00    -0.326 N 
ATOM      7  HN  UNL     1     -43.679 -51.101  11.942  1.00  0.00     0.169 HD
ENDROOT
BRANCH   1   8
HETATM    8  C   UNL     1     -40.871 -51.522  11.948  1.00  0.00     0.181 C 
BRANCH   8   9
HETATM    9  C   UNL     1     -41.312 -50.077  11.900  1.00  0.00     0.224 C 
HETATM   10  N   UNL     1     -41.084 -49.433  10.698  1.00  0.00    -0.365 N 
HETATM   11  C   UNL     1     -41.424 -48.043  10.536  1.00  0.00     0.149 C 
HETATM   12  H   UNL     1     -40.451 -49.863  10.030  1.00  0.00     0.161 HD
HETATM   13  O   UNL     1     -41.900 -49.541  12.836  1.00  0.00    -0.273 OA
ENDBRANCH   8   9
ENDBRANCH   1   8
BRANCH   5  14
HETATM   14  C   UNL     1     -45.419 -53.249  12.853  1.00  0.00     0.067 C 
HETATM   15  C   UNL     1     -46.162 -51.902  12.901  1.00  0.00     0.017 C 
HETATM   16  C   UNL     1     -46.725 -51.438  14.247  1.00  0.00     0.027 C 
HETATM   17  C   UNL     1     -46.853 -52.476  15.306  1.00  0.00    -0.031 C 
HETATM   18  C   UNL     1     -46.399 -53.726  15.190  1.00  0.00    -0.030 C 
HETATM   19  C   UNL     1     -45.704 -54.255  13.979  1.00  0.00     0.040 C 
ENDBRANCH   5  14
TORSDOF 3
ENDMDL
MODEL 3
REMARK VINA RESULT:      -5.7      3.768      4.773
REMARK  3 active torsions:
REMARK  status: ('A' for Active; 'I' for Inactive)
REMARK       I    between atoms: N_2  and  C_3 
REMARK    1  A    between atoms: C_3  and  C_5 
REMARK    2  A    between atoms: C_5  and  C_6 
REMARK    3  A    between atoms: C_10  and  C_13 
ROOT
HETATM    1  C   UNL     1     -42.100 -54.521  14.489  1.00  0.00     0.112 A 
HETATM    2  N   UNL     1     -42.649 -55.439  15.300  1.00  0.00    -0.247 N 
ATOM      3  HN  UNL     1     -42.181 -56.073  15.946  1.00  0.00     0.196 HD
HETATM    4  O   UNL     1     -44.017 -55.315  15.046  1.00  0.00    -0.222 OA
HETATM    5  C   UNL     1     -44.152 -54.324  14.119  1.00  0.00     0.152 A 
HETATM    6  N   UNL     1     -43.002 -53.816  13.730  1.00  0.00    -0.326 N 
ATOM      7  HN  UNL     1     -42.825 -53.085  13.039  1.00  0.00     0.169 HD
ENDROOT
BRANCH   1   8
HETATM    8  C   UNL     1     -40.649 -54.236  14.454  1.00  0.00     0.181 C 
BRANCH   8   9
HETATM    9  C   UNL     1     -40.305 -53.220  13.390  1.00  0.00     0.224 C 
HETATM   10  N   UNL     1     -39.598 -52.119  13.836  1.00  0.00    -0.365 N 
HETATM   11  C   UNL     1     -39.242 -51.061  12.926  1.00  0.00     0.149 C 
HETATM   12  H   UNL     1     -39.559 -51.940  14.835  1.00  0.00     0.161 HD
HETATM   13  O   UNL     1     -40.567 -53.401  12.203  1.00  0.00    -0.273 OA
ENDBRANCH   8   9
ENDBRANCH   1   8
BRANCH   5  14
HETATM   14  C   UNL     1     -45.530 -53.947  13.685  1.00  0.00     0.067 C 
HETATM   15  C   UNL     1     -45.522 -52.809  12.649  1.00  0.00     0.017 C 
HETATM   16  C   UNL     1     -46.033 -51.434  13.084  1.00  0.00     0.027 C 
HETATM   17  C   UNL     1     -46.847 -51.394  14.331  1.00  0.00    -0.031 C 
HETATM   18  C   UNL     1     -47.041 -52.442  15.134  1.00  0.00    -0.030 C 
HETATM   19  C   UNL     1     -46.473 -53.801  14.889  1.00  0.00     0.040 C 
ENDBRANCH   5  14
TORSDOF 3
ENDMDL
MODEL 4
REMARK VINA RESULT:      -5.6      3.302      4.142
REMARK  3 active torsions:
REMARK  status: ('A' for Active; 'I' for Inactive)
REMARK       I    between atoms: N_2  and  C_3 
REMARK    1  A    between atoms: C_3  and  C_5 
REMARK    2  A    between atoms: C_5  and  C_6 
REMARK    3  A    between atoms: C_10  and  C_13 
ROOT
HETATM    1  C   UNL     1     -41.932 -52.444  12.389  1.00  0.00     0.112 A 
HETATM    2  N   UNL     1     -41.843 -53.751  12.680  1.00  0.00    -0.247 N 
ATOM      3  HN  UNL     1     -41.004 -54.325  12.764  1.00  0.00     0.196 HD
HETATM    4  O   UNL     1     -43.175 -54.137  12.842  1.00  0.00    -0.222 OA
HETATM    5  C   UNL     1     -43.929 -53.017  12.647  1.00  0.00     0.152 A 
HETATM    6  N   UNL     1     -43.214 -51.954  12.347  1.00  0.00    -0.326 N 
ATOM      7  HN  UNL     1     -43.532 -51.007  12.136  1.00  0.00     0.169 HD
ENDROOT
BRANCH   1   8
HETATM    8  C   UNL     1     -40.751 -51.576  12.192  1.00  0.00     0.181 C 
BRANCH   8   9
HETATM    9  C   UNL     1     -39.713 -51.792  13.270  1.00  0.00     0.224 C 
HETATM   10  N   UNL     1     -39.640 -50.793  14.222  1.00  0.00    -0.365 N 
HETATM   11  C   UNL     1     -38.666 -50.862  15.281  1.00  0.00     0.149 C 
HETATM   12  H   UNL     1     -40.090 -49.904  14.028  1.00  0.00     0.161 HD
HETATM   13  O   UNL     1     -39.040 -52.818  13.334  1.00  0.00    -0.273 OA
ENDBRANCH   8   9
ENDBRANCH   1   8
BRANCH   5  14
HETATM   14  C   UNL     1     -45.410 -53.129  12.800  1.00  0.00     0.067 C 
HETATM   15  C   UNL     1     -46.087 -51.753  12.930  1.00  0.00     0.017 C 
HETATM   16  C   UNL     1     -46.674 -51.364  14.289  1.00  0.00     0.027 C 
HETATM   17  C   UNL     1     -46.892 -52.473  15.259  1.00  0.00    -0.031 C 
HETATM   18  C   UNL     1     -46.496 -53.733  15.060  1.00  0.00    -0.030 C 
HETATM   19  C   UNL     1     -45.785 -54.202  13.834  1.00  0.00     0.040 C 
ENDBRANCH   5  14
TORSDOF 3
ENDMDL
MODEL 5
REMARK VINA RESULT:      -5.4      3.302      4.682
REMARK  3 active torsions:
REMARK  status: ('A' for Active; 'I' for Inactive)
REMARK       I    between atoms: N_2  and  C_3 
REMARK    1  A    between atoms: C_3  and  C_5 
REMARK    2  A    between atoms: C_5  and  C_6 
REMARK    3  A    between atoms: C_10  and  C_13 
ROOT
HETATM    1  C   UNL     1     -42.423 -47.174   9.953  1.00  0.00     0.112 A 
HETATM    2  N   UNL     1     -42.064 -46.599  11.111  1.00  0.00    -0.247 N 
ATOM      3  HN  UNL     1     -42.341 -45.690  11.479  1.00  0.00     0.196 HD
HETATM    4  O   UNL     1     -41.219 -47.547  11.693  1.00  0.00    -0.222 OA
HETATM    5  C   UNL     1     -41.169 -48.602  10.830  1.00  0.00     0.152 A 
HETATM    6  N   UNL     1     -41.877 -48.416   9.737  1.00  0.00    -0.326 N 
ATOM      7  HN  UNL     1     -41.990 -49.035   8.934  1.00  0.00     0.169 HD
ENDROOT
BRANCH   1   8
HETATM    8  C   UNL     1     -43.380 -46.560   9.007  1.00  0.00     0.181 C 
BRANCH   8   9
HETATM    9  C   UNL     1     -44.142 -47.605   8.226  1.00  0.00     0.224 C 
HETATM   10  N   UNL     1     -45.474 -47.742   8.572  1.00  0.00    -0.365 N 
HETATM   11  C   UNL     1     -46.299 -48.730   7.928  1.00  0.00     0.149 C 
HETATM   12  H   UNL     1     -45.793 -47.329   9.443  1.00  0.00     0.161 HD
HETATM   13  O   UNL     1     -43.632 -48.232   7.301  1.00  0.00    -0.273 OA
ENDBRANCH   8   9
ENDBRANCH   1   8
BRANCH   5  14
HETATM   14  C   UNL     1     -40.359 -49.795  11.221  1.00  0.00     0.067 C 
HETATM   15  C   UNL     1     -41.175 -50.808  12.043  1.00  0.00     0.017 C 
HETATM   16  C   UNL     1     -40.843 -50.964  13.529  1.00  0.00     0.027 C 
HETATM   17  C   UNL     1     -39.529 -50.425  13.975  1.00  0.00    -0.031 C 
HETATM   18  C   UNL     1     -38.704 -49.719  13.197  1.00  0.00    -0.030 C 
HETATM   19  C   UNL     1     -38.985 -49.380  11.771  1.00  0.00     0.040 C 
ENDBRANCH   5  14
TORSDOF 3
ENDMDL
MODEL 6
REMARK VINA RESULT:      -5.3      2.749      3.492
REMARK  3 active torsions:
REMARK  status: ('A' for Active; 'I' for Inactive)
REMARK       I    between atoms: N_2  and  C_3 
REMARK    1  A    between atoms: C_3  and  C_5 
REMARK    2  A    between atoms: C_5  and  C_6 
REMARK    3  A    between atoms: C_10  and  C_13 
ROOT
HETATM    1  C   UNL     1     -40.854 -50.446  11.507  1.00  0.00     0.112 A 
HETATM    2  N   UNL     1     -39.587 -50.558  11.935  1.00  0.00    -0.247 N 
ATOM      3  HN  UNL     1     -38.845 -49.859  11.908  1.00  0.00     0.196 HD
HETATM    4  O   UNL     1     -39.528 -51.864  12.426  1.00  0.00    -0.222 OA
HETATM    5  C   UNL     1     -40.771 -52.398  12.257  1.00  0.00     0.152 A 
HETATM    6  N   UNL     1     -41.618 -51.573  11.679  1.00  0.00    -0.326 N 
ATOM      7  HN  UNL     1     -42.594 -51.731  11.424  1.00  0.00     0.169 HD
ENDROOT
BRANCH   1   8
HETATM    8  C   UNL     1     -41.412 -49.193  10.953  1.00  0.00     0.181 C 
BRANCH   8   9
HETATM    9  C   UNL     1     -40.642 -47.981  11.425  1.00  0.00     0.224 C 
HETATM   10  N   UNL     1     -40.571 -46.941  10.518  1.00  0.00    -0.365 N 
HETATM   11  C   UNL     1     -39.833 -45.745  10.833  1.00  0.00     0.149 C 
HETATM   12  H   UNL     1     -40.817 -47.123   9.550  1.00  0.00     0.161 HD
HETATM   13  O   UNL     1     -40.180 -47.901  12.561  1.00  0.00    -0.273 OA
ENDBRANCH   8   9
ENDBRANCH   1   8
BRANCH   5  14
HETATM   14  C   UNL     1     -41.012 -53.791  12.738  1.00  0.00     0.067 C 
HETATM   15  C   UNL     1     -42.453 -53.993  13.239  1.00  0.00     0.017 C 
HETATM   16  C   UNL     1     -42.673 -54.179  14.742  1.00  0.00     0.027 C 
HETATM   17  C   UNL     1     -41.474 -54.536  15.549  1.00  0.00    -0.031 C 
HETATM   18  C   UNL     1     -40.229 -54.575  15.066  1.00  0.00    -0.030 C 
HETATM   19  C   UNL     1     -39.872 -54.272  13.649  1.00  0.00     0.040 C 
ENDBRANCH   5  14
TORSDOF 3
ENDMDL
MODEL 7
REMARK VINA RESULT:      -5.2      1.807      2.253
REMARK  3 active torsions:
REMARK  status: ('A' for Active; 'I' for Inactive)
REMARK       I    between atoms: N_2  and  C_3 
REMARK    1  A    between atoms: C_3  and  C_5 
REMARK    2  A    between atoms: C_5  and  C_6 
REMARK    3  A    between atoms: C_10  and  C_13 
ROOT
HETATM    1  C   UNL     1     -42.319 -50.256  12.139  1.00  0.00     0.112 A 
HETATM    2  N   UNL     1     -41.167 -50.659  11.582  1.00  0.00    -0.247 N 
ATOM      3  HN  UNL     1     -40.447 -50.092  11.136  1.00  0.00     0.196 HD
HETATM    4  O   UNL     1     -41.190 -52.044  11.762  1.00  0.00    -0.222 OA
HETATM    5  C   UNL     1     -42.348 -52.330  12.424  1.00  0.00     0.152 A 
HETATM    6  N   UNL     1     -43.087 -51.267  12.663  1.00  0.00    -0.326 N 
ATOM      7  HN  UNL     1     -43.997 -51.210  13.119  1.00  0.00     0.169 HD
ENDROOT
BRANCH   1   8
HETATM    8  C   UNL     1     -42.712 -48.834  12.247  1.00  0.00     0.181 C 
BRANCH   8   9
HETATM    9  C   UNL     1     -42.534 -48.105  10.934  1.00  0.00     0.224 C 
HETATM   10  N   UNL     1     -43.705 -47.833  10.251  1.00  0.00    -0.365 N 
HETATM   11  C   UNL     1     -43.669 -47.177   8.970  1.00  0.00     0.149 C 
HETATM   12  H   UNL     1     -44.553 -48.318  10.529  1.00  0.00     0.161 HD
HETATM   13  O   UNL     1     -41.436 -47.717  10.544  1.00  0.00    -0.273 OA
ENDBRANCH   8   9
ENDBRANCH   1   8
BRANCH   5  14
HETATM   14  C   UNL     1     -42.619 -53.752  12.789  1.00  0.00     0.067 C 
HETATM   15  C   UNL     1     -44.126 -54.051  12.885  1.00  0.00     0.017 C 
HETATM   16  C   UNL     1     -44.722 -54.308  14.270  1.00  0.00     0.027 C 
HETATM   17  C   UNL     1     -43.758 -54.632  15.357  1.00  0.00    -0.031 C 
HETATM   18  C   UNL     1     -42.430 -54.585  15.222  1.00  0.00    -0.030 C 
HETATM   19  C   UNL     1     -41.732 -54.207  13.958  1.00  0.00     0.040 C 
ENDBRANCH   5  14
TORSDOF 3
ENDMDL
MODEL 8
REMARK VINA RESULT:      -5.0      2.997      5.789
REMARK  3 active torsions:
REMARK  status: ('A' for Active; 'I' for Inactive)
REMARK       I    between atoms: N_2  and  C_3 
REMARK    1  A    between atoms: C_3  and  C_5 
REMARK    2  A    between atoms: C_5  and  C_6 
REMARK    3  A    between atoms: C_10  and  C_13 
ROOT
HETATM    1  C   UNL     1     -41.481 -51.101  11.797  1.00  0.00     0.112 A 
HETATM    2  N   UNL     1     -40.594 -50.433  11.042  1.00  0.00    -0.247 N 
ATOM      3  HN  UNL     1     -39.757 -50.792  10.583  1.00  0.00     0.196 HD
HETATM    4  O   UNL     1     -41.092 -49.128  11.039  1.00  0.00    -0.222 OA
HETATM    5  C   UNL     1     -42.237 -49.149  11.779  1.00  0.00     0.152 A 
HETATM    6  N   UNL     1     -42.510 -50.333  12.283  1.00  0.00    -0.326 N 
ATOM      7  HN  UNL     1     -43.289 -50.610  12.882  1.00  0.00     0.169 HD
ENDROOT
BRANCH   1   8
HETATM    8  C   UNL     1     -41.403 -52.558  12.038  1.00  0.00     0.181 C 
BRANCH   8   9
HETATM    9  C   UNL     1     -40.227 -52.917  12.917  1.00  0.00     0.224 C 
HETATM   10  N   UNL     1     -40.168 -54.243  13.305  1.00  0.00    -0.365 N 
HETATM   11  C   UNL     1     -39.117 -54.703  14.175  1.00  0.00     0.149 C 
HETATM   12  H   UNL     1     -40.996 -54.820  13.188  1.00  0.00     0.161 HD
HETATM   13  O   UNL     1     -39.350 -52.105  13.199  1.00  0.00    -0.273 OA
ENDBRANCH   8   9
ENDBRANCH   1   8
BRANCH   5  14
HETATM   14  C   UNL     1     -43.012 -47.880  11.913  1.00  0.00     0.067 C 
HETATM   15  C   UNL     1     -43.640 -47.438  10.579  1.00  0.00     0.017 C 
HETATM   16  C   UNL     1     -43.066 -46.199   9.888  1.00  0.00     0.027 C 
HETATM   17  C   UNL     1     -42.223 -45.303  10.727  1.00  0.00    -0.031 C 
HETATM   18  C   UNL     1     -41.847 -45.580  11.978  1.00  0.00    -0.030 C 
HETATM   19  C   UNL     1     -42.226 -46.826  12.708  1.00  0.00     0.040 C 
ENDBRANCH   5  14
TORSDOF 3
ENDMDL
MODEL 9
REMARK VINA RESULT:      -5.0      2.471      5.573
REMARK  3 active torsions:
REMARK  status: ('A' for Active; 'I' for Inactive)
REMARK       I    between atoms: N_2  and  C_3 
REMARK    1  A    between atoms: C_3  and  C_5 
REMARK    2  A    between atoms: C_5  and  C_6 
REMARK    3  A    between atoms: C_10  and  C_13 
ROOT
HETATM    1  C   UNL     1     -42.838 -51.734  12.787  1.00  0.00     0.112 A 
HETATM    2  N   UNL     1     -42.494 -52.615  11.835  1.00  0.00    -0.247 N 
ATOM      3  HN  UNL     1     -42.998 -53.447  11.529  1.00  0.00     0.196 HD
HETATM    4  O   UNL     1     -41.277 -52.118  11.362  1.00  0.00    -0.222 OA
HETATM    5  C   UNL     1     -41.022 -50.980  12.068  1.00  0.00     0.152 A 
HETATM    6  N   UNL     1     -41.942 -50.710  12.970  1.00  0.00    -0.326 N 
ATOM      7  HN  UNL     1     -41.980 -49.937  13.635  1.00  0.00     0.169 HD
ENDROOT
BRANCH   1   8
HETATM    8  C   UNL     1     -44.109 -51.813  13.539  1.00  0.00     0.181 C 
BRANCH   8   9
HETATM    9  C   UNL     1     -45.229 -52.367  12.689  1.00  0.00     0.224 C 
HETATM   10  N   UNL     1     -46.074 -51.420  12.140  1.00  0.00    -0.365 N 
HETATM   11  C   UNL     1     -47.202 -51.823  11.341  1.00  0.00     0.149 C 
HETATM   12  H   UNL     1     -46.047 -50.475  12.509  1.00  0.00     0.161 HD
HETATM   13  O   UNL     1     -45.331 -53.567  12.443  1.00  0.00    -0.273 OA
ENDBRANCH   8   9
ENDBRANCH   1   8
BRANCH   5  14
HETATM   14  C   UNL     1     -39.788 -50.207  11.739  1.00  0.00     0.067 C 
HETATM   15  C   UNL     1     -38.553 -50.736  12.490  1.00  0.00     0.017 C 
HETATM   16  C   UNL     1     -37.961 -49.868  13.604  1.00  0.00     0.027 C 
HETATM   17  C   UNL     1     -38.371 -48.437  13.618  1.00  0.00    -0.031 C 
HETATM   18  C   UNL     1     -39.300 -47.914  12.813  1.00  0.00    -0.030 C 
HETATM   19  C   UNL     1     -40.049 -48.694  11.784  1.00  0.00     0.040 C 
ENDBRANCH   5  14
TORSDOF 3
ENDMDL
