MODEL 1
REMARK VINA RESULT:      -5.1      0.000      0.000
REMARK  7 active torsions:
REMARK  status: ('A' for Active; 'I' for Inactive)
REMARK    1  A    between atoms: C_2  and  C_4 
REMARK    2  A    between atoms: C_4  and  N_5 
REMARK       I    between atoms: N_5  and  C_6 
REMARK    3  A    between atoms: C_6  and  C_8 
REMARK    4  A    between atoms: C_8  and  N_10 
REMARK    5  A    between atoms: N_10  and  C_11 
REMARK    6  A    between atoms: C_11  and  C_12 
REMARK    7  A    between atoms: C_12  and  N_13 
ROOT
HETATM    1  C   UNL     1     -41.691 -46.839  10.736  1.00  0.00     0.307 C 
HETATM    2  C   UNL     1     -41.397 -48.335  10.789  1.00  0.00     0.053 C 
ENDROOT
BRANCH   1   3
HETATM    3  C   UNL     1     -42.791 -46.586   9.685  1.00  0.00     0.250 C 
HETATM    4  N   UNL     1     -43.373 -47.738   9.201  1.00  0.00    -0.359 N 
HETATM    5  H   UNL     1     -43.014 -48.638   9.487  1.00  0.00     0.162 HD
HETATM    6  O   UNL     1     -43.114 -45.458   9.324  1.00  0.00    -0.271 OA
BRANCH   4   7
HETATM    7  C   UNL     1     -44.469 -47.709   8.256  1.00  0.00     0.126 C 
BRANCH   7   8
HETATM    8  C   UNL     1     -45.835 -47.912   8.929  1.00  0.00    -0.005 C 
HETATM    9  C   UNL     1     -46.605 -46.594   9.044  1.00  0.00     0.011 C 
HETATM   10  C   UNL     1     -46.657 -48.930   8.138  1.00  0.00     0.011 C 
ENDBRANCH   7   8
ENDBRANCH   4   7
ENDBRANCH   1   3
BRANCH   1  11
HETATM   11  N   UNL     1     -40.453 -46.094  10.406  1.00  0.00     0.098 N 
HETATM   12  H   UNL     1     -40.703 -45.428   9.666  1.00  0.00     0.317 HD
BRANCH  11  13
HETATM   13  C   UNL     1     -39.927 -45.305  11.539  1.00  0.00     0.292 C 
BRANCH  13  14
HETATM   14  C   UNL     1     -41.000 -44.705  12.450  1.00  0.00     0.178 C 
BRANCH  14  15
HETATM   15  N   UNL     1     -41.638 -43.552  11.841  1.00  0.00    -0.302 N 
HETATM   16  C   UNL     1     -41.026 -42.426  11.373  1.00  0.00     0.111 A 
HETATM   17  C   UNL     1     -42.033 -41.608  10.921  1.00  0.00     0.037 A 
HETATM   18  C   UNL     1     -43.217 -42.329  11.165  1.00  0.00     0.108 A 
HETATM   19  N   UNL     1     -42.980 -43.515  11.731  1.00  0.00    -0.310 N 
ATOM     20  HN  UNL     1     -43.655 -44.225  12.013  1.00  0.00     0.186 HD
ENDBRANCH  14  15
ENDBRANCH  13  14
ENDBRANCH  11  13
ENDBRANCH   1  11
TORSDOF 7
ENDMDL
MODEL 2
REMARK VINA RESULT:      -5.0      4.609      5.933
REMARK  7 active torsions:
REMARK  status: ('A' for Active; 'I' for Inactive)
REMARK    1  A    between atoms: C_2  and  C_4 
REMARK    2  A    between atoms: C_4  and  N_5 
REMARK       I    between atoms: N_5  and  C_6 
REMARK    3  A    between atoms: C_6  and  C_8 
REMARK    4  A    between atoms: C_8  and  N_10 
REMARK    5  A    between atoms: N_10  and  C_11 
REMARK    6  A    between atoms: C_11  and  C_12 
REMARK    7  A    between atoms: C_12  and  N_13 
ROOT
HETATM    1  C   UNL     1     -41.262 -51.720  12.722  1.00  0.00     0.307 C 
HETATM    2  C   UNL     1     -40.008 -52.302  13.367  1.00  0.00     0.053 C 
ENDROOT
BRANCH   1   3
HETATM    3  C   UNL     1     -42.397 -52.761  12.817  1.00  0.00     0.250 C 
HETATM    4  N   UNL     1     -43.634 -52.267  12.465  1.00  0.00    -0.359 N 
HETATM    5  H   UNL     1     -43.740 -51.285  12.251  1.00  0.00     0.162 HD
HETATM    6  O   UNL     1     -42.203 -53.921  13.170  1.00  0.00    -0.271 OA
BRANCH   4   7
HETATM    7  C   UNL     1     -44.815 -53.104  12.426  1.00  0.00     0.126 C 
BRANCH   7   8
HETATM    8  C   UNL     1     -46.053 -52.406  13.009  1.00  0.00    -0.005 C 
HETATM    9  C   UNL     1     -45.666 -51.342  14.039  1.00  0.00     0.011 C 
HETATM   10  C   UNL     1     -46.869 -51.771  11.884  1.00  0.00     0.011 C 
ENDBRANCH   7   8
ENDBRANCH   4   7
ENDBRANCH   1   3
BRANCH   1  11
HETATM   11  N   UNL     1     -40.982 -51.359  11.312  1.00  0.00     0.098 N 
HETATM   12  H   UNL     1     -41.893 -51.279  10.847  1.00  0.00     0.317 HD
BRANCH  11  13
HETATM   13  C   UNL     1     -40.305 -50.054  11.168  1.00  0.00     0.292 C 
BRANCH  13  14
HETATM   14  C   UNL     1     -41.014 -48.888  11.862  1.00  0.00     0.178 C 
BRANCH  14  15
HETATM   15  N   UNL     1     -42.048 -48.312  11.022  1.00  0.00    -0.302 N 
HETATM   16  C   UNL     1     -43.272 -47.859  11.419  1.00  0.00     0.111 A 
HETATM   17  C   UNL     1     -43.909 -47.439  10.277  1.00  0.00     0.037 A 
HETATM   18  C   UNL     1     -42.988 -47.686   9.242  1.00  0.00     0.108 A 
HETATM   19  N   UNL     1     -41.852 -48.223   9.693  1.00  0.00    -0.310 N 
ATOM     20  HN  UNL     1     -41.030 -48.501   9.156  1.00  0.00     0.186 HD
ENDBRANCH  14  15
ENDBRANCH  13  14
ENDBRANCH  11  13
ENDBRANCH   1  11
TORSDOF 7
ENDMDL
MODEL 3
REMARK VINA RESULT:      -5.0      4.663      6.200
REMARK  7 active torsions:
REMARK  status: ('A' for Active; 'I' for Inactive)
REMARK    1  A    between atoms: C_2  and  C_4 
REMARK    2  A    between atoms: C_4  and  N_5 
REMARK       I    between atoms: N_5  and  C_6 
REMARK    3  A    between atoms: C_6  and  C_8 
REMARK    4  A    between atoms: C_8  and  N_10 
REMARK    5  A    between atoms: N_10  and  C_11 
REMARK    6  A    between atoms: C_11  and  C_12 
REMARK    7  A    between atoms: C_12  and  N_13 
ROOT
HETATM    1  C   UNL     1     -40.658 -50.882  12.225  1.00  0.00     0.307 C 
HETATM    2  C   UNL     1     -39.255 -51.037  12.804  1.00  0.00     0.053 C 
ENDROOT
BRANCH   1   3
HETATM    3  C   UNL     1     -41.337 -52.266  12.193  1.00  0.00     0.250 C 
HETATM    4  N   UNL     1     -42.698 -52.224  12.409  1.00  0.00    -0.359 N 
HETATM    5  H   UNL     1     -43.141 -51.345  12.642  1.00  0.00     0.162 HD
HETATM    6  O   UNL     1     -40.714 -53.305  11.989  1.00  0.00    -0.271 OA
BRANCH   4   7
HETATM    7  C   UNL     1     -43.525 -53.411  12.354  1.00  0.00     0.126 C 
BRANCH   7   8
HETATM    8  C   UNL     1     -44.015 -53.854  13.740  1.00  0.00    -0.005 C 
HETATM    9  C   UNL     1     -45.272 -54.721  13.640  1.00  0.00     0.011 C 
HETATM   10  C   UNL     1     -42.907 -54.621  14.462  1.00  0.00     0.011 C 
ENDBRANCH   7   8
ENDBRANCH   4   7
ENDBRANCH   1   3
BRANCH   1  11
HETATM   11  N   UNL     1     -40.581 -50.292  10.868  1.00  0.00     0.098 N 
HETATM   12  H   UNL     1     -41.340 -50.716  10.323  1.00  0.00     0.317 HD
BRANCH  11  13
HETATM   13  C   UNL     1     -40.802 -48.831  10.854  1.00  0.00     0.292 C 
BRANCH  13  14
HETATM   14  C   UNL     1     -42.245 -48.402  11.126  1.00  0.00     0.178 C 
BRANCH  14  15
HETATM   15  N   UNL     1     -42.796 -47.641  10.021  1.00  0.00    -0.302 N 
HETATM   16  C   UNL     1     -43.327 -46.385  10.071  1.00  0.00     0.111 A 
HETATM   17  C   UNL     1     -43.746 -46.099   8.794  1.00  0.00     0.037 A 
HETATM   18  C   UNL     1     -43.427 -47.248   8.047  1.00  0.00     0.108 A 
HETATM   19  N   UNL     1     -42.851 -48.194   8.794  1.00  0.00    -0.310 N 
ATOM     20  HN  UNL     1     -42.528 -49.117   8.504  1.00  0.00     0.186 HD
ENDBRANCH  14  15
ENDBRANCH  13  14
ENDBRANCH  11  13
ENDBRANCH   1  11
TORSDOF 7
ENDMDL
MODEL 4
REMARK VINA RESULT:      -4.9      3.005      5.704
REMARK  7 active torsions:
REMARK  status: ('A' for Active; 'I' for Inactive)
REMARK    1  A    between atoms: C_2  and  C_4 
REMARK    2  A    between atoms: C_4  and  N_5 
REMARK       I    between atoms: N_5  and  C_6 
REMARK    3  A    between atoms: C_6  and  C_8 
REMARK    4  A    between atoms: C_8  and  N_10 
REMARK    5  A    between atoms: N_10  and  C_11 
REMARK    6  A    between atoms: C_11  and  C_12 
REMARK    7  A    between atoms: C_12  and  N_13 
ROOT
HETATM    1  C   UNL     1     -41.807 -46.974  11.164  1.00  0.00     0.307 C 
HETATM    2  C   UNL     1     -42.631 -47.683  12.234  1.00  0.00     0.053 C 
ENDROOT
BRANCH   1   3
HETATM    3  C   UNL     1     -42.717 -46.677   9.954  1.00  0.00     0.250 C 
HETATM    4  N   UNL     1     -43.441 -47.767   9.521  1.00  0.00    -0.359 N 
HETATM    5  H   UNL     1     -43.286 -48.671   9.945  1.00  0.00     0.162 HD
HETATM    6  O   UNL     1     -42.786 -45.565   9.436  1.00  0.00    -0.271 OA
BRANCH   4   7
HETATM    7  C   UNL     1     -44.399 -47.676   8.440  1.00  0.00     0.126 C 
BRANCH   7   8
HETATM    8  C   UNL     1     -45.833 -47.981   8.895  1.00  0.00    -0.005 C 
HETATM    9  C   UNL     1     -46.668 -46.704   9.016  1.00  0.00     0.011 C 
HETATM   10  C   UNL     1     -46.496 -48.946   7.910  1.00  0.00     0.011 C 
ENDBRANCH   7   8
ENDBRANCH   4   7
ENDBRANCH   1   3
BRANCH   1  11
HETATM   11  N   UNL     1     -40.655 -47.821  10.772  1.00  0.00     0.098 N 
HETATM   12  H   UNL     1     -39.865 -47.525  11.356  1.00  0.00     0.317 HD
BRANCH  11  13
HETATM   13  C   UNL     1     -40.873 -49.259  11.035  1.00  0.00     0.292 C 
BRANCH  13  14
HETATM   14  C   UNL     1     -39.755 -49.939  11.829  1.00  0.00     0.178 C 
BRANCH  14  15
HETATM   15  N   UNL     1     -40.137 -51.269  12.262  1.00  0.00    -0.302 N 
HETATM   16  C   UNL     1     -39.715 -51.921  13.384  1.00  0.00     0.111 A 
HETATM   17  C   UNL     1     -40.316 -53.157  13.352  1.00  0.00     0.037 A 
HETATM   18  C   UNL     1     -41.077 -53.155  12.169  1.00  0.00     0.108 A 
HETATM   19  N   UNL     1     -40.967 -52.005  11.498  1.00  0.00    -0.310 N 
ATOM     20  HN  UNL     1     -41.406 -51.746  10.615  1.00  0.00     0.186 HD
ENDBRANCH  14  15
ENDBRANCH  13  14
ENDBRANCH  11  13
ENDBRANCH   1  11
TORSDOF 7
ENDMDL
MODEL 5
REMARK VINA RESULT:      -4.9      2.710      6.477
REMARK  7 active torsions:
REMARK  status: ('A' for Active; 'I' for Inactive)
REMARK    1  A    between atoms: C_2  and  C_4 
REMARK    2  A    between atoms: C_4  and  N_5 
REMARK       I    between atoms: N_5  and  C_6 
REMARK    3  A    between atoms: C_6  and  C_8 
REMARK    4  A    between atoms: C_8  and  N_10 
REMARK    5  A    between atoms: N_10  and  C_11 
REMARK    6  A    between atoms: C_11  and  C_12 
REMARK    7  A    between atoms: C_12  and  N_13 
ROOT
HETATM    1  C   UNL     1     -42.605 -47.489   9.966  1.00  0.00     0.307 C 
HETATM    2  C   UNL     1     -43.368 -47.619   8.651  1.00  0.00     0.053 C 
ENDROOT
BRANCH   1   3
HETATM    3  C   UNL     1     -41.946 -46.095  10.021  1.00  0.00     0.250 C 
HETATM    4  N   UNL     1     -40.583 -46.132  10.225  1.00  0.00    -0.359 N 
HETATM    5  H   UNL     1     -40.127 -47.018  10.396  1.00  0.00     0.162 HD
HETATM    6  O   UNL     1     -42.586 -45.055   9.889  1.00  0.00    -0.271 OA
BRANCH   4   7
HETATM    7  C   UNL     1     -39.774 -44.932  10.242  1.00  0.00     0.126 C 
BRANCH   7   8
HETATM    8  C   UNL     1     -39.467 -44.448  11.667  1.00  0.00    -0.005 C 
HETATM    9  C   UNL     1     -40.359 -43.270  12.065  1.00  0.00     0.011 C 
HETATM   10  C   UNL     1     -39.650 -45.599  12.657  1.00  0.00     0.011 C 
ENDBRANCH   7   8
ENDBRANCH   4   7
ENDBRANCH   1   3
BRANCH   1  11
HETATM   11  N   UNL     1     -41.591 -48.566  10.068  1.00  0.00     0.098 N 
HETATM   12  H   UNL     1     -40.694 -48.147   9.797  1.00  0.00     0.317 HD
BRANCH  11  13
HETATM   13  C   UNL     1     -41.429 -49.084  11.442  1.00  0.00     0.292 C 
BRANCH  13  14
HETATM   14  C   UNL     1     -40.871 -50.507  11.525  1.00  0.00     0.178 C 
BRANCH  14  15
HETATM   15  N   UNL     1     -39.444 -50.509  11.785  1.00  0.00    -0.302 N 
HETATM   16  C   UNL     1     -38.813 -50.972  12.902  1.00  0.00     0.111 A 
HETATM   17  C   UNL     1     -37.474 -50.733  12.707  1.00  0.00     0.037 A 
HETATM   18  C   UNL     1     -37.400 -50.119  11.444  1.00  0.00     0.108 A 
HETATM   19  N   UNL     1     -38.602 -49.976  10.879  1.00  0.00    -0.310 N 
ATOM     20  HN  UNL     1     -38.828 -49.561   9.976  1.00  0.00     0.186 HD
ENDBRANCH  14  15
ENDBRANCH  13  14
ENDBRANCH  11  13
ENDBRANCH   1  11
TORSDOF 7
ENDMDL
MODEL 6
REMARK VINA RESULT:      -4.9      4.548      6.219
REMARK  7 active torsions:
REMARK  status: ('A' for Active; 'I' for Inactive)
REMARK    1  A    between atoms: C_2  and  C_4 
REMARK    2  A    between atoms: C_4  and  N_5 
REMARK       I    between atoms: N_5  and  C_6 
REMARK    3  A    between atoms: C_6  and  C_8 
REMARK    4  A    between atoms: C_8  and  N_10 
REMARK    5  A    between atoms: N_10  and  C_11 
REMARK    6  A    between atoms: C_11  and  C_12 
REMARK    7  A    between atoms: C_12  and  N_13 
ROOT
HETATM    1  C   UNL     1     -41.816 -50.444  12.735  1.00  0.00     0.307 C 
HETATM    2  C   UNL     1     -40.771 -51.273  13.476  1.00  0.00     0.053 C 
ENDROOT
BRANCH   1   3
HETATM    3  C   UNL     1     -43.185 -51.143  12.861  1.00  0.00     0.250 C 
HETATM    4  N   UNL     1     -43.187 -52.448  12.415  1.00  0.00    -0.359 N 
HETATM    5  H   UNL     1     -42.358 -52.829  11.981  1.00  0.00     0.162 HD
HETATM    6  O   UNL     1     -44.175 -50.581  13.323  1.00  0.00    -0.271 OA
BRANCH   4   7
HETATM    7  C   UNL     1     -44.358 -53.293  12.510  1.00  0.00     0.126 C 
BRANCH   7   8
HETATM    8  C   UNL     1     -44.438 -54.045  13.846  1.00  0.00    -0.005 C 
HETATM    9  C   UNL     1     -45.445 -55.195  13.785  1.00  0.00     0.011 C 
HETATM   10  C   UNL     1     -43.057 -54.580  14.224  1.00  0.00     0.011 C 
ENDBRANCH   7   8
ENDBRANCH   4   7
ENDBRANCH   1   3
BRANCH   1  11
HETATM   11  N   UNL     1     -41.422 -50.291  11.314  1.00  0.00     0.098 N 
HETATM   12  H   UNL     1     -42.222 -50.609  10.755  1.00  0.00     0.317 HD
BRANCH  11  13
HETATM   13  C   UNL     1     -41.155 -48.890  10.931  1.00  0.00     0.292 C 
BRANCH  13  14
HETATM   14  C   UNL     1     -42.310 -47.923  11.203  1.00  0.00     0.178 C 
BRANCH  14  15
HETATM   15  N   UNL     1     -43.155 -47.755  10.036  1.00  0.00    -0.302 N 
HETATM   16  C   UNL     1     -44.485 -47.453  10.020  1.00  0.00     0.111 A 
HETATM   17  C   UNL     1     -44.853 -47.431   8.697  1.00  0.00     0.037 A 
HETATM   18  C   UNL     1     -43.674 -47.736   7.992  1.00  0.00     0.108 A 
HETATM   19  N   UNL     1     -42.635 -47.939   8.807  1.00  0.00    -0.310 N 
ATOM     20  HN  UNL     1     -41.676 -48.178   8.557  1.00  0.00     0.186 HD
ENDBRANCH  14  15
ENDBRANCH  13  14
ENDBRANCH  11  13
ENDBRANCH   1  11
TORSDOF 7
ENDMDL
MODEL 7
REMARK VINA RESULT:      -4.8      3.469      6.083
REMARK  7 active torsions:
REMARK  status: ('A' for Active; 'I' for Inactive)
REMARK    1  A    between atoms: C_2  and  C_4 
REMARK    2  A    between atoms: C_4  and  N_5 
REMARK       I    between atoms: N_5  and  C_6 
REMARK    3  A    between atoms: C_6  and  C_8 
REMARK    4  A    between atoms: C_8  and  N_10 
REMARK    5  A    between atoms: N_10  and  C_11 
REMARK    6  A    between atoms: C_11  and  C_12 
REMARK    7  A    between atoms: C_12  and  N_13 
ROOT
HETATM    1  C   UNL     1     -41.570 -48.072  11.496  1.00  0.00     0.307 C 
HETATM    2  C   UNL     1     -40.261 -47.309  11.319  1.00  0.00     0.053 C 
ENDROOT
BRANCH   1   3
HETATM    3  C   UNL     1     -41.283 -49.377  12.266  1.00  0.00     0.250 C 
HETATM    4  N   UNL     1     -41.863 -50.494  11.704  1.00  0.00    -0.359 N 
HETATM    5  H   UNL     1     -42.476 -50.392  10.906  1.00  0.00     0.162 HD
HETATM    6  O   UNL     1     -40.596 -49.408  13.284  1.00  0.00    -0.271 OA
BRANCH   4   7
HETATM    7  C   UNL     1     -41.658 -51.822  12.241  1.00  0.00     0.126 C 
BRANCH   7   8
HETATM    8  C   UNL     1     -42.978 -52.544  12.552  1.00  0.00    -0.005 C 
HETATM    9  C   UNL     1     -42.733 -53.924  13.167  1.00  0.00     0.011 C 
HETATM   10  C   UNL     1     -43.823 -51.693  13.500  1.00  0.00     0.011 C 
ENDBRANCH   7   8
ENDBRANCH   4   7
ENDBRANCH   1   3
BRANCH   1  11
HETATM   11  N   UNL     1     -42.173 -48.353  10.172  1.00  0.00     0.098 N 
HETATM   12  H   UNL     1     -42.904 -49.057  10.328  1.00  0.00     0.317 HD
BRANCH  11  13
HETATM   13  C   UNL     1     -42.829 -47.175   9.568  1.00  0.00     0.292 C 
BRANCH  13  14
HETATM   14  C   UNL     1     -43.441 -47.422   8.187  1.00  0.00     0.178 C 
BRANCH  14  15
HETATM   15  N   UNL     1     -44.812 -47.887   8.284  1.00  0.00    -0.302 N 
HETATM   16  C   UNL     1     -45.699 -47.628   9.287  1.00  0.00     0.111 A 
HETATM   17  C   UNL     1     -46.850 -48.303   8.959  1.00  0.00     0.037 A 
HETATM   18  C   UNL     1     -46.554 -48.944   7.742  1.00  0.00     0.108 A 
HETATM   19  N   UNL     1     -45.308 -48.696   7.328  1.00  0.00    -0.310 N 
ATOM     20  HN  UNL     1     -44.844 -49.039   6.488  1.00  0.00     0.186 HD
ENDBRANCH  14  15
ENDBRANCH  13  14
ENDBRANCH  11  13
ENDBRANCH   1  11
TORSDOF 7
ENDMDL
MODEL 8
REMARK VINA RESULT:      -4.8      6.915      8.170
REMARK  7 active torsions:
REMARK  status: ('A' for Active; 'I' for Inactive)
REMARK    1  A    between atoms: C_2  and  C_4 
REMARK    2  A    between atoms: C_4  and  N_5 
REMARK       I    between atoms: N_5  and  C_6 
REMARK    3  A    between atoms: C_6  and  C_8 
REMARK    4  A    between atoms: C_8  and  N_10 
REMARK    5  A    between atoms: N_10  and  C_11 
REMARK    6  A    between atoms: C_11  and  C_12 
REMARK    7  A    between atoms: C_12  and  N_13 
ROOT
HETATM    1  C   UNL     1     -42.379 -53.580  13.701  1.00  0.00     0.307 C 
HETATM    2  C   UNL     1     -41.917 -54.596  14.741  1.00  0.00     0.053 C 
ENDROOT
BRANCH   1   3
HETATM    3  C   UNL     1     -43.885 -53.788  13.439  1.00  0.00     0.250 C 
HETATM    4  N   UNL     1     -44.684 -53.485  14.521  1.00  0.00    -0.359 N 
HETATM    5  H   UNL     1     -44.260 -53.233  15.402  1.00  0.00     0.162 HD
HETATM    6  O   UNL     1     -44.321 -54.183  12.361  1.00  0.00    -0.271 OA
BRANCH   4   7
HETATM    7  C   UNL     1     -46.129 -53.553  14.454  1.00  0.00     0.126 C 
BRANCH   7   8
HETATM    8  C   UNL     1     -46.786 -52.166  14.442  1.00  0.00    -0.005 C 
HETATM    9  C   UNL     1     -46.176 -51.245  15.502  1.00  0.00     0.011 C 
HETATM   10  C   UNL     1     -46.641 -51.535  13.057  1.00  0.00     0.011 C 
ENDBRANCH   7   8
ENDBRANCH   4   7
ENDBRANCH   1   3
BRANCH   1  11
HETATM   11  N   UNL     1     -41.592 -53.741  12.455  1.00  0.00     0.098 N 
HETATM   12  H   UNL     1     -42.179 -54.278  11.808  1.00  0.00     0.317 HD
BRANCH  11  13
HETATM   13  C   UNL     1     -41.280 -52.457  11.794  1.00  0.00     0.292 C 
BRANCH  13  14
HETATM   14  C   UNL     1     -40.797 -51.353  12.738  1.00  0.00     0.178 C 
BRANCH  14  15
HETATM   15  N   UNL     1     -39.381 -51.085  12.569  1.00  0.00    -0.302 N 
HETATM   16  C   UNL     1     -38.377 -51.396  13.438  1.00  0.00     0.111 A 
HETATM   17  C   UNL     1     -37.221 -50.919  12.868  1.00  0.00     0.037 A 
HETATM   18  C   UNL     1     -37.635 -50.333  11.657  1.00  0.00     0.108 A 
HETATM   19  N   UNL     1     -38.955 -50.429  11.473  1.00  0.00    -0.310 N 
ATOM     20  HN  UNL     1     -39.508 -50.085  10.688  1.00  0.00     0.186 HD
ENDBRANCH  14  15
ENDBRANCH  13  14
ENDBRANCH  11  13
ENDBRANCH   1  11
TORSDOF 7
ENDMDL
MODEL 9
REMARK VINA RESULT:      -4.7      4.112      5.224
REMARK  7 active torsions:
REMARK  status: ('A' for Active; 'I' for Inactive)
REMARK    1  A    between atoms: C_2  and  C_4 
REMARK    2  A    between atoms: C_4  and  N_5 
REMARK       I    between atoms: N_5  and  C_6 
REMARK    3  A    between atoms: C_6  and  C_8 
REMARK    4  A    between atoms: C_8  and  N_10 
REMARK    5  A    between atoms: N_10  and  C_11 
REMARK    6  A    between atoms: C_11  and  C_12 
REMARK    7  A    between atoms: C_12  and  N_13 
ROOT
HETATM    1  C   UNL     1     -40.803 -51.521  12.394  1.00  0.00     0.307 C 
HETATM    2  C   UNL     1     -41.026 -53.017  12.195  1.00  0.00     0.053 C 
ENDROOT
BRANCH   1   3
HETATM    3  C   UNL     1     -41.912 -50.974  13.316  1.00  0.00     0.250 C 
HETATM    4  N   UNL     1     -43.183 -51.109  12.798  1.00  0.00    -0.359 N 
HETATM    5  H   UNL     1     -43.306 -51.467  11.861  1.00  0.00     0.162 HD
HETATM    6  O   UNL     1     -41.674 -50.470  14.411  1.00  0.00    -0.271 OA
BRANCH   4   7
HETATM    7  C   UNL     1     -44.362 -50.715  13.539  1.00  0.00     0.126 C 
BRANCH   7   8
HETATM    8  C   UNL     1     -45.624 -51.461  13.081  1.00  0.00    -0.005 C 
HETATM    9  C   UNL     1     -45.303 -52.892  12.642  1.00  0.00     0.011 C 
HETATM   10  C   UNL     1     -46.654 -51.481  14.211  1.00  0.00     0.011 C 
ENDBRANCH   7   8
ENDBRANCH   4   7
ENDBRANCH   1   3
BRANCH   1  11
HETATM   11  N   UNL     1     -40.808 -50.831  11.082  1.00  0.00     0.098 N 
HETATM   12  H   UNL     1     -41.766 -50.902  10.721  1.00  0.00     0.317 HD
BRANCH  11  13
HETATM   13  C   UNL     1     -40.487 -49.393  11.179  1.00  0.00     0.292 C 
BRANCH  13  14
HETATM   14  C   UNL     1     -41.620 -48.456  10.751  1.00  0.00     0.178 C 
BRANCH  14  15
HETATM   15  N   UNL     1     -41.195 -47.069  10.744  1.00  0.00    -0.302 N 
HETATM   16  C   UNL     1     -41.991 -45.965  10.844  1.00  0.00     0.111 A 
HETATM   17  C   UNL     1     -41.149 -44.883  10.757  1.00  0.00     0.037 A 
HETATM   18  C   UNL     1     -39.866 -45.438  10.603  1.00  0.00     0.108 A 
HETATM   19  N   UNL     1     -39.890 -46.774  10.590  1.00  0.00    -0.310 N 
ATOM     20  HN  UNL     1     -39.105 -47.417  10.487  1.00  0.00     0.186 HD
ENDBRANCH  14  15
ENDBRANCH  13  14
ENDBRANCH  11  13
ENDBRANCH   1  11
TORSDOF 7
ENDMDL
