MODEL 1
REMARK VINA RESULT:      -5.7      0.000      0.000
REMARK  2 active torsions:
REMARK  status: ('A' for Active; 'I' for Inactive)
REMARK    1  A    between atoms: C_8  and  N_9 
REMARK       I    between atoms: N_9  and  C_10 
REMARK       I    between atoms: C_10  and  N_12 
REMARK    2  A    between atoms: N_12  and  C_13 
ROOT
HETATM    1  N   UNL     1     -42.014 -49.569  11.345  1.00  0.00    -0.306 N 
HETATM    2  C   UNL     1     -42.678 -49.936  12.493  1.00  0.00     0.321 C 
HETATM    3  O   UNL     1     -42.986 -49.181  13.406  1.00  0.00    -0.247 OA
HETATM    4  N   UNL     1     -43.012 -51.271  12.512  1.00  0.00    -0.335 N 
HETATM    5  H   UNL     1     -41.632 -50.302  10.764  1.00  0.00     0.171 HD
HETATM    6  H   UNL     1     -42.511 -51.917  11.921  1.00  0.00     0.164 HD
ENDROOT
BRANCH   1   7
HETATM    7  C   UNL     1     -41.646 -48.243  11.004  1.00  0.00     0.077 A 
HETATM    8  C   UNL     1     -42.563 -47.454  10.312  1.00  0.00     0.158 A 
HETATM    9  F   UNL     1     -43.769 -47.939   9.980  1.00  0.00    -0.202 F 
HETATM   10  C   UNL     1     -42.203 -46.167   9.943  1.00  0.00     0.132 A 
HETATM   11  N   UNL     1     -41.007 -45.609  10.237  1.00  0.00    -0.372 N 
HETATM   12  C   UNL     1     -40.142 -46.380  10.932  1.00  0.00     0.090 A 
ATOM     13  HN  UNL     1     -40.771 -44.659   9.950  1.00  0.00     0.164 HD
HETATM   14  C   UNL     1     -40.414 -47.679  11.334  1.00  0.00     0.050 A 
ENDBRANCH   1   7
BRANCH   4  15
HETATM   15  C   UNL     1     -43.716 -51.814  13.661  1.00  0.00     0.109 C 
HETATM   16  C   UNL     1     -42.958 -52.995  14.284  1.00  0.00     0.029 C 
HETATM   17  C   UNL     1     -43.555 -54.398  14.146  1.00  0.00     0.006 C 
HETATM   18  C   UNL     1     -44.951 -54.553  13.541  1.00  0.00     0.027 C 
HETATM   19  C   UNL     1     -45.669 -53.301  13.178  1.00  0.00    -0.029 C 
HETATM   20  C   UNL     1     -45.113 -52.087  13.219  1.00  0.00    -0.006 C 
ENDBRANCH   4  15
TORSDOF 2
ENDMDL
MODEL 2
REMARK VINA RESULT:      -5.7      2.385      7.014
REMARK  2 active torsions:
REMARK  status: ('A' for Active; 'I' for Inactive)
REMARK    1  A    between atoms: C_8  and  N_9 
REMARK       I    between atoms: N_9  and  C_10 
REMARK       I    between atoms: C_10  and  N_12 
REMARK    2  A    between atoms: N_12  and  C_13 
ROOT
HETATM    1  N   UNL     1     -44.649 -51.450  12.598  1.00  0.00    -0.306 N 
HETATM    2  C   UNL     1     -43.862 -50.519  13.236  1.00  0.00     0.321 C 
HETATM    3  O   UNL     1     -43.643 -50.482  14.440  1.00  0.00    -0.247 OA
HETATM    4  N   UNL     1     -43.289 -49.618  12.367  1.00  0.00    -0.335 N 
HETATM    5  H   UNL     1     -44.924 -51.262  11.644  1.00  0.00     0.171 HD
HETATM    6  H   UNL     1     -43.697 -49.479  11.456  1.00  0.00     0.164 HD
ENDROOT
BRANCH   1   7
HETATM    7  C   UNL     1     -45.273 -52.558  13.224  1.00  0.00     0.077 A 
HETATM    8  C   UNL     1     -46.443 -52.342  13.950  1.00  0.00     0.158 A 
HETATM    9  F   UNL     1     -46.968 -51.111  14.050  1.00  0.00    -0.202 F 
HETATM   10  C   UNL     1     -47.044 -53.411  14.595  1.00  0.00     0.132 A 
HETATM   11  N   UNL     1     -46.574 -54.678  14.546  1.00  0.00    -0.372 N 
HETATM   12  C   UNL     1     -45.454 -54.872  13.815  1.00  0.00     0.090 A 
ATOM     13  HN  UNL     1     -47.038 -55.444  15.033  1.00  0.00     0.164 HD
HETATM   14  C   UNL     1     -44.783 -53.860  13.145  1.00  0.00     0.050 A 
ENDBRANCH   1   7
BRANCH   4  15
HETATM   15  C   UNL     1     -42.431 -48.570  12.889  1.00  0.00     0.109 C 
HETATM   16  C   UNL     1     -42.960 -47.174  12.534  1.00  0.00     0.029 C 
HETATM   17  C   UNL     1     -42.179 -46.333  11.520  1.00  0.00     0.006 C 
HETATM   18  C   UNL     1     -40.824 -46.841  11.025  1.00  0.00     0.027 C 
HETATM   19  C   UNL     1     -40.324 -48.110  11.620  1.00  0.00    -0.029 C 
HETATM   20  C   UNL     1     -41.046 -48.883  12.437  1.00  0.00    -0.006 C 
ENDBRANCH   4  15
TORSDOF 2
ENDMDL
MODEL 3
REMARK VINA RESULT:      -5.6      2.844      6.676
REMARK  2 active torsions:
REMARK  status: ('A' for Active; 'I' for Inactive)
REMARK    1  A    between atoms: C_8  and  N_9 
REMARK       I    between atoms: N_9  and  C_10 
REMARK       I    between atoms: C_10  and  N_12 
REMARK    2  A    between atoms: N_12  and  C_13 
ROOT
HETATM    1  N   UNL     1     -43.135 -52.327  12.299  1.00  0.00    -0.306 N 
HETATM    2  C   UNL     1     -42.249 -51.529  12.986  1.00  0.00     0.321 C 
HETATM    3  O   UNL     1     -42.353 -51.202  14.161  1.00  0.00    -0.247 OA
HETATM    4  N   UNL     1     -41.173 -51.143  12.219  1.00  0.00    -0.335 N 
HETATM    5  H   UNL     1     -43.061 -52.358  11.292  1.00  0.00     0.171 HD
HETATM    6  H   UNL     1     -41.247 -51.166  11.214  1.00  0.00     0.164 HD
ENDROOT
BRANCH   1   7
HETATM    7  C   UNL     1     -44.272 -52.958  12.864  1.00  0.00     0.077 A 
HETATM    8  C   UNL     1     -45.413 -52.192  13.097  1.00  0.00     0.158 A 
HETATM    9  F   UNL     1     -45.435 -50.886  12.789  1.00  0.00    -0.202 F 
HETATM   10  C   UNL     1     -46.519 -52.790  13.681  1.00  0.00     0.132 A 
HETATM   11  N   UNL     1     -46.573 -54.097  14.023  1.00  0.00    -0.372 N 
HETATM   12  C   UNL     1     -45.467 -54.829  13.764  1.00  0.00     0.090 A 
ATOM     13  HN  UNL     1     -47.402 -54.507  14.453  1.00  0.00     0.164 HD
HETATM   14  C   UNL     1     -44.314 -54.312  13.192  1.00  0.00     0.050 A 
ENDBRANCH   1   7
BRANCH   4  15
HETATM   15  C   UNL     1     -40.149 -50.294  12.802  1.00  0.00     0.109 C 
HETATM   16  C   UNL     1     -39.473 -49.412  11.743  1.00  0.00     0.029 C 
HETATM   17  C   UNL     1     -38.018 -49.707  11.370  1.00  0.00     0.006 C 
HETATM   18  C   UNL     1     -37.245 -50.753  12.173  1.00  0.00     0.027 C 
HETATM   19  C   UNL     1     -37.956 -51.380  13.320  1.00  0.00    -0.029 C 
HETATM   20  C   UNL     1     -39.250 -51.185  13.589  1.00  0.00    -0.006 C 
ENDBRANCH   4  15
TORSDOF 2
ENDMDL
MODEL 4
REMARK VINA RESULT:      -5.6      1.139      1.608
REMARK  2 active torsions:
REMARK  status: ('A' for Active; 'I' for Inactive)
REMARK    1  A    between atoms: C_8  and  N_9 
REMARK       I    between atoms: N_9  and  C_10 
REMARK       I    between atoms: C_10  and  N_12 
REMARK    2  A    between atoms: N_12  and  C_13 
ROOT
HETATM    1  N   UNL     1     -41.989 -49.660  11.373  1.00  0.00    -0.306 N 
HETATM    2  C   UNL     1     -42.713 -50.008  12.491  1.00  0.00     0.321 C 
HETATM    3  O   UNL     1     -43.173 -49.223  13.309  1.00  0.00    -0.247 OA
HETATM    4  N   UNL     1     -42.915 -51.366  12.595  1.00  0.00    -0.335 N 
HETATM    5  H   UNL     1     -41.487 -50.391  10.889  1.00  0.00     0.171 HD
HETATM    6  H   UNL     1     -42.303 -51.997  12.102  1.00  0.00     0.164 HD
ENDROOT
BRANCH   1   7
HETATM    7  C   UNL     1     -41.724 -48.332  10.953  1.00  0.00     0.077 A 
HETATM    8  C   UNL     1     -40.506 -47.752  11.304  1.00  0.00     0.158 A 
HETATM    9  F   UNL     1     -39.603 -48.439  12.020  1.00  0.00    -0.202 F 
HETATM   10  C   UNL     1     -40.249 -46.444  10.928  1.00  0.00     0.132 A 
HETATM   11  N   UNL     1     -41.109 -45.686  10.210  1.00  0.00    -0.372 N 
HETATM   12  C   UNL     1     -42.273 -46.275   9.857  1.00  0.00     0.090 A 
ATOM     13  HN  UNL     1     -40.892 -44.724   9.950  1.00  0.00     0.164 HD
HETATM   14  C   UNL     1     -42.617 -47.575  10.197  1.00  0.00     0.050 A 
ENDBRANCH   1   7
BRANCH   4  15
HETATM   15  C   UNL     1     -43.661 -51.892  13.724  1.00  0.00     0.109 C 
HETATM   16  C   UNL     1     -42.939 -53.077  14.379  1.00  0.00     0.029 C 
HETATM   17  C   UNL     1     -43.549 -54.474  14.230  1.00  0.00     0.006 C 
HETATM   18  C   UNL     1     -44.927 -54.616  13.584  1.00  0.00     0.027 C 
HETATM   19  C   UNL     1     -45.617 -53.357  13.190  1.00  0.00    -0.029 C 
HETATM   20  C   UNL     1     -45.047 -52.150  13.241  1.00  0.00    -0.006 C 
ENDBRANCH   4  15
TORSDOF 2
ENDMDL
MODEL 5
REMARK VINA RESULT:      -5.5      2.068      2.832
REMARK  2 active torsions:
REMARK  status: ('A' for Active; 'I' for Inactive)
REMARK    1  A    between atoms: C_8  and  N_9 
REMARK       I    between atoms: N_9  and  C_10 
REMARK       I    between atoms: C_10  and  N_12 
REMARK    2  A    between atoms: N_12  and  C_13 
ROOT
HETATM    1  N   UNL     1     -42.263 -48.698  10.520  1.00  0.00    -0.306 N 
HETATM    2  C   UNL     1     -42.426 -49.283  11.755  1.00  0.00     0.321 C 
HETATM    3  O   UNL     1     -43.077 -48.815  12.680  1.00  0.00    -0.247 OA
HETATM    4  N   UNL     1     -41.801 -50.506  11.853  1.00  0.00    -0.335 N 
HETATM    5  H   UNL     1     -41.544 -49.067   9.913  1.00  0.00     0.171 HD
HETATM    6  H   UNL     1     -41.051 -50.732  11.219  1.00  0.00     0.164 HD
ENDROOT
BRANCH   1   7
HETATM    7  C   UNL     1     -42.884 -47.495  10.098  1.00  0.00     0.077 A 
HETATM    8  C   UNL     1     -42.333 -46.282  10.508  1.00  0.00     0.158 A 
HETATM    9  F   UNL     1     -41.237 -46.255  11.281  1.00  0.00    -0.202 F 
HETATM   10  C   UNL     1     -42.950 -45.100  10.130  1.00  0.00     0.132 A 
HETATM   11  N   UNL     1     -44.058 -45.045   9.357  1.00  0.00    -0.372 N 
HETATM   12  C   UNL     1     -44.560 -46.230   8.947  1.00  0.00     0.090 A 
ATOM     13  HN  UNL     1     -44.490 -44.158   9.097  1.00  0.00     0.164 HD
HETATM   14  C   UNL     1     -44.014 -47.460   9.284  1.00  0.00     0.050 A 
ENDBRANCH   1   7
BRANCH   4  15
HETATM   15  C   UNL     1     -41.879 -51.248  13.099  1.00  0.00     0.109 C 
HETATM   16  C   UNL     1     -40.487 -51.512  13.690  1.00  0.00     0.029 C 
HETATM   17  C   UNL     1     -39.954 -52.947  13.688  1.00  0.00     0.006 C 
HETATM   18  C   UNL     1     -40.882 -54.081  13.252  1.00  0.00     0.027 C 
HETATM   19  C   UNL     1     -42.282 -53.710  12.911  1.00  0.00    -0.029 C 
HETATM   20  C   UNL     1     -42.719 -52.450  12.830  1.00  0.00    -0.006 C 
ENDBRANCH   4  15
TORSDOF 2
ENDMDL
MODEL 6
REMARK VINA RESULT:      -5.1      1.976      6.885
REMARK  2 active torsions:
REMARK  status: ('A' for Active; 'I' for Inactive)
REMARK    1  A    between atoms: C_8  and  N_9 
REMARK       I    between atoms: N_9  and  C_10 
REMARK       I    between atoms: C_10  and  N_12 
REMARK    2  A    between atoms: N_12  and  C_13 
ROOT
HETATM    1  N   UNL     1     -42.852 -51.826  12.285  1.00  0.00    -0.306 N 
HETATM    2  C   UNL     1     -42.993 -50.524  12.711  1.00  0.00     0.321 C 
HETATM    3  O   UNL     1     -43.542 -50.174  13.747  1.00  0.00    -0.247 OA
HETATM    4  N   UNL     1     -42.411 -49.617  11.856  1.00  0.00    -0.335 N 
HETATM    5  H   UNL     1     -42.572 -51.982  11.327  1.00  0.00     0.171 HD
HETATM    6  H   UNL     1     -42.235 -49.879  10.898  1.00  0.00     0.164 HD
ENDROOT
BRANCH   1   7
HETATM    7  C   UNL     1     -43.254 -52.972  13.016  1.00  0.00     0.077 A 
HETATM    8  C   UNL     1     -44.545 -53.464  12.828  1.00  0.00     0.158 A 
HETATM    9  F   UNL     1     -45.386 -52.866  11.970  1.00  0.00    -0.202 F 
HETATM   10  C   UNL     1     -44.961 -54.563  13.562  1.00  0.00     0.132 A 
HETATM   11  N   UNL     1     -44.175 -55.216  14.447  1.00  0.00    -0.372 N 
HETATM   12  C   UNL     1     -42.919 -54.741  14.595  1.00  0.00     0.090 A 
ATOM     13  HN  UNL     1     -44.512 -56.023  14.973  1.00  0.00     0.164 HD
HETATM   14  C   UNL     1     -42.421 -53.643  13.910  1.00  0.00     0.050 A 
ENDBRANCH   1   7
BRANCH   4  15
HETATM   15  C   UNL     1     -42.478 -48.200  12.166  1.00  0.00     0.109 C 
HETATM   16  C   UNL     1     -43.358 -47.440  11.164  1.00  0.00     0.029 C 
HETATM   17  C   UNL     1     -42.682 -46.473  10.187  1.00  0.00     0.006 C 
HETATM   18  C   UNL     1     -41.191 -46.176  10.352  1.00  0.00     0.027 C 
HETATM   19  C   UNL     1     -40.502 -46.814  11.507  1.00  0.00    -0.029 C 
HETATM   20  C   UNL     1     -41.072 -47.723  12.303  1.00  0.00    -0.006 C 
ENDBRANCH   4  15
TORSDOF 2
ENDMDL
MODEL 7
REMARK VINA RESULT:      -5.0      2.971      3.758
REMARK  2 active torsions:
REMARK  status: ('A' for Active; 'I' for Inactive)
REMARK    1  A    between atoms: C_8  and  N_9 
REMARK       I    between atoms: N_9  and  C_10 
REMARK       I    between atoms: C_10  and  N_12 
REMARK    2  A    between atoms: N_12  and  C_13 
ROOT
HETATM    1  N   UNL     1     -41.132 -50.649  13.496  1.00  0.00    -0.306 N 
HETATM    2  C   UNL     1     -42.123 -51.490  13.042  1.00  0.00     0.321 C 
HETATM    3  O   UNL     1     -42.027 -52.248  12.086  1.00  0.00    -0.247 OA
HETATM    4  N   UNL     1     -43.265 -51.430  13.808  1.00  0.00    -0.335 N 
HETATM    5  H   UNL     1     -41.390 -49.927  14.154  1.00  0.00     0.171 HD
HETATM    6  H   UNL     1     -43.435 -50.621  14.384  1.00  0.00     0.164 HD
ENDROOT
BRANCH   1   7
HETATM    7  C   UNL     1     -39.817 -50.581  12.972  1.00  0.00     0.077 A 
HETATM    8  C   UNL     1     -39.575 -49.743  11.884  1.00  0.00     0.158 A 
HETATM    9  F   UNL     1     -40.566 -49.015  11.349  1.00  0.00    -0.202 F 
HETATM   10  C   UNL     1     -38.301 -49.694  11.342  1.00  0.00     0.132 A 
HETATM   11  N   UNL     1     -37.252 -50.400  11.821  1.00  0.00    -0.372 N 
HETATM   12  C   UNL     1     -37.501 -51.186  12.893  1.00  0.00     0.090 A 
ATOM     13  HN  UNL     1     -36.325 -50.343  11.399  1.00  0.00     0.164 HD
HETATM   14  C   UNL     1     -38.745 -51.303  13.494  1.00  0.00     0.050 A 
ENDBRANCH   1   7
BRANCH   4  15
HETATM   15  C   UNL     1     -44.405 -52.259  13.455  1.00  0.00     0.109 C 
HETATM   16  C   UNL     1     -45.642 -51.412  13.126  1.00  0.00     0.029 C 
HETATM   17  C   UNL     1     -46.823 -51.437  14.101  1.00  0.00     0.006 C 
HETATM   18  C   UNL     1     -46.797 -52.420  15.271  1.00  0.00     0.027 C 
HETATM   19  C   UNL     1     -45.631 -53.342  15.348  1.00  0.00    -0.029 C 
HETATM   20  C   UNL     1     -44.563 -53.259  14.549  1.00  0.00    -0.006 C 
ENDBRANCH   4  15
TORSDOF 2
ENDMDL
MODEL 8
REMARK VINA RESULT:      -5.0      5.142      6.237
REMARK  2 active torsions:
REMARK  status: ('A' for Active; 'I' for Inactive)
REMARK    1  A    between atoms: C_8  and  N_9 
REMARK       I    between atoms: N_9  and  C_10 
REMARK       I    between atoms: C_10  and  N_12 
REMARK    2  A    between atoms: N_12  and  C_13 
ROOT
HETATM    1  N   UNL     1     -39.031 -52.058  14.343  1.00  0.00    -0.306 N 
HETATM    2  C   UNL     1     -39.123 -53.431  14.374  1.00  0.00     0.321 C 
HETATM    3  O   UNL     1     -39.329 -54.149  13.404  1.00  0.00    -0.247 OA
HETATM    4  N   UNL     1     -38.918 -53.952  15.631  1.00  0.00    -0.335 N 
HETATM    5  H   UNL     1     -39.066 -51.563  15.223  1.00  0.00     0.171 HD
HETATM    6  H   UNL     1     -39.043 -53.363  16.439  1.00  0.00     0.164 HD
ENDROOT
BRANCH   1   7
HETATM    7  C   UNL     1     -39.088 -51.262  13.172  1.00  0.00     0.077 A 
HETATM    8  C   UNL     1     -37.892 -50.840  12.593  1.00  0.00     0.158 A 
HETATM    9  F   UNL     1     -36.713 -51.184  13.133  1.00  0.00    -0.202 F 
HETATM   10  C   UNL     1     -37.935 -50.034  11.467  1.00  0.00     0.132 A 
HETATM   11  N   UNL     1     -39.082 -49.641  10.868  1.00  0.00    -0.372 N 
HETATM   12  C   UNL     1     -40.230 -50.083  11.427  1.00  0.00     0.090 A 
ATOM     13  HN  UNL     1     -39.081 -49.046  10.040  1.00  0.00     0.164 HD
HETATM   14  C   UNL     1     -40.281 -50.885  12.558  1.00  0.00     0.050 A 
ENDBRANCH   1   7
BRANCH   4  15
HETATM   15  C   UNL     1     -38.985 -55.390  15.827  1.00  0.00     0.109 C 
HETATM   16  C   UNL     1     -40.311 -55.812  16.474  1.00  0.00     0.029 C 
HETATM   17  C   UNL     1     -40.287 -56.328  17.916  1.00  0.00     0.006 C 
HETATM   18  C   UNL     1     -38.938 -56.556  18.598  1.00  0.00     0.027 C 
HETATM   19  C   UNL     1     -37.720 -56.314  17.778  1.00  0.00    -0.029 C 
HETATM   20  C   UNL     1     -37.743 -55.783  16.552  1.00  0.00    -0.006 C 
ENDBRANCH   4  15
TORSDOF 2
ENDMDL
MODEL 9
REMARK VINA RESULT:      -5.0     13.701     14.504
REMARK  2 active torsions:
REMARK  status: ('A' for Active; 'I' for Inactive)
REMARK    1  A    between atoms: C_8  and  N_9 
REMARK       I    between atoms: N_9  and  C_10 
REMARK       I    between atoms: C_10  and  N_12 
REMARK    2  A    between atoms: N_12  and  C_13 
ROOT
HETATM    1  N   UNL     1     -50.663 -48.810  -0.009  1.00  0.00    -0.306 N 
HETATM    2  C   UNL     1     -50.328 -50.082   0.397  1.00  0.00     0.321 C 
HETATM    3  O   UNL     1     -49.899 -50.382   1.503  1.00  0.00    -0.247 OA
HETATM    4  N   UNL     1     -50.560 -51.030  -0.573  1.00  0.00    -0.335 N 
HETATM    5  H   UNL     1     -50.806 -48.651  -0.997  1.00  0.00     0.171 HD
HETATM    6  H   UNL     1     -50.624 -50.747  -1.539  1.00  0.00     0.164 HD
ENDROOT
BRANCH   1   7
HETATM    7  C   UNL     1     -50.635 -47.656   0.814  1.00  0.00     0.077 A 
HETATM    8  C   UNL     1     -51.804 -47.278   1.472  1.00  0.00     0.158 A 
HETATM    9  F   UNL     1     -52.930 -47.993   1.331  1.00  0.00    -0.202 F 
HETATM   10  C   UNL     1     -51.797 -46.133   2.253  1.00  0.00     0.132 A 
HETATM   11  N   UNL     1     -50.705 -45.358   2.441  1.00  0.00    -0.372 N 
HETATM   12  C   UNL     1     -49.575 -45.757   1.817  1.00  0.00     0.090 A 
ATOM     13  HN  UNL     1     -50.733 -44.519   3.022  1.00  0.00     0.164 HD
HETATM   14  C   UNL     1     -49.492 -46.882   1.010  1.00  0.00     0.050 A 
ENDBRANCH   1   7
BRANCH   4  15
HETATM   15  C   UNL     1     -50.253 -52.423  -0.297  1.00  0.00     0.109 C 
HETATM   16  C   UNL     1     -48.898 -52.833  -0.889  1.00  0.00     0.029 C 
HETATM   17  C   UNL     1     -48.883 -53.800  -2.076  1.00  0.00     0.006 C 
HETATM   18  C   UNL     1     -50.196 -54.444  -2.523  1.00  0.00     0.027 C 
HETATM   19  C   UNL     1     -51.407 -54.127  -1.719  1.00  0.00    -0.029 C 
HETATM   20  C   UNL     1     -51.433 -53.218  -0.740  1.00  0.00    -0.006 C 
ENDBRANCH   4  15
TORSDOF 2
ENDMDL
