MODEL 1
REMARK VINA RESULT:      -6.7      0.000      0.000
REMARK  6 active torsions:
REMARK  status: ('A' for Active; 'I' for Inactive)
REMARK    1  A    between atoms: N_2  and  C_9 
REMARK    2  A    between atoms: N_3  and  C_4 
REMARK    3  A    between atoms: C_18  and  C_24 
REMARK    4  A    between atoms: C_18  and  C_25 
REMARK    5  A    between atoms: C_24  and  O_28 
REMARK    6  A    between atoms: C_25  and  O_27 
ROOT
HETATM    1  C   UNL     1     -42.245 -49.060  12.131  1.00  0.00     0.117 A 
HETATM    2  N   UNL     1     -42.804 -50.976  13.020  1.00  0.00    -0.322 N 
HETATM    3  C   UNL     1     -41.423 -48.170  11.400  1.00  0.00     0.115 A 
HETATM    4  C   UNL     1     -41.856 -50.398  12.208  1.00  0.00     0.140 A 
HETATM    5  N   UNL     1     -43.404 -48.835  12.846  1.00  0.00    -0.346 N 
ATOM      6  HN  UNL     1     -43.911 -47.956  12.951  1.00  0.00     0.167 HD
HETATM    7  C   UNL     1     -43.707 -50.004  13.361  1.00  0.00     0.185 A 
HETATM    8  N   UNL     1     -40.774 -50.950  11.633  1.00  0.00    -0.336 N 
ATOM      9  HN  UNL     1     -40.511 -51.933  11.716  1.00  0.00     0.168 HD
HETATM   10  N   UNL     1     -40.337 -48.704  10.781  1.00  0.00    -0.341 N 
ATOM     11  HN  UNL     1     -39.725 -48.119  10.213  1.00  0.00     0.167 HD
HETATM   12  C   UNL     1     -40.081 -50.026  10.930  1.00  0.00     0.183 A 
ENDROOT
BRANCH   3  13
HETATM   13  N   UNL     1     -41.680 -46.795  11.388  1.00  0.00    -0.252 NA
HETATM   14  C   UNL     1     -40.617 -45.856  11.801  1.00  0.00     0.088 C 
HETATM   15  C   UNL     1     -41.314 -44.475  12.020  1.00  0.00     0.102 C 
HETATM   16  C   UNL     1     -39.932 -46.261  13.120  1.00  0.00     0.022 C 
HETATM   17  N   UNL     1     -42.032 -44.025  10.837  1.00  0.00    -0.354 N 
HETATM   18  C   UNL     1     -40.334 -43.405  12.500  1.00  0.00     0.027 C 
HETATM   19  C   UNL     1     -42.798 -44.915  10.120  1.00  0.00     0.231 C 
HETATM   20  H   UNL     1     -42.435 -43.096  10.842  1.00  0.00     0.162 HD
HETATM   21  C   UNL     1     -42.378 -46.396  10.137  1.00  0.00     0.200 C 
HETATM   22  O   UNL     1     -43.714 -44.490   9.416  1.00  0.00    -0.272 OA
HETATM   23  C   UNL     1     -39.637 -43.843  13.783  1.00  0.00     0.002 C 
HETATM   24  C   UNL     1     -38.955 -45.191  13.605  1.00  0.00     0.002 C 
ENDBRANCH   3  13
BRANCH   2  25
HETATM   25  C   UNL     1     -42.948 -52.305  13.540  1.00  0.00     0.094 C 
HETATM   26  C   UNL     1     -43.921 -53.241  12.765  1.00  0.00     0.039 C 
HETATM   27  C   UNL     1     -44.179 -53.953  14.142  1.00  0.00     0.006 C 
HETATM   28  C   UNL     1     -43.900 -52.521  14.744  1.00  0.00     0.039 C 
BRANCH  27  29
HETATM   29  C   UNL     1     -45.604 -54.484  14.315  1.00  0.00     0.175 C 
BRANCH  29  30
HETATM   30  O   UNL     1     -45.683 -55.833  13.864  1.00  0.00    -0.400 OA
HETATM   31  H   UNL     1     -46.555 -55.940  13.431  1.00  0.00     0.209 HD
ENDBRANCH  29  30
ENDBRANCH  27  29
BRANCH  27  32
HETATM   32  C   UNL     1     -43.150 -55.056  14.452  1.00  0.00     0.175 C 
BRANCH  32  33
HETATM   33  O   UNL     1     -43.457 -55.663  15.703  1.00  0.00    -0.400 OA
HETATM   34  H   UNL     1     -44.140 -55.117  16.135  1.00  0.00     0.209 HD
ENDBRANCH  32  33
ENDBRANCH  27  32
ENDBRANCH   2  25
TORSDOF 6
ENDMDL
MODEL 2
REMARK VINA RESULT:      -6.7      2.236      8.570
REMARK  6 active torsions:
REMARK  status: ('A' for Active; 'I' for Inactive)
REMARK    1  A    between atoms: N_2  and  C_9 
REMARK    2  A    between atoms: N_3  and  C_4 
REMARK    3  A    between atoms: C_18  and  C_24 
REMARK    4  A    between atoms: C_18  and  C_25 
REMARK    5  A    between atoms: C_24  and  O_28 
REMARK    6  A    between atoms: C_25  and  O_27 
ROOT
HETATM    1  C   UNL     1     -41.690 -50.267  13.505  1.00  0.00     0.117 A 
HETATM    2  N   UNL     1     -40.914 -48.442  12.585  1.00  0.00    -0.322 N 
HETATM    3  C   UNL     1     -42.036 -51.637  13.554  1.00  0.00     0.115 A 
HETATM    4  C   UNL     1     -41.059 -49.791  12.354  1.00  0.00     0.140 A 
HETATM    5  N   UNL     1     -41.898 -49.251  14.416  1.00  0.00    -0.346 N 
ATOM      6  HN  UNL     1     -42.328 -49.319  15.338  1.00  0.00     0.167 HD
HETATM    7  C   UNL     1     -41.419 -48.178  13.830  1.00  0.00     0.185 A 
HETATM    8  N   UNL     1     -40.717 -50.513  11.274  1.00  0.00    -0.336 N 
ATOM      9  HN  UNL     1     -40.263 -50.134  10.442  1.00  0.00     0.168 HD
HETATM   10  N   UNL     1     -41.677 -52.401  12.489  1.00  0.00    -0.341 N 
ATOM     11  HN  UNL     1     -41.871 -53.402  12.481  1.00  0.00     0.167 HD
HETATM   12  C   UNL     1     -41.057 -51.812  11.439  1.00  0.00     0.183 A 
ENDROOT
BRANCH   3  13
HETATM   13  N   UNL     1     -42.785 -52.155  14.617  1.00  0.00    -0.252 NA
HETATM   14  C   UNL     1     -44.232 -52.388  14.438  1.00  0.00     0.088 C 
HETATM   15  C   UNL     1     -44.819 -52.612  15.869  1.00  0.00     0.102 C 
HETATM   16  C   UNL     1     -44.963 -51.191  13.802  1.00  0.00     0.022 C 
HETATM   17  N   UNL     1     -44.158 -53.700  16.573  1.00  0.00    -0.354 N 
HETATM   18  C   UNL     1     -46.333 -52.822  15.843  1.00  0.00     0.027 C 
HETATM   19  C   UNL     1     -42.788 -53.818  16.522  1.00  0.00     0.231 C 
HETATM   20  H   UNL     1     -44.530 -53.990  17.469  1.00  0.00     0.162 HD
HETATM   21  C   UNL     1     -42.071 -53.286  15.267  1.00  0.00     0.200 C 
HETATM   22  O   UNL     1     -42.202 -54.428  17.416  1.00  0.00    -0.272 OA
HETATM   23  C   UNL     1     -47.034 -51.646  15.173  1.00  0.00     0.002 C 
HETATM   24  C   UNL     1     -46.477 -51.397  13.779  1.00  0.00     0.002 C 
ENDBRANCH   3  13
BRANCH   2  25
HETATM   25  C   UNL     1     -40.400 -47.375  11.776  1.00  0.00     0.094 C 
HETATM   26  C   UNL     1     -40.316 -45.979  12.459  1.00  0.00     0.039 C 
HETATM   27  C   UNL     1     -40.527 -45.372  11.024  1.00  0.00     0.006 C 
HETATM   28  C   UNL     1     -41.361 -46.688  10.773  1.00  0.00     0.039 C 
BRANCH  27  29
HETATM   29  C   UNL     1     -41.320 -44.064  11.009  1.00  0.00     0.175 C 
BRANCH  29  30
HETATM   30  O   UNL     1     -40.479 -42.984  10.616  1.00  0.00    -0.400 OA
HETATM   31  H   UNL     1     -39.687 -43.376  10.192  1.00  0.00     0.209 HD
ENDBRANCH  29  30
ENDBRANCH  27  29
BRANCH  27  32
HETATM   32  C   UNL     1     -39.212 -45.216  10.237  1.00  0.00     0.175 C 
BRANCH  32  33
HETATM   33  O   UNL     1     -39.497 -44.829   8.897  1.00  0.00    -0.400 OA
HETATM   34  H   UNL     1     -38.954 -44.044   8.696  1.00  0.00     0.209 HD
ENDBRANCH  32  33
ENDBRANCH  27  32
ENDBRANCH   2  25
TORSDOF 6
ENDMDL
MODEL 3
REMARK VINA RESULT:      -6.5      2.034      2.685
REMARK  6 active torsions:
REMARK  status: ('A' for Active; 'I' for Inactive)
REMARK    1  A    between atoms: N_2  and  C_9 
REMARK    2  A    between atoms: N_3  and  C_4 
REMARK    3  A    between atoms: C_18  and  C_24 
REMARK    4  A    between atoms: C_18  and  C_25 
REMARK    5  A    between atoms: C_24  and  O_28 
REMARK    6  A    between atoms: C_25  and  O_27 
ROOT
HETATM    1  C   UNL     1     -41.883 -49.791  12.074  1.00  0.00     0.117 A 
HETATM    2  N   UNL     1     -41.899 -51.638  13.243  1.00  0.00    -0.322 N 
HETATM    3  C   UNL     1     -41.300 -48.769  11.289  1.00  0.00     0.115 A 
HETATM    4  C   UNL     1     -41.077 -50.866  12.454  1.00  0.00     0.140 A 
HETATM    5  N   UNL     1     -43.158 -49.917  12.589  1.00  0.00    -0.346 N 
ATOM      6  HN  UNL     1     -43.947 -49.284  12.461  1.00  0.00     0.167 HD
HETATM    7  C   UNL     1     -43.127 -51.033  13.279  1.00  0.00     0.185 A 
HETATM    8  N   UNL     1     -39.786 -51.050  12.130  1.00  0.00    -0.336 N 
ATOM      9  HN  UNL     1     -39.220 -51.844  12.431  1.00  0.00     0.168 HD
HETATM   10  N   UNL     1     -40.005 -48.941  10.919  1.00  0.00    -0.341 N 
ATOM     11  HN  UNL     1     -39.540 -48.254  10.325  1.00  0.00     0.167 HD
HETATM   12  C   UNL     1     -39.340 -50.040  11.349  1.00  0.00     0.183 A 
ENDROOT
BRANCH   3  13
HETATM   13  N   UNL     1     -42.009 -47.602  10.981  1.00  0.00    -0.252 NA
HETATM   14  C   UNL     1     -41.343 -46.292  11.121  1.00  0.00     0.088 C 
HETATM   15  C   UNL     1     -42.475 -45.217  11.058  1.00  0.00     0.102 C 
HETATM   16  C   UNL     1     -40.603 -46.130  12.462  1.00  0.00     0.022 C 
HETATM   17  N   UNL     1     -43.265 -45.317   9.841  1.00  0.00    -0.354 N 
HETATM   18  C   UNL     1     -41.932 -43.799  11.238  1.00  0.00     0.027 C 
HETATM   19  C   UNL     1     -43.660 -46.553   9.380  1.00  0.00     0.231 C 
HETATM   20  H   UNL     1     -43.960 -44.604   9.657  1.00  0.00     0.162 HD
HETATM   21  C   UNL     1     -42.762 -47.759   9.709  1.00  0.00     0.200 C 
HETATM   22  O   UNL     1     -44.644 -46.634   8.644  1.00  0.00    -0.272 OA
HETATM   23  C   UNL     1     -41.168 -43.671  12.551  1.00  0.00     0.002 C 
HETATM   24  C   UNL     1     -40.063 -44.713  12.647  1.00  0.00     0.002 C 
ENDBRANCH   3  13
BRANCH   2  25
HETATM   25  C   UNL     1     -41.667 -52.841  13.989  1.00  0.00     0.094 C 
HETATM   26  C   UNL     1     -40.728 -52.709  15.224  1.00  0.00     0.039 C 
HETATM   27  C   UNL     1     -40.333 -54.208  14.962  1.00  0.00     0.006 C 
HETATM   28  C   UNL     1     -40.613 -53.843  13.453  1.00  0.00     0.039 C 
BRANCH  27  29
HETATM   29  C   UNL     1     -38.881 -54.542  15.311  1.00  0.00     0.175 C 
BRANCH  29  30
HETATM   30  O   UNL     1     -38.495 -55.762  14.685  1.00  0.00    -0.400 OA
HETATM   31  H   UNL     1     -37.515 -55.779  14.668  1.00  0.00     0.209 HD
ENDBRANCH  29  30
ENDBRANCH  27  29
BRANCH  27  32
HETATM   32  C   UNL     1     -41.294 -55.209  15.631  1.00  0.00     0.175 C 
BRANCH  32  33
HETATM   33  O   UNL     1     -40.586 -55.990  16.588  1.00  0.00    -0.400 OA
HETATM   34  H   UNL     1     -40.235 -55.380  17.263  1.00  0.00     0.209 HD
ENDBRANCH  32  33
ENDBRANCH  27  32
ENDBRANCH   2  25
TORSDOF 6
ENDMDL
MODEL 4
REMARK VINA RESULT:      -6.5      2.685      3.257
REMARK  6 active torsions:
REMARK  status: ('A' for Active; 'I' for Inactive)
REMARK    1  A    between atoms: N_2  and  C_9 
REMARK    2  A    between atoms: N_3  and  C_4 
REMARK    3  A    between atoms: C_18  and  C_24 
REMARK    4  A    between atoms: C_18  and  C_25 
REMARK    5  A    between atoms: C_24  and  O_28 
REMARK    6  A    between atoms: C_25  and  O_27 
ROOT
HETATM    1  C   UNL     1     -40.255 -49.981  12.733  1.00  0.00     0.117 A 
HETATM    2  N   UNL     1     -39.861 -51.694  14.032  1.00  0.00    -0.322 N 
HETATM    3  C   UNL     1     -39.928 -48.972  11.797  1.00  0.00     0.115 A 
HETATM    4  C   UNL     1     -39.264 -50.902  13.077  1.00  0.00     0.140 A 
HETATM    5  N   UNL     1     -41.422 -50.219  13.432  1.00  0.00    -0.346 N 
ATOM      6  HN  UNL     1     -42.302 -49.706  13.369  1.00  0.00     0.167 HD
HETATM    7  C   UNL     1     -41.147 -51.251  14.195  1.00  0.00     0.185 A 
HETATM    8  N   UNL     1     -38.014 -50.950  12.589  1.00  0.00    -0.336 N 
ATOM      9  HN  UNL     1     -37.308 -51.632  12.867  1.00  0.00     0.168 HD
HETATM   10  N   UNL     1     -38.680 -49.012  11.262  1.00  0.00    -0.341 N 
ATOM     11  HN  UNL     1     -38.397 -48.330  10.557  1.00  0.00     0.167 HD
HETATM   12  C   UNL     1     -37.818 -49.970  11.677  1.00  0.00     0.183 A 
ENDROOT
BRANCH   3  13
HETATM   13  N   UNL     1     -40.827 -47.940  11.504  1.00  0.00    -0.252 NA
HETATM   14  C   UNL     1     -40.355 -46.541  11.527  1.00  0.00     0.088 C 
HETATM   15  C   UNL     1     -41.637 -45.647  11.519  1.00  0.00     0.102 C 
HETATM   16  C   UNL     1     -39.540 -46.197  12.787  1.00  0.00     0.022 C 
HETATM   17  N   UNL     1     -42.501 -45.930  10.383  1.00  0.00    -0.354 N 
HETATM   18  C   UNL     1     -41.300 -44.157  11.587  1.00  0.00     0.027 C 
HETATM   19  C   UNL     1     -42.743 -47.234  10.013  1.00  0.00     0.231 C 
HETATM   20  H   UNL     1     -43.308 -45.337  10.231  1.00  0.00     0.162 HD
HETATM   21  C   UNL     1     -41.650 -48.276  10.312  1.00  0.00     0.200 C 
HETATM   22  O   UNL     1     -43.760 -47.499   9.373  1.00  0.00    -0.272 OA
HETATM   23  C   UNL     1     -40.458 -43.846  12.819  1.00  0.00     0.002 C 
HETATM   24  C   UNL     1     -39.205 -44.709  12.861  1.00  0.00     0.002 C 
ENDBRANCH   3  13
BRANCH   2  25
HETATM   25  C   UNL     1     -39.368 -52.781  14.828  1.00  0.00     0.094 C 
HETATM   26  C   UNL     1     -39.760 -54.210  14.350  1.00  0.00     0.039 C 
HETATM   27  C   UNL     1     -39.683 -54.631  15.863  1.00  0.00     0.006 C 
HETATM   28  C   UNL     1     -40.132 -53.141  16.127  1.00  0.00     0.039 C 
BRANCH  27  29
HETATM   29  C   UNL     1     -40.688 -55.713  16.263  1.00  0.00     0.175 C 
BRANCH  29  30
HETATM   30  O   UNL     1     -40.002 -56.888  16.685  1.00  0.00    -0.400 OA
HETATM   31  H   UNL     1     -39.056 -56.765  16.461  1.00  0.00     0.209 HD
ENDBRANCH  29  30
ENDBRANCH  27  29
BRANCH  27  32
HETATM   32  C   UNL     1     -38.261 -55.023  16.307  1.00  0.00     0.175 C 
BRANCH  32  33
HETATM   33  O   UNL     1     -37.753 -56.040  15.450  1.00  0.00    -0.400 OA
HETATM   34  H   UNL     1     -36.947 -56.399  15.865  1.00  0.00     0.209 HD
ENDBRANCH  32  33
ENDBRANCH  27  32
ENDBRANCH   2  25
TORSDOF 6
ENDMDL
MODEL 5
REMARK VINA RESULT:      -6.3      3.964      7.989
REMARK  6 active torsions:
REMARK  status: ('A' for Active; 'I' for Inactive)
REMARK    1  A    between atoms: N_2  and  C_9 
REMARK    2  A    between atoms: N_3  and  C_4 
REMARK    3  A    between atoms: C_18  and  C_24 
REMARK    4  A    between atoms: C_18  and  C_25 
REMARK    5  A    between atoms: C_24  and  O_28 
REMARK    6  A    between atoms: C_25  and  O_27 
ROOT
HETATM    1  C   UNL     1     -39.710 -49.311  13.434  1.00  0.00     0.117 A 
HETATM    2  N   UNL     1     -40.971 -48.041  12.182  1.00  0.00    -0.322 N 
HETATM    3  C   UNL     1     -38.610 -50.155  13.718  1.00  0.00     0.115 A 
HETATM    4  C   UNL     1     -39.785 -48.737  12.164  1.00  0.00     0.140 A 
HETATM    5  N   UNL     1     -40.797 -48.956  14.207  1.00  0.00    -0.346 N 
ATOM      6  HN  UNL     1     -40.990 -49.225  15.172  1.00  0.00     0.167 HD
HETATM    7  C   UNL     1     -41.526 -48.196  13.425  1.00  0.00     0.185 A 
HETATM    8  N   UNL     1     -38.896 -48.883  11.167  1.00  0.00    -0.336 N 
ATOM      9  HN  UNL     1     -38.983 -48.456  10.245  1.00  0.00     0.168 HD
HETATM   10  N   UNL     1     -37.678 -50.299  12.740  1.00  0.00    -0.341 N 
ATOM     11  HN  UNL     1     -36.846 -50.868  12.898  1.00  0.00     0.167 HD
HETATM   12  C   UNL     1     -37.869 -49.674  11.554  1.00  0.00     0.183 A 
ENDROOT
BRANCH   3  13
HETATM   13  N   UNL     1     -38.537 -50.866  14.921  1.00  0.00    -0.252 NA
HETATM   14  C   UNL     1     -38.596 -52.342  14.894  1.00  0.00     0.088 C 
HETATM   15  C   UNL     1     -38.852 -52.796  16.367  1.00  0.00     0.102 C 
HETATM   16  C   UNL     1     -39.740 -52.886  14.020  1.00  0.00     0.022 C 
HETATM   17  N   UNL     1     -37.842 -52.290  17.285  1.00  0.00    -0.354 N 
HETATM   18  C   UNL     1     -38.982 -54.314  16.487  1.00  0.00     0.027 C 
HETATM   19  C   UNL     1     -37.414 -50.986  17.183  1.00  0.00     0.231 C 
HETATM   20  H   UNL     1     -37.861 -52.609  18.246  1.00  0.00     0.162 HD
HETATM   21  C   UNL     1     -37.463 -50.324  15.793  1.00  0.00     0.200 C 
HETATM   22  O   UNL     1     -36.918 -50.436  18.166  1.00  0.00    -0.272 OA
HETATM   23  C   UNL     1     -40.092 -54.837  15.583  1.00  0.00     0.002 C 
HETATM   24  C   UNL     1     -39.876 -54.403  14.140  1.00  0.00     0.002 C 
ENDBRANCH   3  13
BRANCH   2  25
HETATM   25  C   UNL     1     -41.661 -47.285  11.176  1.00  0.00     0.094 C 
HETATM   26  C   UNL     1     -43.117 -46.856  11.521  1.00  0.00     0.039 C 
HETATM   27  C   UNL     1     -43.400 -46.921   9.976  1.00  0.00     0.006 C 
HETATM   28  C   UNL     1     -42.302 -48.055   9.993  1.00  0.00     0.039 C 
BRANCH  27  29
HETATM   29  C   UNL     1     -44.818 -47.369   9.618  1.00  0.00     0.175 C 
BRANCH  29  30
HETATM   30  O   UNL     1     -45.034 -47.241   8.216  1.00  0.00    -0.400 OA
HETATM   31  H   UNL     1     -45.581 -48.006   7.938  1.00  0.00     0.209 HD
ENDBRANCH  29  30
ENDBRANCH  27  29
BRANCH  27  32
HETATM   32  C   UNL     1     -43.044 -45.614   9.244  1.00  0.00     0.175 C 
BRANCH  32  33
HETATM   33  O   UNL     1     -44.160 -44.729   9.270  1.00  0.00    -0.400 OA
HETATM   34  H   UNL     1     -43.861 -43.890   9.666  1.00  0.00     0.209 HD
ENDBRANCH  32  33
ENDBRANCH  27  32
ENDBRANCH   2  25
TORSDOF 6
ENDMDL
MODEL 6
REMARK VINA RESULT:      -6.3      3.148      9.058
REMARK  6 active torsions:
REMARK  status: ('A' for Active; 'I' for Inactive)
REMARK    1  A    between atoms: N_2  and  C_9 
REMARK    2  A    between atoms: N_3  and  C_4 
REMARK    3  A    between atoms: C_18  and  C_24 
REMARK    4  A    between atoms: C_18  and  C_25 
REMARK    5  A    between atoms: C_24  and  O_28 
REMARK    6  A    between atoms: C_25  and  O_27 
ROOT
HETATM    1  C   UNL     1     -40.037 -51.727  13.526  1.00  0.00     0.117 A 
HETATM    2  N   UNL     1     -39.886 -49.700  12.722  1.00  0.00    -0.322 N 
HETATM    3  C   UNL     1     -40.452 -53.079  13.541  1.00  0.00     0.115 A 
HETATM    4  C   UNL     1     -40.361 -50.953  12.410  1.00  0.00     0.140 A 
HETATM    5  N   UNL     1     -39.363 -50.980  14.471  1.00  0.00    -0.346 N 
ATOM      6  HN  UNL     1     -39.002 -51.294  15.372  1.00  0.00     0.167 HD
HETATM    7  C   UNL     1     -39.291 -49.776  13.953  1.00  0.00     0.185 A 
HETATM    8  N   UNL     1     -41.020 -51.368  11.315  1.00  0.00    -0.336 N 
ATOM      9  HN  UNL     1     -41.251 -50.775  10.517  1.00  0.00     0.168 HD
HETATM   10  N   UNL     1     -41.094 -53.537  12.434  1.00  0.00    -0.341 N 
ATOM     11  HN  UNL     1     -41.388 -54.511  12.373  1.00  0.00     0.167 HD
HETATM   12  C   UNL     1     -41.336 -52.679  11.414  1.00  0.00     0.183 A 
ENDROOT
BRANCH   3  13
HETATM   13  N   UNL     1     -40.276 -53.876  14.677  1.00  0.00    -0.252 NA
HETATM   14  C   UNL     1     -41.448 -54.533  15.290  1.00  0.00     0.088 C 
HETATM   15  C   UNL     1     -40.987 -55.026  16.698  1.00  0.00     0.102 C 
HETATM   16  C   UNL     1     -42.643 -53.580  15.484  1.00  0.00     0.022 C 
HETATM   17  N   UNL     1     -39.827 -55.903  16.624  1.00  0.00    -0.354 N 
HETATM   18  C   UNL     1     -42.123 -55.693  17.475  1.00  0.00     0.027 C 
HETATM   19  C   UNL     1     -38.781 -55.586  15.787  1.00  0.00     0.231 C 
HETATM   20  H   UNL     1     -39.511 -56.356  17.473  1.00  0.00     0.162 HD
HETATM   21  C   UNL     1     -39.100 -54.772  14.520  1.00  0.00     0.200 C 
HETATM   22  O   UNL     1     -37.664 -56.046  16.021  1.00  0.00    -0.272 OA
HETATM   23  C   UNL     1     -43.310 -54.749  17.620  1.00  0.00     0.002 C 
HETATM   24  C   UNL     1     -43.778 -54.242  16.263  1.00  0.00     0.002 C 
ENDBRANCH   3  13
BRANCH   2  25
HETATM   25  C   UNL     1     -39.951 -48.445  12.030  1.00  0.00     0.094 C 
HETATM   26  C   UNL     1     -39.760 -47.172  12.906  1.00  0.00     0.039 C 
HETATM   27  C   UNL     1     -40.684 -46.437  11.868  1.00  0.00     0.006 C 
HETATM   28  C   UNL     1     -41.349 -47.859  11.707  1.00  0.00     0.039 C 
BRANCH  27  29
HETATM   29  C   UNL     1     -41.570 -45.350  12.479  1.00  0.00     0.175 C 
BRANCH  29  30
HETATM   30  O   UNL     1     -40.953 -44.075  12.334  1.00  0.00    -0.400 OA
HETATM   31  H   UNL     1     -41.640 -43.400  12.518  1.00  0.00     0.209 HD
ENDBRANCH  29  30
ENDBRANCH  27  29
BRANCH  27  32
HETATM   32  C   UNL     1     -39.908 -45.885  10.657  1.00  0.00     0.175 C 
BRANCH  32  33
HETATM   33  O   UNL     1     -40.817 -45.294   9.733  1.00  0.00    -0.400 OA
HETATM   34  H   UNL     1     -41.116 -44.449  10.115  1.00  0.00     0.209 HD
ENDBRANCH  32  33
ENDBRANCH  27  32
ENDBRANCH   2  25
TORSDOF 6
ENDMDL
MODEL 7
REMARK VINA RESULT:      -6.3      3.946      7.782
REMARK  6 active torsions:
REMARK  status: ('A' for Active; 'I' for Inactive)
REMARK    1  A    between atoms: N_2  and  C_9 
REMARK    2  A    between atoms: N_3  and  C_4 
REMARK    3  A    between atoms: C_18  and  C_24 
REMARK    4  A    between atoms: C_18  and  C_25 
REMARK    5  A    between atoms: C_24  and  O_28 
REMARK    6  A    between atoms: C_25  and  O_27 
ROOT
HETATM    1  C   UNL     1     -39.311 -49.490  13.484  1.00  0.00     0.117 A 
HETATM    2  N   UNL     1     -40.768 -48.401  12.273  1.00  0.00    -0.322 N 
HETATM    3  C   UNL     1     -38.162 -50.283  13.713  1.00  0.00     0.115 A 
HETATM    4  C   UNL     1     -39.579 -49.086  12.175  1.00  0.00     0.140 A 
HETATM    5  N   UNL     1     -40.286 -49.043  14.353  1.00  0.00    -0.346 N 
ATOM      6  HN  UNL     1     -40.334 -49.185  15.362  1.00  0.00     0.167 HD
HETATM    7  C   UNL     1     -41.137 -48.395  13.592  1.00  0.00     0.185 A 
HETATM    8  N   UNL     1     -38.837 -49.356  11.088  1.00  0.00    -0.336 N 
ATOM      9  HN  UNL     1     -39.064 -49.054  10.140  1.00  0.00     0.168 HD
HETATM   10  N   UNL     1     -37.374 -50.547  12.638  1.00  0.00    -0.341 N 
ATOM     11  HN  UNL     1     -36.515 -51.086  12.746  1.00  0.00     0.167 HD
HETATM   12  C   UNL     1     -37.746 -50.084  11.421  1.00  0.00     0.183 A 
ENDROOT
BRANCH   3  13
HETATM   13  N   UNL     1     -37.902 -50.830  14.974  1.00  0.00    -0.252 NA
HETATM   14  C   UNL     1     -37.565 -49.933  16.098  1.00  0.00     0.088 C 
HETATM   15  C   UNL     1     -36.993 -50.845  17.229  1.00  0.00     0.102 C 
HETATM   16  C   UNL     1     -36.493 -48.888  15.737  1.00  0.00     0.022 C 
HETATM   17  N   UNL     1     -37.921 -51.899  17.612  1.00  0.00    -0.354 N 
HETATM   18  C   UNL     1     -36.555 -50.038  18.452  1.00  0.00     0.027 C 
HETATM   19  C   UNL     1     -38.603 -52.597  16.641  1.00  0.00     0.231 C 
HETATM   20  H   UNL     1     -37.686 -52.483  18.405  1.00  0.00     0.162 HD
HETATM   21  C   UNL     1     -38.907 -51.871  15.318  1.00  0.00     0.200 C 
HETATM   22  O   UNL     1     -39.031 -53.722  16.897  1.00  0.00    -0.272 OA
HETATM   23  C   UNL     1     -35.525 -48.983  18.066  1.00  0.00     0.002 C 
HETATM   24  C   UNL     1     -36.050 -48.083  16.957  1.00  0.00     0.002 C 
ENDBRANCH   3  13
BRANCH   2  25
HETATM   25  C   UNL     1     -41.611 -47.787  11.288  1.00  0.00     0.094 C 
HETATM   26  C   UNL     1     -41.052 -46.498  10.617  1.00  0.00     0.039 C 
HETATM   27  C   UNL     1     -42.550 -46.051  10.452  1.00  0.00     0.006 C 
HETATM   28  C   UNL     1     -42.769 -46.880  11.777  1.00  0.00     0.039 C 
BRANCH  27  29
HETATM   29  C   UNL     1     -42.769 -44.541  10.565  1.00  0.00     0.175 C 
BRANCH  29  30
HETATM   30  O   UNL     1     -43.855 -44.139   9.735  1.00  0.00    -0.400 OA
HETATM   31  H   UNL     1     -43.691 -43.208   9.478  1.00  0.00     0.209 HD
ENDBRANCH  29  30
ENDBRANCH  27  29
BRANCH  27  32
HETATM   32  C   UNL     1     -43.203 -46.598   9.168  1.00  0.00     0.175 C 
BRANCH  32  33
HETATM   33  O   UNL     1     -42.668 -45.926   8.033  1.00  0.00    -0.400 OA
HETATM   34  H   UNL     1     -41.740 -45.703   8.233  1.00  0.00     0.209 HD
ENDBRANCH  32  33
ENDBRANCH  27  32
ENDBRANCH   2  25
TORSDOF 6
ENDMDL
MODEL 8
REMARK VINA RESULT:      -6.2      2.409      8.701
REMARK  6 active torsions:
REMARK  status: ('A' for Active; 'I' for Inactive)
REMARK    1  A    between atoms: N_2  and  C_9 
REMARK    2  A    between atoms: N_3  and  C_4 
REMARK    3  A    between atoms: C_18  and  C_24 
REMARK    4  A    between atoms: C_18  and  C_25 
REMARK    5  A    between atoms: C_24  and  O_28 
REMARK    6  A    between atoms: C_25  and  O_27 
ROOT
HETATM    1  C   UNL     1     -40.977 -48.609  13.065  1.00  0.00     0.117 A 
HETATM    2  N   UNL     1     -40.562 -46.494  13.425  1.00  0.00    -0.322 N 
HETATM    3  C   UNL     1     -41.411 -49.727  12.315  1.00  0.00     0.115 A 
HETATM    4  C   UNL     1     -40.961 -47.363  12.436  1.00  0.00     0.140 A 
HETATM    5  N   UNL     1     -40.576 -48.507  14.382  1.00  0.00    -0.346 N 
ATOM      6  HN  UNL     1     -40.487 -49.259  15.067  1.00  0.00     0.167 HD
HETATM    7  C   UNL     1     -40.335 -47.229  14.558  1.00  0.00     0.185 A 
HETATM    8  N   UNL     1     -41.299 -47.108  11.161  1.00  0.00    -0.336 N 
ATOM      9  HN  UNL     1     -41.285 -46.183  10.731  1.00  0.00     0.168 HD
HETATM   10  N   UNL     1     -41.731 -49.507  11.013  1.00  0.00    -0.341 N 
ATOM     11  HN  UNL     1     -42.019 -50.280  10.413  1.00  0.00     0.167 HD
HETATM   12  C   UNL     1     -41.660 -48.246  10.524  1.00  0.00     0.183 A 
ENDROOT
BRANCH   3  13
HETATM   13  N   UNL     1     -41.577 -50.980  12.917  1.00  0.00    -0.252 NA
HETATM   14  C   UNL     1     -42.917 -51.600  12.940  1.00  0.00     0.088 C 
HETATM   15  C   UNL     1     -42.837 -52.775  13.966  1.00  0.00     0.102 C 
HETATM   16  C   UNL     1     -44.023 -50.634  13.403  1.00  0.00     0.022 C 
HETATM   17  N   UNL     1     -41.784 -53.725  13.639  1.00  0.00    -0.354 N 
HETATM   18  C   UNL     1     -44.179 -53.489  14.131  1.00  0.00     0.027 C 
HETATM   19  C   UNL     1     -40.549 -53.268  13.236  1.00  0.00     0.231 C 
HETATM   20  H   UNL     1     -41.714 -54.574  14.185  1.00  0.00     0.162 HD
HETATM   21  C   UNL     1     -40.492 -51.911  12.510  1.00  0.00     0.200 C 
HETATM   22  O   UNL     1     -39.565 -53.993  13.372  1.00  0.00    -0.272 OA
HETATM   23  C   UNL     1     -45.268 -52.508  14.549  1.00  0.00     0.002 C 
HETATM   24  C   UNL     1     -45.365 -51.345  13.572  1.00  0.00     0.002 C 
ENDBRANCH   3  13
BRANCH   2  25
HETATM   25  C   UNL     1     -40.403 -45.068  13.448  1.00  0.00     0.094 C 
HETATM   26  C   UNL     1     -41.580 -44.240  12.854  1.00  0.00     0.039 C 
HETATM   27  C   UNL     1     -40.501 -43.161  12.475  1.00  0.00     0.006 C 
HETATM   28  C   UNL     1     -39.545 -44.409  12.339  1.00  0.00     0.039 C 
BRANCH  27  29
HETATM   29  C   UNL     1     -40.801 -42.404  11.180  1.00  0.00     0.175 C 
BRANCH  29  30
HETATM   30  O   UNL     1     -40.891 -41.006  11.437  1.00  0.00    -0.400 OA
HETATM   31  H   UNL     1     -41.627 -40.878  12.072  1.00  0.00     0.209 HD
ENDBRANCH  29  30
ENDBRANCH  27  29
BRANCH  27  32
HETATM   32  C   UNL     1     -40.207 -42.175  13.622  1.00  0.00     0.175 C 
BRANCH  32  33
HETATM   33  O   UNL     1     -39.017 -41.447  13.337  1.00  0.00    -0.400 OA
HETATM   34  H   UNL     1     -38.264 -42.052  13.471  1.00  0.00     0.209 HD
ENDBRANCH  32  33
ENDBRANCH  27  32
ENDBRANCH   2  25
TORSDOF 6
ENDMDL
MODEL 9
REMARK VINA RESULT:      -6.2      2.545      8.568
REMARK  6 active torsions:
REMARK  status: ('A' for Active; 'I' for Inactive)
REMARK    1  A    between atoms: N_2  and  C_9 
REMARK    2  A    between atoms: N_3  and  C_4 
REMARK    3  A    between atoms: C_18  and  C_24 
REMARK    4  A    between atoms: C_18  and  C_25 
REMARK    5  A    between atoms: C_24  and  O_28 
REMARK    6  A    between atoms: C_25  and  O_27 
ROOT
HETATM    1  C   UNL     1     -40.390 -49.590  13.458  1.00  0.00     0.117 A 
HETATM    2  N   UNL     1     -40.789 -47.498  12.966  1.00  0.00    -0.322 N 
HETATM    3  C   UNL     1     -39.830 -50.874  13.264  1.00  0.00     0.115 A 
HETATM    4  C   UNL     1     -40.050 -48.583  12.552  1.00  0.00     0.140 A 
HETATM    5  N   UNL     1     -41.282 -49.128  14.405  1.00  0.00    -0.346 N 
ATOM      6  HN  UNL     1     -41.686 -49.646  15.186  1.00  0.00     0.167 HD
HETATM    7  C   UNL     1     -41.494 -47.875  14.078  1.00  0.00     0.185 A 
HETATM    8  N   UNL     1     -39.214 -48.698  11.507  1.00  0.00    -0.336 N 
ATOM      9  HN  UNL     1     -38.991 -47.944  10.857  1.00  0.00     0.168 HD
HETATM   10  N   UNL     1     -38.956 -51.015  12.234  1.00  0.00    -0.341 N 
ATOM     11  HN  UNL     1     -38.495 -51.909  12.064  1.00  0.00     0.167 HD
HETATM   12  C   UNL     1     -38.706 -49.950  11.436  1.00  0.00     0.183 A 
ENDROOT
BRANCH   3  13
HETATM   13  N   UNL     1     -40.226 -51.961  14.052  1.00  0.00    -0.252 NA
HETATM   14  C   UNL     1     -41.223 -52.914  13.524  1.00  0.00     0.088 C 
HETATM   15  C   UNL     1     -41.702 -53.766  14.743  1.00  0.00     0.102 C 
HETATM   16  C   UNL     1     -42.454 -52.223  12.909  1.00  0.00     0.022 C 
HETATM   17  N   UNL     1     -40.599 -54.427  15.423  1.00  0.00    -0.354 N 
HETATM   18  C   UNL     1     -42.781 -54.775  14.350  1.00  0.00     0.027 C 
HETATM   19  C   UNL     1     -39.431 -53.739  15.664  1.00  0.00     0.231 C 
HETATM   20  H   UNL     1     -40.813 -55.082  16.165  1.00  0.00     0.162 HD
HETATM   21  C   UNL     1     -39.050 -52.613  14.686  1.00  0.00     0.200 C 
HETATM   22  O   UNL     1     -38.691 -54.110  16.575  1.00  0.00    -0.272 OA
HETATM   23  C   UNL     1     -43.973 -54.075  13.707  1.00  0.00     0.002 C 
HETATM   24  C   UNL     1     -43.536 -53.228  12.520  1.00  0.00     0.002 C 
ENDBRANCH   3  13
BRANCH   2  25
HETATM   25  C   UNL     1     -40.942 -46.176  12.431  1.00  0.00     0.094 C 
HETATM   26  C   UNL     1     -42.391 -45.607  12.418  1.00  0.00     0.039 C 
HETATM   27  C   UNL     1     -41.953 -44.782  11.154  1.00  0.00     0.006 C 
HETATM   28  C   UNL     1     -40.998 -46.011  10.891  1.00  0.00     0.039 C 
BRANCH  27  29
HETATM   29  C   UNL     1     -43.068 -44.570  10.128  1.00  0.00     0.175 C 
BRANCH  29  30
HETATM   30  O   UNL     1     -43.616 -43.263  10.263  1.00  0.00    -0.400 OA
HETATM   31  H   UNL     1     -43.933 -43.178  11.187  1.00  0.00     0.209 HD
ENDBRANCH  29  30
ENDBRANCH  27  29
BRANCH  27  32
HETATM   32  C   UNL     1     -41.285 -43.441  11.512  1.00  0.00     0.175 C 
BRANCH  32  33
HETATM   33  O   UNL     1     -40.874 -42.776  10.322  1.00  0.00    -0.400 OA
HETATM   34  H   UNL     1     -41.680 -42.506   9.843  1.00  0.00     0.209 HD
ENDBRANCH  32  33
ENDBRANCH  27  32
ENDBRANCH   2  25
TORSDOF 6
ENDMDL
