MODEL 1
REMARK VINA RESULT:      -6.9      0.000      0.000
REMARK  7 active torsions:
REMARK  status: ('A' for Active; 'I' for Inactive)
REMARK    1  A    between atoms: C_5  and  N_8 
REMARK    2  A    between atoms: N_8  and  S_9 
REMARK    3  A    between atoms: S_9  and  C_12 
REMARK    4  A    between atoms: C_12  and  C_13 
REMARK       I    between atoms: C_13  and  N_15 
REMARK    5  A    between atoms: N_15  and  C_16 
REMARK    6  A    between atoms: C_16  and  C_17 
REMARK    7  A    between atoms: C_17  and  C_18 
ROOT
HETATM    1  C   UNL     1     -37.797 -49.711  11.478  1.00  0.00     0.259 C 
ENDROOT
BRANCH   1   2
HETATM    2  S   UNL     1     -37.679 -51.113  12.577  1.00  0.00     0.218 S 
HETATM    3  O   UNL     1     -37.633 -50.672  13.954  1.00  0.00    -0.211 OA
HETATM    4  O   UNL     1     -36.716 -52.034  12.014  1.00  0.00    -0.211 OA
BRANCH   2   5
HETATM    5  N   UNL     1     -39.227 -51.847  12.435  1.00  0.00    -0.215 NA
HETATM    6  H   UNL     1     -39.836 -51.205  11.921  1.00  0.00     0.140 HD
BRANCH   5   7
HETATM    7  C   UNL     1     -39.888 -52.154  13.765  1.00  0.00     0.071 C 
HETATM    8  C   UNL     1     -39.942 -53.650  14.083  1.00  0.00     0.021 C 
HETATM    9  C   UNL     1     -40.852 -54.403  13.116  1.00  0.00     0.006 C 
HETATM   10  C   UNL     1     -42.284 -53.859  13.138  1.00  0.00    -0.019 C 
HETATM   11  C   UNL     1     -42.999 -54.233  14.441  1.00  0.00     0.010 C 
HETATM   12  C   UNL     1     -42.293 -52.341  12.892  1.00  0.00     0.006 C 
HETATM   13  C   UNL     1     -41.309 -51.567  13.774  1.00  0.00     0.021 C 
ENDBRANCH   5   7
ENDBRANCH   2   5
ENDBRANCH   1   2
BRANCH   1  14
HETATM   14  C   UNL     1     -39.123 -49.052  11.746  1.00  0.00     0.232 C 
HETATM   15  O   UNL     1     -39.321 -48.295  12.691  1.00  0.00    -0.273 OA
HETATM   16  N   UNL     1     -40.155 -49.383  10.879  1.00  0.00    -0.360 N 
HETATM   17  H   UNL     1     -40.046 -50.092  10.164  1.00  0.00     0.162 HD
BRANCH  16  18
HETATM   18  C   UNL     1     -41.444 -48.743  11.095  1.00  0.00     0.128 C 
BRANCH  18  19
HETATM   19  C   UNL     1     -41.655 -47.434  10.344  1.00  0.00     0.076 C 
BRANCH  19  20
HETATM   20  C   UNL     1     -42.960 -47.522   9.591  1.00  0.00     0.010 A 
HETATM   21  C   UNL     1     -44.175 -47.355  10.254  1.00  0.00     0.025 A 
HETATM   22  C   UNL     1     -45.358 -47.592   9.560  1.00  0.00     0.003 A 
HETATM   23  C   UNL     1     -45.299 -47.990   8.230  1.00  0.00     0.017 A 
HETATM   24  C   UNL     1     -44.053 -48.121   7.643  1.00  0.00     0.088 A 
HETATM   25  N   UNL     1     -42.888 -47.893   8.290  1.00  0.00    -0.369 N 
ATOM     26  HN  UNL     1     -41.990 -47.998   7.818  1.00  0.00     0.165 HD
ENDBRANCH  19  20
ENDBRANCH  18  19
ENDBRANCH  16  18
ENDBRANCH   1  14
TORSDOF 7
ENDMDL
MODEL 2
REMARK VINA RESULT:      -6.3      1.720      2.934
REMARK  7 active torsions:
REMARK  status: ('A' for Active; 'I' for Inactive)
REMARK    1  A    between atoms: C_5  and  N_8 
REMARK    2  A    between atoms: N_8  and  S_9 
REMARK    3  A    between atoms: S_9  and  C_12 
REMARK    4  A    between atoms: C_12  and  C_13 
REMARK       I    between atoms: C_13  and  N_15 
REMARK    5  A    between atoms: N_15  and  C_16 
REMARK    6  A    between atoms: C_16  and  C_17 
REMARK    7  A    between atoms: C_17  and  C_18 
ROOT
HETATM    1  C   UNL     1     -37.885 -49.462  12.009  1.00  0.00     0.259 C 
ENDROOT
BRANCH   1   2
HETATM    2  S   UNL     1     -37.686 -51.007  12.882  1.00  0.00     0.218 S 
HETATM    3  O   UNL     1     -37.545 -50.770  14.301  1.00  0.00    -0.211 OA
HETATM    4  O   UNL     1     -36.763 -51.825  12.125  1.00  0.00    -0.211 OA
BRANCH   2   5
HETATM    5  N   UNL     1     -39.239 -51.732  12.741  1.00  0.00    -0.215 NA
HETATM    6  H   UNL     1     -39.905 -51.005  12.469  1.00  0.00     0.140 HD
BRANCH   5   7
HETATM    7  C   UNL     1     -39.739 -52.368  14.024  1.00  0.00     0.071 C 
HETATM    8  C   UNL     1     -39.827 -53.894  13.949  1.00  0.00     0.021 C 
HETATM    9  C   UNL     1     -40.890 -54.352  12.953  1.00  0.00     0.006 C 
HETATM   10  C   UNL     1     -42.279 -53.811  13.310  1.00  0.00    -0.019 C 
HETATM   11  C   UNL     1     -42.840 -54.505  14.556  1.00  0.00     0.010 C 
HETATM   12  C   UNL     1     -42.243 -52.283  13.468  1.00  0.00     0.006 C 
HETATM   13  C   UNL     1     -41.116 -51.783  14.378  1.00  0.00     0.021 C 
ENDBRANCH   5   7
ENDBRANCH   2   5
ENDBRANCH   1   2
BRANCH   1  14
HETATM   14  C   UNL     1     -39.331 -49.066  12.139  1.00  0.00     0.232 C 
HETATM   15  O   UNL     1     -39.832 -48.681  13.190  1.00  0.00    -0.273 OA
HETATM   16  N   UNL     1     -40.107 -49.202  10.996  1.00  0.00    -0.360 N 
HETATM   17  H   UNL     1     -39.743 -49.625  10.151  1.00  0.00     0.162 HD
BRANCH  16  18
HETATM   18  C   UNL     1     -41.503 -48.802  11.082  1.00  0.00     0.128 C 
BRANCH  18  19
HETATM   19  C   UNL     1     -41.867 -47.539  10.312  1.00  0.00     0.076 C 
BRANCH  19  20
HETATM   20  C   UNL     1     -41.271 -46.353  11.031  1.00  0.00     0.010 A 
HETATM   21  C   UNL     1     -40.347 -45.527  10.394  1.00  0.00     0.025 A 
HETATM   22  C   UNL     1     -39.707 -44.537  11.134  1.00  0.00     0.003 A 
HETATM   23  C   UNL     1     -40.001 -44.400  12.485  1.00  0.00     0.017 A 
HETATM   24  C   UNL     1     -40.939 -45.253  13.038  1.00  0.00     0.088 A 
HETATM   25  N   UNL     1     -41.580 -46.220  12.344  1.00  0.00    -0.369 N 
ATOM     26  HN  UNL     1     -42.269 -46.826  12.790  1.00  0.00     0.165 HD
ENDBRANCH  19  20
ENDBRANCH  18  19
ENDBRANCH  16  18
ENDBRANCH   1  14
TORSDOF 7
ENDMDL
MODEL 3
REMARK VINA RESULT:      -6.3      2.498      3.609
REMARK  7 active torsions:
REMARK  status: ('A' for Active; 'I' for Inactive)
REMARK    1  A    between atoms: C_5  and  N_8 
REMARK    2  A    between atoms: N_8  and  S_9 
REMARK    3  A    between atoms: S_9  and  C_12 
REMARK    4  A    between atoms: C_12  and  C_13 
REMARK       I    between atoms: C_13  and  N_15 
REMARK    5  A    between atoms: N_15  and  C_16 
REMARK    6  A    between atoms: C_16  and  C_17 
REMARK    7  A    between atoms: C_17  and  C_18 
ROOT
HETATM    1  C   UNL     1     -39.325 -52.354  14.447  1.00  0.00     0.259 C 
ENDROOT
BRANCH   1   2
HETATM    2  S   UNL     1     -40.583 -53.431  13.780  1.00  0.00     0.218 S 
HETATM    3  O   UNL     1     -40.691 -54.634  14.574  1.00  0.00    -0.211 OA
HETATM    4  O   UNL     1     -40.430 -53.450  12.341  1.00  0.00    -0.211 OA
BRANCH   2   5
HETATM    5  N   UNL     1     -42.039 -52.583  14.124  1.00  0.00    -0.215 NA
HETATM    6  H   UNL     1     -42.622 -53.181  14.716  1.00  0.00     0.140 HD
BRANCH   5   7
HETATM    7  C   UNL     1     -42.844 -52.218  12.892  1.00  0.00     0.071 C 
HETATM    8  C   UNL     1     -43.551 -50.865  13.010  1.00  0.00     0.021 C 
HETATM    9  C   UNL     1     -44.637 -50.885  14.083  1.00  0.00     0.006 C 
HETATM   10  C   UNL     1     -45.699 -51.955  13.802  1.00  0.00    -0.019 C 
HETATM   11  C   UNL     1     -46.580 -51.562  12.612  1.00  0.00     0.010 C 
HETATM   12  C   UNL     1     -45.044 -53.332  13.604  1.00  0.00     0.006 C 
HETATM   13  C   UNL     1     -43.876 -53.323  12.612  1.00  0.00     0.021 C 
ENDBRANCH   5   7
ENDBRANCH   2   5
ENDBRANCH   1   2
BRANCH   1  14
HETATM   14  C   UNL     1     -38.843 -51.487  13.315  1.00  0.00     0.232 C 
HETATM   15  O   UNL     1     -37.692 -51.509  12.892  1.00  0.00    -0.273 OA
HETATM   16  N   UNL     1     -39.772 -50.604  12.784  1.00  0.00    -0.360 N 
HETATM   17  H   UNL     1     -40.693 -50.487  13.192  1.00  0.00     0.162 HD
BRANCH  16  18
HETATM   18  C   UNL     1     -39.346 -49.770  11.671  1.00  0.00     0.128 C 
BRANCH  18  19
HETATM   19  C   UNL     1     -39.487 -48.269  11.889  1.00  0.00     0.076 C 
BRANCH  19  20
HETATM   20  C   UNL     1     -40.896 -47.865  11.525  1.00  0.00     0.010 A 
HETATM   21  C   UNL     1     -41.798 -47.469  12.511  1.00  0.00     0.025 A 
HETATM   22  C   UNL     1     -43.126 -47.250  12.158  1.00  0.00     0.003 A 
HETATM   23  C   UNL     1     -43.520 -47.434  10.839  1.00  0.00     0.017 A 
HETATM   24  C   UNL     1     -42.559 -47.817   9.919  1.00  0.00     0.088 A 
HETATM   25  N   UNL     1     -41.261 -48.032  10.231  1.00  0.00    -0.369 N 
ATOM     26  HN  UNL     1     -40.584 -48.310   9.521  1.00  0.00     0.165 HD
ENDBRANCH  19  20
ENDBRANCH  18  19
ENDBRANCH  16  18
ENDBRANCH   1  14
TORSDOF 7
ENDMDL
MODEL 4
REMARK VINA RESULT:      -6.1      3.049      5.817
REMARK  7 active torsions:
REMARK  status: ('A' for Active; 'I' for Inactive)
REMARK    1  A    between atoms: C_5  and  N_8 
REMARK    2  A    between atoms: N_8  and  S_9 
REMARK    3  A    between atoms: S_9  and  C_12 
REMARK    4  A    between atoms: C_12  and  C_13 
REMARK       I    between atoms: C_13  and  N_15 
REMARK    5  A    between atoms: N_15  and  C_16 
REMARK    6  A    between atoms: C_16  and  C_17 
REMARK    7  A    between atoms: C_17  and  C_18 
ROOT
HETATM    1  C   UNL     1     -39.849 -52.921  15.092  1.00  0.00     0.259 C 
ENDROOT
BRANCH   1   2
HETATM    2  S   UNL     1     -39.516 -52.229  13.480  1.00  0.00     0.218 S 
HETATM    3  O   UNL     1     -40.137 -53.029  12.449  1.00  0.00    -0.211 OA
HETATM    4  O   UNL     1     -38.120 -51.847  13.445  1.00  0.00    -0.211 OA
BRANCH   2   5
HETATM    5  N   UNL     1     -40.439 -50.779  13.484  1.00  0.00    -0.215 NA
HETATM    6  H   UNL     1     -41.028 -50.780  14.321  1.00  0.00     0.140 HD
BRANCH   5   7
HETATM    7  C   UNL     1     -41.343 -50.621  12.277  1.00  0.00     0.071 C 
HETATM    8  C   UNL     1     -40.934 -49.466  11.360  1.00  0.00     0.021 C 
HETATM    9  C   UNL     1     -41.107 -48.111  12.044  1.00  0.00     0.006 C 
HETATM   10  C   UNL     1     -42.556 -47.878  12.488  1.00  0.00    -0.019 C 
HETATM   11  C   UNL     1     -43.472 -47.630  11.284  1.00  0.00     0.010 C 
HETATM   12  C   UNL     1     -43.052 -49.043  13.359  1.00  0.00     0.006 C 
HETATM   13  C   UNL     1     -42.793 -50.424  12.748  1.00  0.00     0.021 C 
ENDBRANCH   5   7
ENDBRANCH   2   5
ENDBRANCH   1   2
BRANCH   1  14
HETATM   14  C   UNL     1     -41.329 -53.191  15.157  1.00  0.00     0.232 C 
HETATM   15  O   UNL     1     -42.129 -52.434  15.696  1.00  0.00    -0.273 OA
HETATM   16  N   UNL     1     -41.756 -54.390  14.604  1.00  0.00    -0.360 N 
HETATM   17  H   UNL     1     -41.101 -55.082  14.257  1.00  0.00     0.162 HD
BRANCH  16  18
HETATM   18  C   UNL     1     -43.183 -54.669  14.627  1.00  0.00     0.128 C 
BRANCH  18  19
HETATM   19  C   UNL     1     -43.933 -54.333  13.344  1.00  0.00     0.076 C 
BRANCH  19  20
HETATM   20  C   UNL     1     -45.002 -53.317  13.668  1.00  0.00     0.010 A 
HETATM   21  C   UNL     1     -45.711 -52.683  12.649  1.00  0.00     0.025 A 
HETATM   22  C   UNL     1     -46.578 -51.646  12.980  1.00  0.00     0.003 A 
HETATM   23  C   UNL     1     -46.713 -51.267  14.309  1.00  0.00     0.017 A 
HETATM   24  C   UNL     1     -45.981 -51.955  15.260  1.00  0.00     0.088 A 
HETATM   25  N   UNL     1     -45.135 -52.969  14.971  1.00  0.00    -0.369 N 
ATOM     26  HN  UNL     1     -44.617 -53.453  15.705  1.00  0.00     0.165 HD
ENDBRANCH  19  20
ENDBRANCH  18  19
ENDBRANCH  16  18
ENDBRANCH   1  14
TORSDOF 7
ENDMDL
MODEL 5
REMARK VINA RESULT:      -6.1      1.916      2.380
REMARK  7 active torsions:
REMARK  status: ('A' for Active; 'I' for Inactive)
REMARK    1  A    between atoms: C_5  and  N_8 
REMARK    2  A    between atoms: N_8  and  S_9 
REMARK    3  A    between atoms: S_9  and  C_12 
REMARK    4  A    between atoms: C_12  and  C_13 
REMARK       I    between atoms: C_13  and  N_15 
REMARK    5  A    between atoms: N_15  and  C_16 
REMARK    6  A    between atoms: C_16  and  C_17 
REMARK    7  A    between atoms: C_17  and  C_18 
ROOT
HETATM    1  C   UNL     1     -37.604 -50.061  13.979  1.00  0.00     0.259 C 
ENDROOT
BRANCH   1   2
HETATM    2  S   UNL     1     -37.649 -50.710  12.316  1.00  0.00     0.218 S 
HETATM    3  O   UNL     1     -36.822 -51.891  12.214  1.00  0.00    -0.211 OA
HETATM    4  O   UNL     1     -37.540 -49.593  11.404  1.00  0.00    -0.211 OA
BRANCH   2   5
HETATM    5  N   UNL     1     -39.251 -51.320  12.183  1.00  0.00    -0.215 NA
HETATM    6  H   UNL     1     -39.830 -50.599  11.744  1.00  0.00     0.140 HD
BRANCH   5   7
HETATM    7  C   UNL     1     -39.885 -51.681  13.513  1.00  0.00     0.071 C 
HETATM    8  C   UNL     1     -39.901 -53.187  13.787  1.00  0.00     0.021 C 
HETATM    9  C   UNL     1     -40.809 -53.930  12.810  1.00  0.00     0.006 C 
HETATM   10  C   UNL     1     -42.253 -53.419  12.869  1.00  0.00    -0.019 C 
HETATM   11  C   UNL     1     -42.940 -53.848  14.171  1.00  0.00     0.010 C 
HETATM   12  C   UNL     1     -42.299 -51.895  12.670  1.00  0.00     0.006 C 
HETATM   13  C   UNL     1     -41.318 -51.126  13.561  1.00  0.00     0.021 C 
ENDBRANCH   5   7
ENDBRANCH   2   5
ENDBRANCH   1   2
BRANCH   1  14
HETATM   14  C   UNL     1     -37.871 -48.583  13.881  1.00  0.00     0.232 C 
HETATM   15  O   UNL     1     -37.090 -47.728  14.284  1.00  0.00    -0.273 OA
HETATM   16  N   UNL     1     -39.096 -48.218  13.340  1.00  0.00    -0.360 N 
HETATM   17  H   UNL     1     -39.803 -48.906  13.107  1.00  0.00     0.162 HD
BRANCH  16  18
HETATM   18  C   UNL     1     -39.375 -46.796  13.207  1.00  0.00     0.128 C 
BRANCH  18  19
HETATM   19  C   UNL     1     -40.786 -46.370  13.588  1.00  0.00     0.076 C 
BRANCH  19  20
HETATM   20  C   UNL     1     -41.718 -46.741  12.459  1.00  0.00     0.010 A 
HETATM   21  C   UNL     1     -42.667 -47.748  12.624  1.00  0.00     0.025 A 
HETATM   22  C   UNL     1     -43.403 -48.164  11.518  1.00  0.00     0.003 A 
HETATM   23  C   UNL     1     -43.173 -47.572  10.284  1.00  0.00     0.017 A 
HETATM   24  C   UNL     1     -42.221 -46.570  10.209  1.00  0.00     0.088 A 
HETATM   25  N   UNL     1     -41.494 -46.142  11.265  1.00  0.00    -0.369 N 
ATOM     26  HN  UNL     1     -40.804 -45.397  11.166  1.00  0.00     0.165 HD
ENDBRANCH  19  20
ENDBRANCH  18  19
ENDBRANCH  16  18
ENDBRANCH   1  14
TORSDOF 7
ENDMDL
MODEL 6
REMARK VINA RESULT:      -6.1      3.845      6.308
REMARK  7 active torsions:
REMARK  status: ('A' for Active; 'I' for Inactive)
REMARK    1  A    between atoms: C_5  and  N_8 
REMARK    2  A    between atoms: N_8  and  S_9 
REMARK    3  A    between atoms: S_9  and  C_12 
REMARK    4  A    between atoms: C_12  and  C_13 
REMARK       I    between atoms: C_13  and  N_15 
REMARK    5  A    between atoms: N_15  and  C_16 
REMARK    6  A    between atoms: C_16  and  C_17 
REMARK    7  A    between atoms: C_17  and  C_18 
ROOT
HETATM    1  C   UNL     1     -40.831 -54.053  13.310  1.00  0.00     0.259 C 
ENDROOT
BRANCH   1   2
HETATM    2  S   UNL     1     -40.572 -52.357  12.815  1.00  0.00     0.218 S 
HETATM    3  O   UNL     1     -41.134 -52.122  11.504  1.00  0.00    -0.211 OA
HETATM    4  O   UNL     1     -39.214 -51.999  13.163  1.00  0.00    -0.211 OA
BRANCH   2   5
HETATM    5  N   UNL     1     -41.612 -51.484  13.869  1.00  0.00    -0.215 NA
HETATM    6  H   UNL     1     -42.377 -52.106  14.147  1.00  0.00     0.140 HD
BRANCH   5   7
HETATM    7  C   UNL     1     -42.223 -50.245  13.243  1.00  0.00     0.071 C 
HETATM    8  C   UNL     1     -41.281 -49.038  13.246  1.00  0.00     0.021 C 
HETATM    9  C   UNL     1     -40.992 -48.548  14.663  1.00  0.00     0.006 C 
HETATM   10  C   UNL     1     -42.275 -48.153  15.403  1.00  0.00    -0.019 C 
HETATM   11  C   UNL     1     -42.862 -46.853  14.841  1.00  0.00     0.010 C 
HETATM   12  C   UNL     1     -43.294 -49.304  15.377  1.00  0.00     0.006 C 
HETATM   13  C   UNL     1     -43.525 -49.891  13.981  1.00  0.00     0.021 C 
ENDBRANCH   5   7
ENDBRANCH   2   5
ENDBRANCH   1   2
BRANCH   1  14
HETATM   14  C   UNL     1     -42.299 -54.207  13.600  1.00  0.00     0.232 C 
HETATM   15  O   UNL     1     -42.740 -54.523  14.700  1.00  0.00    -0.273 OA
HETATM   16  N   UNL     1     -43.158 -54.015  12.526  1.00  0.00    -0.360 N 
HETATM   17  H   UNL     1     -42.812 -53.867  11.585  1.00  0.00     0.162 HD
BRANCH  16  18
HETATM   18  C   UNL     1     -44.586 -54.130  12.779  1.00  0.00     0.128 C 
BRANCH  18  19
HETATM   19  C   UNL     1     -45.357 -52.817  12.770  1.00  0.00     0.076 C 
BRANCH  19  20
HETATM   20  C   UNL     1     -45.963 -52.610  14.138  1.00  0.00     0.010 A 
HETATM   21  C   UNL     1     -46.742 -51.485  14.406  1.00  0.00     0.025 A 
HETATM   22  C   UNL     1     -47.155 -51.252  15.714  1.00  0.00     0.003 A 
HETATM   23  C   UNL     1     -46.782 -52.139  16.716  1.00  0.00     0.017 A 
HETATM   24  C   UNL     1     -46.018 -53.237  16.363  1.00  0.00     0.088 A 
HETATM   25  N   UNL     1     -45.605 -53.493  15.101  1.00  0.00    -0.369 N 
ATOM     26  HN  UNL     1     -45.045 -54.318  14.883  1.00  0.00     0.165 HD
ENDBRANCH  19  20
ENDBRANCH  18  19
ENDBRANCH  16  18
ENDBRANCH   1  14
TORSDOF 7
ENDMDL
MODEL 7
REMARK VINA RESULT:      -6.0      4.294      6.224
REMARK  7 active torsions:
REMARK  status: ('A' for Active; 'I' for Inactive)
REMARK    1  A    between atoms: C_5  and  N_8 
REMARK    2  A    between atoms: N_8  and  S_9 
REMARK    3  A    between atoms: S_9  and  C_12 
REMARK    4  A    between atoms: C_12  and  C_13 
REMARK       I    between atoms: C_13  and  N_15 
REMARK    5  A    between atoms: N_15  and  C_16 
REMARK    6  A    between atoms: C_16  and  C_17 
REMARK    7  A    between atoms: C_17  and  C_18 
ROOT
HETATM    1  C   UNL     1     -42.176 -53.907  13.526  1.00  0.00     0.259 C 
ENDROOT
BRANCH   1   2
HETATM    2  S   UNL     1     -43.866 -54.387  13.840  1.00  0.00     0.218 S 
HETATM    3  O   UNL     1     -43.909 -55.548  14.700  1.00  0.00    -0.211 OA
HETATM    4  O   UNL     1     -44.586 -54.310  12.587  1.00  0.00    -0.211 OA
BRANCH   2   5
HETATM    5  N   UNL     1     -44.449 -53.116  14.839  1.00  0.00    -0.215 NA
HETATM    6  H   UNL     1     -43.716 -52.879  15.513  1.00  0.00     0.140 HD
BRANCH   5   7
HETATM    7  C   UNL     1     -45.702 -53.470  15.618  1.00  0.00     0.071 C 
HETATM    8  C   UNL     1     -46.976 -52.866  15.024  1.00  0.00     0.021 C 
HETATM    9  C   UNL     1     -46.981 -51.342  15.125  1.00  0.00     0.006 C 
HETATM   10  C   UNL     1     -46.860 -50.866  16.577  1.00  0.00    -0.019 C 
HETATM   11  C   UNL     1     -48.149 -51.138  17.359  1.00  0.00     0.010 C 
HETATM   12  C   UNL     1     -45.632 -51.495  17.254  1.00  0.00     0.006 C 
HETATM   13  C   UNL     1     -45.540 -53.014  17.078  1.00  0.00     0.021 C 
ENDBRANCH   5   7
ENDBRANCH   2   5
ENDBRANCH   1   2
BRANCH   1  14
HETATM   14  C   UNL     1     -42.110 -52.410  13.670  1.00  0.00     0.232 C 
HETATM   15  O   UNL     1     -41.666 -51.848  14.666  1.00  0.00    -0.273 OA
HETATM   16  N   UNL     1     -42.629 -51.671  12.616  1.00  0.00    -0.360 N 
HETATM   17  H   UNL     1     -43.103 -52.113  11.837  1.00  0.00     0.162 HD
BRANCH  16  18
HETATM   18  C   UNL     1     -42.556 -50.222  12.713  1.00  0.00     0.128 C 
BRANCH  18  19
HETATM   19  C   UNL     1     -41.726 -49.538  11.634  1.00  0.00     0.076 C 
BRANCH  19  20
HETATM   20  C   UNL     1     -40.272 -49.601  12.039  1.00  0.00     0.010 A 
HETATM   21  C   UNL     1     -39.868 -49.173  13.303  1.00  0.00     0.025 A 
HETATM   22  C   UNL     1     -38.507 -49.104  13.585  1.00  0.00     0.003 A 
HETATM   23  C   UNL     1     -37.589 -49.458  12.605  1.00  0.00     0.017 A 
HETATM   24  C   UNL     1     -38.074 -49.883  11.381  1.00  0.00     0.088 A 
HETATM   25  N   UNL     1     -39.389 -49.965  11.079  1.00  0.00    -0.369 N 
ATOM     26  HN  UNL     1     -39.704 -50.288  10.163  1.00  0.00     0.165 HD
ENDBRANCH  19  20
ENDBRANCH  18  19
ENDBRANCH  16  18
ENDBRANCH   1  14
TORSDOF 7
ENDMDL
MODEL 8
REMARK VINA RESULT:      -6.0      2.530      3.222
REMARK  7 active torsions:
REMARK  status: ('A' for Active; 'I' for Inactive)
REMARK    1  A    between atoms: C_5  and  N_8 
REMARK    2  A    between atoms: N_8  and  S_9 
REMARK    3  A    between atoms: S_9  and  C_12 
REMARK    4  A    between atoms: C_12  and  C_13 
REMARK       I    between atoms: C_13  and  N_15 
REMARK    5  A    between atoms: N_15  and  C_16 
REMARK    6  A    between atoms: C_16  and  C_17 
REMARK    7  A    between atoms: C_17  and  C_18 
ROOT
HETATM    1  C   UNL     1     -40.603 -50.538  13.808  1.00  0.00     0.259 C 
ENDROOT
BRANCH   1   2
HETATM    2  S   UNL     1     -40.865 -51.454  12.298  1.00  0.00     0.218 S 
HETATM    3  O   UNL     1     -40.324 -52.789  12.417  1.00  0.00    -0.211 OA
HETATM    4  O   UNL     1     -40.554 -50.576  11.191  1.00  0.00    -0.211 OA
BRANCH   2   5
HETATM    5  N   UNL     1     -42.566 -51.701  12.287  1.00  0.00    -0.215 NA
HETATM    6  H   UNL     1     -43.007 -50.858  11.910  1.00  0.00     0.140 HD
BRANCH   5   7
HETATM    7  C   UNL     1     -43.159 -51.965  13.657  1.00  0.00     0.071 C 
HETATM    8  C   UNL     1     -43.560 -53.426  13.873  1.00  0.00     0.021 C 
HETATM    9  C   UNL     1     -44.715 -53.837  12.962  1.00  0.00     0.006 C 
HETATM   10  C   UNL     1     -45.956 -52.964  13.184  1.00  0.00    -0.019 C 
HETATM   11  C   UNL     1     -46.620 -53.278  14.529  1.00  0.00     0.010 C 
HETATM   12  C   UNL     1     -45.603 -51.474  13.050  1.00  0.00     0.006 C 
HETATM   13  C   UNL     1     -44.379 -51.053  13.869  1.00  0.00     0.021 C 
ENDBRANCH   5   7
ENDBRANCH   2   5
ENDBRANCH   1   2
BRANCH   1  14
HETATM   14  C   UNL     1     -40.835 -49.086  13.488  1.00  0.00     0.232 C 
HETATM   15  O   UNL     1     -41.952 -48.587  13.394  1.00  0.00    -0.273 OA
HETATM   16  N   UNL     1     -39.700 -48.323  13.254  1.00  0.00    -0.360 N 
HETATM   17  H   UNL     1     -38.776 -48.738  13.213  1.00  0.00     0.162 HD
BRANCH  16  18
HETATM   18  C   UNL     1     -39.889 -46.909  12.968  1.00  0.00     0.128 C 
BRANCH  18  19
HETATM   19  C   UNL     1     -39.625 -46.495  11.526  1.00  0.00     0.076 C 
BRANCH  19  20
HETATM   20  C   UNL     1     -40.930 -46.547  10.769  1.00  0.00     0.010 A 
HETATM   21  C   UNL     1     -41.749 -45.422  10.688  1.00  0.00     0.025 A 
HETATM   22  C   UNL     1     -43.010 -45.549  10.113  1.00  0.00     0.003 A 
HETATM   23  C   UNL     1     -43.421 -46.788   9.639  1.00  0.00     0.017 A 
HETATM   24  C   UNL     1     -42.543 -47.852   9.747  1.00  0.00     0.088 A 
HETATM   25  N   UNL     1     -41.311 -47.758  10.296  1.00  0.00    -0.369 N 
ATOM     26  HN  UNL     1     -40.692 -48.568  10.353  1.00  0.00     0.165 HD
ENDBRANCH  19  20
ENDBRANCH  18  19
ENDBRANCH  16  18
ENDBRANCH   1  14
TORSDOF 7
ENDMDL
MODEL 9
REMARK VINA RESULT:      -6.0      2.805      6.598
REMARK  7 active torsions:
REMARK  status: ('A' for Active; 'I' for Inactive)
REMARK    1  A    between atoms: C_5  and  N_8 
REMARK    2  A    between atoms: N_8  and  S_9 
REMARK    3  A    between atoms: S_9  and  C_12 
REMARK    4  A    between atoms: C_12  and  C_13 
REMARK       I    between atoms: C_13  and  N_15 
REMARK    5  A    between atoms: N_15  and  C_16 
REMARK    6  A    between atoms: C_16  and  C_17 
REMARK    7  A    between atoms: C_17  and  C_18 
ROOT
HETATM    1  C   UNL     1     -40.102 -50.141  11.183  1.00  0.00     0.259 C 
ENDROOT
BRANCH   1   2
HETATM    2  S   UNL     1     -40.996 -48.612  11.406  1.00  0.00     0.218 S 
HETATM    3  O   UNL     1     -40.118 -47.480  11.209  1.00  0.00    -0.211 OA
HETATM    4  O   UNL     1     -41.837 -48.760  12.574  1.00  0.00    -0.211 OA
BRANCH   2   5
HETATM    5  N   UNL     1     -42.033 -48.567  10.036  1.00  0.00    -0.215 NA
HETATM    6  H   UNL     1     -41.484 -48.830   9.213  1.00  0.00     0.140 HD
BRANCH   5   7
HETATM    7  C   UNL     1     -42.647 -47.206   9.772  1.00  0.00     0.071 C 
HETATM    8  C   UNL     1     -43.833 -46.889  10.687  1.00  0.00     0.021 C 
HETATM    9  C   UNL     1     -45.020 -47.811  10.415  1.00  0.00     0.006 C 
HETATM   10  C   UNL     1     -45.499 -47.713   8.962  1.00  0.00    -0.019 C 
HETATM   11  C   UNL     1     -46.200 -46.376   8.699  1.00  0.00     0.010 C 
HETATM   12  C   UNL     1     -44.334 -47.954   7.989  1.00  0.00     0.006 C 
HETATM   13  C   UNL     1     -43.086 -47.121   8.301  1.00  0.00     0.021 C 
ENDBRANCH   5   7
ENDBRANCH   2   5
ENDBRANCH   1   2
BRANCH   1  14
HETATM   14  C   UNL     1     -40.704 -51.145  12.128  1.00  0.00     0.232 C 
HETATM   15  O   UNL     1     -40.076 -51.676  13.038  1.00  0.00    -0.273 OA
HETATM   16  N   UNL     1     -42.028 -51.489  11.892  1.00  0.00    -0.360 N 
HETATM   17  H   UNL     1     -42.530 -51.151  11.079  1.00  0.00     0.162 HD
BRANCH  16  18
HETATM   18  C   UNL     1     -42.648 -52.437  12.804  1.00  0.00     0.128 C 
BRANCH  18  19
HETATM   19  C   UNL     1     -43.881 -53.150  12.264  1.00  0.00     0.076 C 
BRANCH  19  20
HETATM   20  C   UNL     1     -45.037 -52.876  13.196  1.00  0.00     0.010 A 
HETATM   21  C   UNL     1     -45.752 -51.683  13.108  1.00  0.00     0.025 A 
HETATM   22  C   UNL     1     -46.709 -51.401  14.078  1.00  0.00     0.003 A 
HETATM   23  C   UNL     1     -46.926 -52.308  15.107  1.00  0.00     0.017 A 
HETATM   24  C   UNL     1     -46.181 -53.475  15.114  1.00  0.00     0.088 A 
HETATM   25  N   UNL     1     -45.248 -53.779  14.184  1.00  0.00    -0.369 N 
ATOM     26  HN  UNL     1     -44.724 -54.653  14.224  1.00  0.00     0.165 HD
ENDBRANCH  19  20
ENDBRANCH  18  19
ENDBRANCH  16  18
ENDBRANCH   1  14
TORSDOF 7
ENDMDL
