MODEL 1
REMARK VINA RESULT:      -6.2      0.000      0.000
REMARK  5 active torsions:
REMARK  status: ('A' for Active; 'I' for Inactive)
REMARK       I    between atoms: N_1  and  C_2 
REMARK    1  A    between atoms: C_2  and  C_4 
REMARK    2  A    between atoms: C_4  and  N_5 
REMARK    3  A    between atoms: C_8  and  N_11 
REMARK       I    between atoms: N_11  and  C_12 
REMARK       I    between atoms: C_12  and  N_14 
REMARK    4  A    between atoms: N_14  and  C_15 
REMARK    5  A    between atoms: C_18  and  N_22 
ROOT
HETATM    1  N   UNL     1     -42.120 -50.977  11.989  1.00  0.00    -0.338 N 
HETATM    2  C   UNL     1     -41.852 -49.637  12.186  1.00  0.00     0.321 C 
HETATM    3  O   UNL     1     -41.481 -49.180  13.260  1.00  0.00    -0.247 OA
HETATM    4  N   UNL     1     -42.142 -48.895  11.060  1.00  0.00    -0.308 N 
HETATM    5  H   UNL     1     -41.852 -51.328  11.080  1.00  0.00     0.164 HD
HETATM    6  H   UNL     1     -42.880 -49.286  10.492  1.00  0.00     0.170 HD
ENDROOT
BRANCH   1   7
HETATM    7  C   UNL     1     -42.062 -51.901  13.124  1.00  0.00     0.089 C 
HETATM    8  C   UNL     1     -42.339 -53.352  12.721  1.00  0.00     0.055 C 
HETATM    9  C   UNL     1     -43.828 -53.605  12.489  1.00  0.00     0.275 C 
HETATM   10  N   UNL     1     -44.696 -53.219  13.619  1.00  0.00     0.097 N 
HETATM   11  C   UNL     1     -44.459 -51.816  13.990  1.00  0.00     0.275 C 
HETATM   12  C   UNL     1     -42.994 -51.461  14.256  1.00  0.00     0.055 C 
BRANCH  10  13
HETATM   13  C   UNL     1     -44.544 -54.122  14.786  1.00  0.00     0.374 C 
BRANCH  13  14
HETATM   14  C   UNL     1     -45.906 -54.463  15.398  1.00  0.00     0.243 C 
HETATM   15  N   UNL     1     -46.915 -54.644  14.494  1.00  0.00    -0.369 N 
HETATM   16  H   UNL     1     -47.791 -54.994  14.859  1.00  0.00     0.159 HD
HETATM   17  H   UNL     1     -46.666 -54.871  13.540  1.00  0.00     0.159 HD
HETATM   18  O   UNL     1     -46.104 -54.549  16.604  1.00  0.00    -0.272 OA
ENDBRANCH  13  14
ENDBRANCH  10  13
ENDBRANCH   1   7
BRANCH   4  19
HETATM   19  C   UNL     1     -41.988 -47.491  11.036  1.00  0.00     0.051 A 
HETATM   20  C   UNL     1     -40.730 -46.943  10.827  1.00  0.00     0.035 A 
HETATM   21  C   UNL     1     -40.588 -45.553  10.775  1.00  0.00     0.051 A 
HETATM   22  C   UNL     1     -41.681 -44.715  11.009  1.00  0.00     0.103 A 
HETATM   23  N   UNL     1     -42.903 -45.255  11.215  1.00  0.00    -0.350 N 
HETATM   24  C   UNL     1     -43.039 -46.604  11.210  1.00  0.00     0.119 A 
ATOM     25  HN  UNL     1     -43.713 -44.655  11.370  1.00  0.00     0.166 HD
BRANCH  22  26
HETATM   26  N   UNL     1     -41.560 -43.334  11.010  1.00  0.00    -0.367 N 
HETATM   27  C   UNL     1     -42.789 -42.556  11.191  1.00  0.00     0.124 C 
HETATM   28  C   UNL     1     -42.372 -41.321  11.990  1.00  0.00     0.021 C 
HETATM   29  C   UNL     1     -41.055 -41.714  12.636  1.00  0.00     0.021 C 
HETATM   30  C   UNL     1     -40.422 -42.653  11.619  1.00  0.00     0.124 C 
ENDBRANCH  22  26
ENDBRANCH   4  19
TORSDOF 5
ENDMDL
MODEL 2
REMARK VINA RESULT:      -6.0      2.542      9.901
REMARK  5 active torsions:
REMARK  status: ('A' for Active; 'I' for Inactive)
REMARK       I    between atoms: N_1  and  C_2 
REMARK    1  A    between atoms: C_2  and  C_4 
REMARK    2  A    between atoms: C_4  and  N_5 
REMARK    3  A    between atoms: C_8  and  N_11 
REMARK       I    between atoms: N_11  and  C_12 
REMARK       I    between atoms: C_12  and  N_14 
REMARK    4  A    between atoms: N_14  and  C_15 
REMARK    5  A    between atoms: C_18  and  N_22 
ROOT
HETATM    1  N   UNL     1     -40.557 -46.636  11.187  1.00  0.00    -0.338 N 
HETATM    2  C   UNL     1     -41.276 -47.813  11.156  1.00  0.00     0.321 C 
HETATM    3  O   UNL     1     -42.218 -48.002  10.398  1.00  0.00    -0.247 OA
HETATM    4  N   UNL     1     -40.853 -48.686  12.137  1.00  0.00    -0.308 N 
HETATM    5  H   UNL     1     -39.567 -46.754  11.354  1.00  0.00     0.164 HD
HETATM    6  H   UNL     1     -40.477 -48.230  12.956  1.00  0.00     0.170 HD
ENDROOT
BRANCH   1   7
HETATM    7  C   UNL     1     -40.980 -45.507  10.356  1.00  0.00     0.089 C 
HETATM    8  C   UNL     1     -39.985 -44.343  10.383  1.00  0.00     0.055 C 
HETATM    9  C   UNL     1     -40.091 -43.534  11.675  1.00  0.00     0.275 C 
HETATM   10  N   UNL     1     -41.449 -43.044  11.978  1.00  0.00     0.097 N 
HETATM   11  C   UNL     1     -42.406 -44.161  11.986  1.00  0.00     0.275 C 
HETATM   12  C   UNL     1     -42.387 -45.031  10.726  1.00  0.00     0.055 C 
BRANCH  10  13
HETATM   13  C   UNL     1     -41.884 -41.965  11.058  1.00  0.00     0.374 C 
BRANCH  13  14
HETATM   14  C   UNL     1     -41.446 -40.592  11.575  1.00  0.00     0.243 C 
HETATM   15  N   UNL     1     -41.301 -39.634  10.610  1.00  0.00    -0.369 N 
HETATM   16  H   UNL     1     -41.137 -38.689  10.933  1.00  0.00     0.159 HD
HETATM   17  H   UNL     1     -41.784 -39.764   9.730  1.00  0.00     0.159 HD
HETATM   18  O   UNL     1     -41.215 -40.353  12.753  1.00  0.00    -0.272 OA
ENDBRANCH  13  14
ENDBRANCH  10  13
ENDBRANCH   1   7
BRANCH   4  19
HETATM   19  C   UNL     1     -41.470 -49.943  12.328  1.00  0.00     0.051 A 
HETATM   20  C   UNL     1     -42.487 -50.072  13.263  1.00  0.00     0.035 A 
HETATM   21  C   UNL     1     -43.114 -51.312  13.427  1.00  0.00     0.051 A 
HETATM   22  C   UNL     1     -42.675 -52.432  12.720  1.00  0.00     0.103 A 
HETATM   23  N   UNL     1     -41.682 -52.300  11.812  1.00  0.00    -0.350 N 
HETATM   24  C   UNL     1     -41.116 -51.083  11.623  1.00  0.00     0.119 A 
ATOM     25  HN  UNL     1     -41.362 -53.107  11.276  1.00  0.00     0.166 HD
BRANCH  22  26
HETATM   26  N   UNL     1     -43.247 -53.683  12.896  1.00  0.00    -0.367 N 
HETATM   27  C   UNL     1     -42.776 -54.479  14.033  1.00  0.00     0.124 C 
HETATM   28  C   UNL     1     -44.001 -55.255  14.518  1.00  0.00     0.021 C 
HETATM   29  C   UNL     1     -45.184 -54.487  13.956  1.00  0.00     0.021 C 
HETATM   30  C   UNL     1     -44.661 -53.934  12.638  1.00  0.00     0.124 C 
ENDBRANCH  22  26
ENDBRANCH   4  19
TORSDOF 5
ENDMDL
MODEL 3
REMARK VINA RESULT:      -6.0      4.108      5.228
REMARK  5 active torsions:
REMARK  status: ('A' for Active; 'I' for Inactive)
REMARK       I    between atoms: N_1  and  C_2 
REMARK    1  A    between atoms: C_2  and  C_4 
REMARK    2  A    between atoms: C_4  and  N_5 
REMARK    3  A    between atoms: C_8  and  N_11 
REMARK       I    between atoms: N_11  and  C_12 
REMARK       I    between atoms: C_12  and  N_14 
REMARK    4  A    between atoms: N_14  and  C_15 
REMARK    5  A    between atoms: C_18  and  N_22 
ROOT
HETATM    1  N   UNL     1     -40.508 -52.872  14.398  1.00  0.00    -0.338 N 
HETATM    2  C   UNL     1     -41.159 -52.182  13.396  1.00  0.00     0.321 C 
HETATM    3  O   UNL     1     -41.864 -52.727  12.557  1.00  0.00    -0.247 OA
HETATM    4  N   UNL     1     -40.835 -50.841  13.417  1.00  0.00    -0.308 N 
HETATM    5  H   UNL     1     -40.466 -52.385  15.283  1.00  0.00     0.164 HD
HETATM    6  H   UNL     1     -39.913 -50.649  13.783  1.00  0.00     0.170 HD
ENDROOT
BRANCH   1   7
HETATM    7  C   UNL     1     -40.567 -54.336  14.426  1.00  0.00     0.089 C 
HETATM    8  C   UNL     1     -41.616 -54.870  15.405  1.00  0.00     0.055 C 
HETATM    9  C   UNL     1     -41.139 -54.783  16.854  1.00  0.00     0.275 C 
HETATM   10  N   UNL     1     -39.837 -55.428  17.107  1.00  0.00     0.097 N 
HETATM   11  C   UNL     1     -38.816 -54.896  16.192  1.00  0.00     0.275 C 
HETATM   12  C   UNL     1     -39.193 -54.948  14.709  1.00  0.00     0.055 C 
BRANCH  10  13
HETATM   13  C   UNL     1     -39.912 -56.908  17.035  1.00  0.00     0.374 C 
BRANCH  13  14
HETATM   14  C   UNL     1     -39.167 -57.555  18.206  1.00  0.00     0.243 C 
HETATM   15  N   UNL     1     -38.975 -56.739  19.287  1.00  0.00    -0.369 N 
HETATM   16  H   UNL     1     -38.601 -57.175  20.120  1.00  0.00     0.159 HD
HETATM   17  H   UNL     1     -39.583 -55.938  19.395  1.00  0.00     0.159 HD
HETATM   18  O   UNL     1     -38.745 -58.704  18.189  1.00  0.00    -0.272 OA
ENDBRANCH  13  14
ENDBRANCH  10  13
ENDBRANCH   1   7
BRANCH   4  19
HETATM   19  C   UNL     1     -41.347 -49.939  12.458  1.00  0.00     0.051 A 
HETATM   20  C   UNL     1     -42.535 -49.270  12.712  1.00  0.00     0.035 A 
HETATM   21  C   UNL     1     -43.023 -48.356  11.772  1.00  0.00     0.051 A 
HETATM   22  C   UNL     1     -42.368 -48.170  10.553  1.00  0.00     0.103 A 
HETATM   23  N   UNL     1     -41.211 -48.826  10.311  1.00  0.00    -0.350 N 
HETATM   24  C   UNL     1     -40.720 -49.670  11.251  1.00  0.00     0.119 A 
ATOM     25  HN  UNL     1     -40.713 -48.687   9.432  1.00  0.00     0.166 HD
BRANCH  22  26
HETATM   26  N   UNL     1     -42.852 -47.305   9.583  1.00  0.00    -0.367 N 
HETATM   27  C   UNL     1     -44.236 -47.503   9.142  1.00  0.00     0.124 C 
HETATM   28  C   UNL     1     -44.770 -46.101   8.849  1.00  0.00     0.021 C 
HETATM   29  C   UNL     1     -43.839 -45.173   9.607  1.00  0.00     0.021 C 
HETATM   30  C   UNL     1     -42.497 -45.890   9.558  1.00  0.00     0.124 C 
ENDBRANCH  22  26
ENDBRANCH   4  19
TORSDOF 5
ENDMDL
MODEL 4
REMARK VINA RESULT:      -5.9      8.776     14.289
REMARK  5 active torsions:
REMARK  status: ('A' for Active; 'I' for Inactive)
REMARK       I    between atoms: N_1  and  C_2 
REMARK    1  A    between atoms: C_2  and  C_4 
REMARK    2  A    between atoms: C_4  and  N_5 
REMARK    3  A    between atoms: C_8  and  N_11 
REMARK       I    between atoms: N_11  and  C_12 
REMARK       I    between atoms: C_12  and  N_14 
REMARK    4  A    between atoms: N_14  and  C_15 
REMARK    5  A    between atoms: C_18  and  N_22 
ROOT
HETATM    1  N   UNL     1     -40.114 -56.485  16.673  1.00  0.00    -0.338 N 
HETATM    2  C   UNL     1     -39.559 -57.024  17.816  1.00  0.00     0.321 C 
HETATM    3  O   UNL     1     -39.229 -56.348  18.782  1.00  0.00    -0.247 OA
HETATM    4  N   UNL     1     -39.351 -58.381  17.683  1.00  0.00    -0.308 N 
HETATM    5  H   UNL     1     -40.828 -57.058  16.244  1.00  0.00     0.164 HD
HETATM    6  H   UNL     1     -39.181 -58.677  16.733  1.00  0.00     0.170 HD
ENDROOT
BRANCH   1   7
HETATM    7  C   UNL     1     -40.232 -55.031  16.541  1.00  0.00     0.089 C 
HETATM    8  C   UNL     1     -41.648 -54.583  16.168  1.00  0.00     0.055 C 
HETATM    9  C   UNL     1     -41.949 -54.821  14.689  1.00  0.00     0.275 C 
HETATM   10  N   UNL     1     -40.969 -54.223  13.762  1.00  0.00     0.097 N 
HETATM   11  C   UNL     1     -39.610 -54.675  14.094  1.00  0.00     0.275 C 
HETATM   12  C   UNL     1     -39.204 -54.470  15.556  1.00  0.00     0.055 C 
BRANCH  10  13
HETATM   13  C   UNL     1     -41.053 -52.743  13.722  1.00  0.00     0.374 C 
BRANCH  13  14
HETATM   14  C   UNL     1     -40.479 -52.193  12.414  1.00  0.00     0.243 C 
HETATM   15  N   UNL     1     -41.245 -52.428  11.306  1.00  0.00    -0.369 N 
HETATM   16  H   UNL     1     -40.956 -51.969  10.452  1.00  0.00     0.159 HD
HETATM   17  H   UNL     1     -42.229 -52.623  11.438  1.00  0.00     0.159 HD
HETATM   18  O   UNL     1     -39.407 -51.606  12.338  1.00  0.00    -0.272 OA
ENDBRANCH  13  14
ENDBRANCH  10  13
ENDBRANCH   1   7
BRANCH   4  19
HETATM   19  C   UNL     1     -38.753 -59.145  18.710  1.00  0.00     0.051 A 
HETATM   20  C   UNL     1     -39.555 -59.862  19.586  1.00  0.00     0.035 A 
HETATM   21  C   UNL     1     -38.957 -60.640  20.583  1.00  0.00     0.051 A 
HETATM   22  C   UNL     1     -37.571 -60.638  20.754  1.00  0.00     0.103 A 
HETATM   23  N   UNL     1     -36.796 -59.935  19.898  1.00  0.00    -0.350 N 
HETATM   24  C   UNL     1     -37.383 -59.226  18.902  1.00  0.00     0.119 A 
ATOM     25  HN  UNL     1     -35.781 -59.938  20.000  1.00  0.00     0.166 HD
BRANCH  22  26
HETATM   26  N   UNL     1     -36.954 -61.362  21.762  1.00  0.00    -0.367 N 
HETATM   27  C   UNL     1     -37.651 -62.555  22.251  1.00  0.00     0.124 C 
HETATM   28  C   UNL     1     -36.547 -63.553  22.599  1.00  0.00     0.021 C 
HETATM   29  C   UNL     1     -35.334 -63.063  21.829  1.00  0.00     0.021 C 
HETATM   30  C   UNL     1     -35.508 -61.551  21.809  1.00  0.00     0.124 C 
ENDBRANCH  22  26
ENDBRANCH   4  19
TORSDOF 5
ENDMDL
MODEL 5
REMARK VINA RESULT:      -5.9      2.421      2.717
REMARK  5 active torsions:
REMARK  status: ('A' for Active; 'I' for Inactive)
REMARK       I    between atoms: N_1  and  C_2 
REMARK    1  A    between atoms: C_2  and  C_4 
REMARK    2  A    between atoms: C_4  and  N_5 
REMARK    3  A    between atoms: C_8  and  N_11 
REMARK       I    between atoms: N_11  and  C_12 
REMARK       I    between atoms: C_12  and  N_14 
REMARK    4  A    between atoms: N_14  and  C_15 
REMARK    5  A    between atoms: C_18  and  N_22 
ROOT
HETATM    1  N   UNL     1     -41.642 -51.872  12.391  1.00  0.00    -0.338 N 
HETATM    2  C   UNL     1     -41.231 -50.573  12.165  1.00  0.00     0.321 C 
HETATM    3  O   UNL     1     -40.086 -50.190  12.362  1.00  0.00    -0.247 OA
HETATM    4  N   UNL     1     -42.287 -49.771  11.786  1.00  0.00    -0.308 N 
HETATM    5  H   UNL     1     -42.315 -52.220  11.722  1.00  0.00     0.164 HD
HETATM    6  H   UNL     1     -43.179 -50.067  12.157  1.00  0.00     0.170 HD
ENDROOT
BRANCH   1   7
HETATM    7  C   UNL     1     -40.710 -52.832  12.987  1.00  0.00     0.089 C 
HETATM    8  C   UNL     1     -41.244 -54.267  12.966  1.00  0.00     0.055 C 
HETATM    9  C   UNL     1     -42.298 -54.498  14.047  1.00  0.00     0.275 C 
HETATM   10  N   UNL     1     -41.863 -54.141  15.410  1.00  0.00     0.097 N 
HETATM   11  C   UNL     1     -41.380 -52.753  15.446  1.00  0.00     0.275 C 
HETATM   12  C   UNL     1     -40.308 -52.419  14.405  1.00  0.00     0.055 C 
BRANCH  10  13
HETATM   13  C   UNL     1     -40.850 -55.082  15.949  1.00  0.00     0.374 C 
BRANCH  13  14
HETATM   14  C   UNL     1     -41.512 -56.200  16.758  1.00  0.00     0.243 C 
HETATM   15  N   UNL     1     -40.675 -57.215  17.128  1.00  0.00    -0.369 N 
HETATM   16  H   UNL     1     -41.053 -57.902  17.769  1.00  0.00     0.159 HD
HETATM   17  H   UNL     1     -39.681 -57.029  17.156  1.00  0.00     0.159 HD
HETATM   18  O   UNL     1     -42.704 -56.218  17.042  1.00  0.00    -0.272 OA
ENDBRANCH  13  14
ENDBRANCH  10  13
ENDBRANCH   1   7
BRANCH   4  19
HETATM   19  C   UNL     1     -42.120 -48.390  11.540  1.00  0.00     0.051 A 
HETATM   20  C   UNL     1     -42.297 -47.483  12.575  1.00  0.00     0.035 A 
HETATM   21  C   UNL     1     -42.101 -46.119  12.334  1.00  0.00     0.051 A 
HETATM   22  C   UNL     1     -41.807 -45.658  11.049  1.00  0.00     0.103 A 
HETATM   23  N   UNL     1     -41.638 -46.547  10.044  1.00  0.00    -0.350 N 
HETATM   24  C   UNL     1     -41.779 -47.870  10.301  1.00  0.00     0.119 A 
ATOM     25  HN  UNL     1     -41.407 -46.225   9.104  1.00  0.00     0.166 HD
BRANCH  22  26
HETATM   26  N   UNL     1     -41.653 -44.308  10.771  1.00  0.00    -0.367 N 
HETATM   27  C   UNL     1     -42.775 -43.425  11.101  1.00  0.00     0.124 C 
HETATM   28  C   UNL     1     -42.136 -42.107  11.538  1.00  0.00     0.021 C 
HETATM   29  C   UNL     1     -40.710 -42.478  11.904  1.00  0.00     0.021 C 
HETATM   30  C   UNL     1     -40.380 -43.619  10.951  1.00  0.00     0.124 C 
ENDBRANCH  22  26
ENDBRANCH   4  19
TORSDOF 5
ENDMDL
MODEL 6
REMARK VINA RESULT:      -5.8      4.521     10.133
REMARK  5 active torsions:
REMARK  status: ('A' for Active; 'I' for Inactive)
REMARK       I    between atoms: N_1  and  C_2 
REMARK    1  A    between atoms: C_2  and  C_4 
REMARK    2  A    between atoms: C_4  and  N_5 
REMARK    3  A    between atoms: C_8  and  N_11 
REMARK       I    between atoms: N_11  and  C_12 
REMARK       I    between atoms: C_12  and  N_14 
REMARK    4  A    between atoms: N_14  and  C_15 
REMARK    5  A    between atoms: C_18  and  N_22 
ROOT
HETATM    1  N   UNL     1     -41.739 -50.367  13.146  1.00  0.00    -0.338 N 
HETATM    2  C   UNL     1     -40.946 -51.114  13.994  1.00  0.00     0.321 C 
HETATM    3  O   UNL     1     -40.091 -50.620  14.718  1.00  0.00    -0.247 OA
HETATM    4  N   UNL     1     -41.182 -52.464  13.844  1.00  0.00    -0.308 N 
HETATM    5  H   UNL     1     -42.690 -50.699  13.063  1.00  0.00     0.164 HD
HETATM    6  H   UNL     1     -41.489 -52.725  12.918  1.00  0.00     0.170 HD
ENDROOT
BRANCH   1   7
HETATM    7  C   UNL     1     -41.502 -48.928  13.014  1.00  0.00     0.089 C 
HETATM    8  C   UNL     1     -42.797 -48.111  13.016  1.00  0.00     0.055 C 
HETATM    9  C   UNL     1     -43.526 -48.195  11.675  1.00  0.00     0.275 C 
HETATM   10  N   UNL     1     -42.701 -47.830  10.508  1.00  0.00     0.097 N 
HETATM   11  C   UNL     1     -41.470 -48.635  10.481  1.00  0.00     0.275 C 
HETATM   12  C   UNL     1     -40.657 -48.608  11.778  1.00  0.00     0.055 C 
BRANCH  10  13
HETATM   13  C   UNL     1     -42.401 -46.379  10.455  1.00  0.00     0.374 C 
BRANCH  13  14
HETATM   14  C   UNL     1     -43.112 -45.713   9.273  1.00  0.00     0.243 C 
HETATM   15  N   UNL     1     -43.116 -46.444   8.118  1.00  0.00    -0.369 N 
HETATM   16  H   UNL     1     -43.685 -46.088   7.361  1.00  0.00     0.159 HD
HETATM   17  H   UNL     1     -42.974 -47.443   8.184  1.00  0.00     0.159 HD
HETATM   18  O   UNL     1     -43.624 -44.602   9.329  1.00  0.00    -0.272 OA
ENDBRANCH  13  14
ENDBRANCH  10  13
ENDBRANCH   1   7
BRANCH   4  19
HETATM   19  C   UNL     1     -40.458 -53.431  14.577  1.00  0.00     0.051 A 
HETATM   20  C   UNL     1     -40.881 -53.785  15.850  1.00  0.00     0.035 A 
HETATM   21  C   UNL     1     -40.177 -54.763  16.560  1.00  0.00     0.051 A 
HETATM   22  C   UNL     1     -39.013 -55.326  16.034  1.00  0.00     0.103 A 
HETATM   23  N   UNL     1     -38.605 -54.976  14.793  1.00  0.00    -0.350 N 
HETATM   24  C   UNL     1     -39.324 -54.065  14.093  1.00  0.00     0.119 A 
ATOM     25  HN  UNL     1     -37.765 -55.391  14.389  1.00  0.00     0.166 HD
BRANCH  22  26
HETATM   26  N   UNL     1     -38.269 -56.264  16.734  1.00  0.00    -0.367 N 
HETATM   27  C   UNL     1     -36.941 -55.853  17.197  1.00  0.00     0.124 C 
HETATM   28  C   UNL     1     -36.740 -56.569  18.533  1.00  0.00     0.021 C 
HETATM   29  C   UNL     1     -38.143 -56.938  18.981  1.00  0.00     0.021 C 
HETATM   30  C   UNL     1     -38.882 -57.195  17.676  1.00  0.00     0.124 C 
ENDBRANCH  22  26
ENDBRANCH   4  19
TORSDOF 5
ENDMDL
MODEL 7
REMARK VINA RESULT:      -5.8      3.176      9.716
REMARK  5 active torsions:
REMARK  status: ('A' for Active; 'I' for Inactive)
REMARK       I    between atoms: N_1  and  C_2 
REMARK    1  A    between atoms: C_2  and  C_4 
REMARK    2  A    between atoms: C_4  and  N_5 
REMARK    3  A    between atoms: C_8  and  N_11 
REMARK       I    between atoms: N_11  and  C_12 
REMARK       I    between atoms: C_12  and  N_14 
REMARK    4  A    between atoms: N_14  and  C_15 
REMARK    5  A    between atoms: C_18  and  N_22 
ROOT
HETATM    1  N   UNL     1     -42.445 -48.895  11.181  1.00  0.00    -0.338 N 
HETATM    2  C   UNL     1     -42.298 -49.863  12.154  1.00  0.00     0.321 C 
HETATM    3  O   UNL     1     -42.847 -49.802  13.246  1.00  0.00    -0.247 OA
HETATM    4  N   UNL     1     -41.396 -50.832  11.766  1.00  0.00    -0.308 N 
HETATM    5  H   UNL     1     -42.475 -49.253  10.235  1.00  0.00     0.164 HD
HETATM    6  H   UNL     1     -40.683 -50.498  11.134  1.00  0.00     0.170 HD
ENDROOT
BRANCH   1   7
HETATM    7  C   UNL     1     -43.208 -47.681  11.477  1.00  0.00     0.089 C 
HETATM    8  C   UNL     1     -43.334 -46.749  10.268  1.00  0.00     0.055 C 
HETATM    9  C   UNL     1     -42.043 -45.971  10.012  1.00  0.00     0.275 C 
HETATM   10  N   UNL     1     -41.542 -45.220  11.179  1.00  0.00     0.097 N 
HETATM   11  C   UNL     1     -41.388 -46.116  12.336  1.00  0.00     0.275 C 
HETATM   12  C   UNL     1     -42.633 -46.935  12.684  1.00  0.00     0.055 C 
BRANCH  10  13
HETATM   13  C   UNL     1     -42.391 -44.049  11.509  1.00  0.00     0.374 C 
BRANCH  13  14
HETATM   14  C   UNL     1     -41.779 -42.755  10.966  1.00  0.00     0.243 C 
HETATM   15  N   UNL     1     -40.497 -42.510  11.373  1.00  0.00    -0.369 N 
HETATM   16  H   UNL     1     -40.024 -41.732  10.931  1.00  0.00     0.159 HD
HETATM   17  H   UNL     1     -39.940 -43.290  11.695  1.00  0.00     0.159 HD
HETATM   18  O   UNL     1     -42.381 -41.973  10.241  1.00  0.00    -0.272 OA
ENDBRANCH  13  14
ENDBRANCH  10  13
ENDBRANCH   1   7
BRANCH   4  19
HETATM   19  C   UNL     1     -41.049 -51.906  12.617  1.00  0.00     0.051 A 
HETATM   20  C   UNL     1     -41.787 -53.080  12.573  1.00  0.00     0.035 A 
HETATM   21  C   UNL     1     -41.421 -54.150  13.396  1.00  0.00     0.051 A 
HETATM   22  C   UNL     1     -40.375 -54.020  14.313  1.00  0.00     0.103 A 
HETATM   23  N   UNL     1     -39.662 -52.872  14.351  1.00  0.00    -0.350 N 
HETATM   24  C   UNL     1     -39.992 -51.860  13.512  1.00  0.00     0.119 A 
ATOM     25  HN  UNL     1     -38.885 -52.769  15.004  1.00  0.00     0.166 HD
BRANCH  22  26
HETATM   26  N   UNL     1     -40.021 -55.048  15.173  1.00  0.00    -0.367 N 
HETATM   27  C   UNL     1     -38.589 -55.279  15.384  1.00  0.00     0.124 C 
HETATM   28  C   UNL     1     -38.462 -55.724  16.841  1.00  0.00     0.021 C 
HETATM   29  C   UNL     1     -39.743 -55.242  17.499  1.00  0.00     0.021 C 
HETATM   30  C   UNL     1     -40.777 -55.341  16.386  1.00  0.00     0.124 C 
ENDBRANCH  22  26
ENDBRANCH   4  19
TORSDOF 5
ENDMDL
MODEL 8
REMARK VINA RESULT:      -5.7      5.559      7.236
REMARK  5 active torsions:
REMARK  status: ('A' for Active; 'I' for Inactive)
REMARK       I    between atoms: N_1  and  C_2 
REMARK    1  A    between atoms: C_2  and  C_4 
REMARK    2  A    between atoms: C_4  and  N_5 
REMARK    3  A    between atoms: C_8  and  N_11 
REMARK       I    between atoms: N_11  and  C_12 
REMARK       I    between atoms: C_12  and  N_14 
REMARK    4  A    between atoms: N_14  and  C_15 
REMARK    5  A    between atoms: C_18  and  N_22 
ROOT
HETATM    1  N   UNL     1     -38.792 -49.506  15.169  1.00  0.00    -0.338 N 
HETATM    2  C   UNL     1     -39.491 -48.766  14.237  1.00  0.00     0.321 C 
HETATM    3  O   UNL     1     -39.471 -47.543  14.202  1.00  0.00    -0.247 OA
HETATM    4  N   UNL     1     -40.267 -49.576  13.433  1.00  0.00    -0.308 N 
HETATM    5  H   UNL     1     -38.406 -50.370  14.814  1.00  0.00     0.164 HD
HETATM    6  H   UNL     1     -40.574 -50.425  13.883  1.00  0.00     0.170 HD
ENDROOT
BRANCH   1   7
HETATM    7  C   UNL     1     -38.063 -48.820  16.238  1.00  0.00     0.089 C 
HETATM    8  C   UNL     1     -36.580 -48.623  15.914  1.00  0.00     0.055 C 
HETATM    9  C   UNL     1     -35.782 -49.914  16.091  1.00  0.00     0.275 C 
HETATM   10  N   UNL     1     -35.930 -50.546  17.416  1.00  0.00     0.097 N 
HETATM   11  C   UNL     1     -37.351 -50.769  17.720  1.00  0.00     0.275 C 
HETATM   12  C   UNL     1     -38.239 -49.529  17.583  1.00  0.00     0.055 C 
BRANCH  10  13
HETATM   13  C   UNL     1     -35.259 -49.777  18.492  1.00  0.00     0.374 C 
BRANCH  13  14
HETATM   14  C   UNL     1     -34.810 -50.698  19.630  1.00  0.00     0.243 C 
HETATM   15  N   UNL     1     -33.754 -51.511  19.329  1.00  0.00    -0.369 N 
HETATM   16  H   UNL     1     -33.356 -52.036  20.097  1.00  0.00     0.159 HD
HETATM   17  H   UNL     1     -33.148 -51.245  18.563  1.00  0.00     0.159 HD
HETATM   18  O   UNL     1     -35.356 -50.736  20.725  1.00  0.00    -0.272 OA
ENDBRANCH  13  14
ENDBRANCH  10  13
ENDBRANCH   1   7
BRANCH   4  19
HETATM   19  C   UNL     1     -41.105 -49.040  12.429  1.00  0.00     0.051 A 
HETATM   20  C   UNL     1     -42.353 -48.540  12.774  1.00  0.00     0.035 A 
HETATM   21  C   UNL     1     -43.167 -47.985  11.781  1.00  0.00     0.051 A 
HETATM   22  C   UNL     1     -42.770 -48.001  10.442  1.00  0.00     0.103 A 
HETATM   23  N   UNL     1     -41.555 -48.492  10.113  1.00  0.00    -0.350 N 
HETATM   24  C   UNL     1     -40.751 -48.980  11.090  1.00  0.00     0.119 A 
ATOM     25  HN  UNL     1     -41.245 -48.495   9.141  1.00  0.00     0.166 HD
BRANCH  22  26
HETATM   26  N   UNL     1     -43.576 -47.500   9.431  1.00  0.00    -0.367 N 
HETATM   27  C   UNL     1     -45.023 -47.682   9.578  1.00  0.00     0.124 C 
HETATM   28  C   UNL     1     -45.652 -46.432   8.961  1.00  0.00     0.021 C 
HETATM   29  C   UNL     1     -44.533 -45.406   8.958  1.00  0.00     0.021 C 
HETATM   30  C   UNL     1     -43.278 -46.243   8.752  1.00  0.00     0.124 C 
ENDBRANCH  22  26
ENDBRANCH   4  19
TORSDOF 5
ENDMDL
MODEL 9
REMARK VINA RESULT:      -5.7      7.404     12.798
REMARK  5 active torsions:
REMARK  status: ('A' for Active; 'I' for Inactive)
REMARK       I    between atoms: N_1  and  C_2 
REMARK    1  A    between atoms: C_2  and  C_4 
REMARK    2  A    between atoms: C_4  and  N_5 
REMARK    3  A    between atoms: C_8  and  N_11 
REMARK       I    between atoms: N_11  and  C_12 
REMARK       I    between atoms: C_12  and  N_14 
REMARK    4  A    between atoms: N_14  and  C_15 
REMARK    5  A    between atoms: C_18  and  N_22 
ROOT
HETATM    1  N   UNL     1     -39.866 -54.514  15.393  1.00  0.00    -0.338 N 
HETATM    2  C   UNL     1     -39.109 -55.526  15.948  1.00  0.00     0.321 C 
HETATM    3  O   UNL     1     -38.111 -55.987  15.410  1.00  0.00    -0.247 OA
HETATM    4  N   UNL     1     -39.676 -55.994  17.115  1.00  0.00    -0.308 N 
HETATM    5  H   UNL     1     -40.240 -53.855  16.062  1.00  0.00     0.164 HD
HETATM    6  H   UNL     1     -40.681 -55.905  17.146  1.00  0.00     0.170 HD
ENDROOT
BRANCH   1   7
HETATM    7  C   UNL     1     -39.540 -54.017  14.054  1.00  0.00     0.089 C 
HETATM    8  C   UNL     1     -38.989 -52.588  14.069  1.00  0.00     0.055 C 
HETATM    9  C   UNL     1     -40.095 -51.554  14.270  1.00  0.00     0.275 C 
HETATM   10  N   UNL     1     -41.208 -51.655  13.307  1.00  0.00     0.097 N 
HETATM   11  C   UNL     1     -41.764 -53.017  13.311  1.00  0.00     0.275 C 
HETATM   12  C   UNL     1     -40.735 -54.131  13.105  1.00  0.00     0.055 C 
BRANCH  10  13
HETATM   13  C   UNL     1     -40.818 -51.233  11.940  1.00  0.00     0.374 C 
BRANCH  13  14
HETATM   14  C   UNL     1     -41.304 -49.811  11.644  1.00  0.00     0.243 C 
HETATM   15  N   UNL     1     -40.876 -49.294  10.452  1.00  0.00    -0.369 N 
HETATM   16  H   UNL     1     -41.283 -48.411  10.172  1.00  0.00     0.159 HD
HETATM   17  H   UNL     1     -40.582 -49.938   9.730  1.00  0.00     0.159 HD
HETATM   18  O   UNL     1     -42.001 -49.159  12.411  1.00  0.00    -0.272 OA
ENDBRANCH  13  14
ENDBRANCH  10  13
ENDBRANCH   1   7
BRANCH   4  19
HETATM   19  C   UNL     1     -39.102 -57.061  17.843  1.00  0.00     0.051 A 
HETATM   20  C   UNL     1     -38.102 -56.800  18.768  1.00  0.00     0.035 A 
HETATM   21  C   UNL     1     -37.558 -57.856  19.506  1.00  0.00     0.051 A 
HETATM   22  C   UNL     1     -37.955 -59.173  19.265  1.00  0.00     0.103 A 
HETATM   23  N   UNL     1     -38.928 -59.421  18.361  1.00  0.00    -0.350 N 
HETATM   24  C   UNL     1     -39.486 -58.384  17.688  1.00  0.00     0.119 A 
ATOM     25  HN  UNL     1     -39.240 -60.376  18.187  1.00  0.00     0.166 HD
BRANCH  22  26
HETATM   26  N   UNL     1     -37.400 -60.244  19.949  1.00  0.00    -0.367 N 
HETATM   27  C   UNL     1     -35.938 -60.304  20.024  1.00  0.00     0.124 C 
HETATM   28  C   UNL     1     -35.628 -60.909  21.394  1.00  0.00     0.021 C 
HETATM   29  C   UNL     1     -36.896 -60.693  22.200  1.00  0.00     0.021 C 
HETATM   30  C   UNL     1     -38.004 -60.789  21.161  1.00  0.00     0.124 C 
ENDBRANCH  22  26
ENDBRANCH   4  19
TORSDOF 5
ENDMDL
