MODEL 1
REMARK VINA RESULT:      -5.6      0.000      0.000
REMARK  6 active torsions:
REMARK  status: ('A' for Active; 'I' for Inactive)
REMARK    1  A    between atoms: C_2  and  C_4 
REMARK    2  A    between atoms: C_4  and  C_5 
REMARK    3  A    between atoms: C_5  and  N_7 
REMARK    4  A    between atoms: N_7  and  C_8 
REMARK    5  A    between atoms: C_8  and  C_9 
REMARK    6  A    between atoms: C_15  and  N_16 
ROOT
HETATM    1  C   UNL     1     -41.330 -52.913  12.843  1.00  0.00     0.014 A 
HETATM    2  C   UNL     1     -41.003 -54.173  13.376  1.00  0.00     0.014 A 
HETATM    3  C   UNL     1     -39.814 -54.364  14.059  1.00  0.00     0.018 A 
HETATM    4  C   UNL     1     -38.958 -53.295  14.156  1.00  0.00     0.089 A 
HETATM    5  N   UNL     1     -39.225 -52.072  13.648  1.00  0.00    -0.352 N 
ATOM      6  HN  UNL     1     -38.550 -51.313  13.747  1.00  0.00     0.166 HD
HETATM    7  C   UNL     1     -40.400 -51.865  13.004  1.00  0.00     0.111 A 
ENDROOT
BRANCH   1   8
HETATM    8  C   UNL     1     -42.666 -52.747  12.153  1.00  0.00     0.312 C 
BRANCH   8   9
HETATM    9  N   UNL     1     -43.635 -53.843  12.326  1.00  0.00     0.091 N 
HETATM   10  H   UNL     1     -44.081 -54.020  11.427  1.00  0.00     0.316 HD
BRANCH   9  11
HETATM   11  C   UNL     1     -44.682 -53.574  13.334  1.00  0.00     0.217 C 
HETATM   12  C   UNL     1     -45.298 -54.928  13.702  1.00  0.00     0.042 C 
BRANCH  11  13
HETATM   13  C   UNL     1     -45.758 -52.582  12.840  1.00  0.00     0.039 C 
BRANCH  13  14
HETATM   14  C   UNL     1     -45.992 -51.349  13.735  1.00  0.00    -0.021 C 
HETATM   15  C   UNL     1     -46.929 -51.660  14.904  1.00  0.00     0.009 C 
HETATM   16  C   UNL     1     -44.643 -50.855  14.273  1.00  0.00     0.009 C 
ENDBRANCH  13  14
ENDBRANCH  11  13
ENDBRANCH   9  11
ENDBRANCH   8   9
ENDBRANCH   1   8
BRANCH   7  17
HETATM   17  N   UNL     1     -40.711 -50.559  12.674  1.00  0.00    -0.363 N 
HETATM   18  C   UNL     1     -40.715 -49.570  13.765  1.00  0.00     0.150 C 
HETATM   19  C   UNL     1     -41.711 -48.465  13.369  1.00  0.00     0.187 C 
HETATM   20  O   UNL     1     -41.378 -47.863  12.102  1.00  0.00    -0.388 OA
HETATM   21  C   UNL     1     -41.287 -48.860  11.065  1.00  0.00     0.187 C 
HETATM   22  C   UNL     1     -40.248 -49.943  11.420  1.00  0.00     0.150 C 
ENDBRANCH   7  17
TORSDOF 6
ENDMDL
MODEL 2
REMARK VINA RESULT:      -5.6      2.088      2.950
REMARK  6 active torsions:
REMARK  status: ('A' for Active; 'I' for Inactive)
REMARK    1  A    between atoms: C_2  and  C_4 
REMARK    2  A    between atoms: C_4  and  C_5 
REMARK    3  A    between atoms: C_5  and  N_7 
REMARK    4  A    between atoms: N_7  and  C_8 
REMARK    5  A    between atoms: C_8  and  C_9 
REMARK    6  A    between atoms: C_15  and  N_16 
ROOT
HETATM    1  C   UNL     1     -40.042 -50.256  12.574  1.00  0.00     0.014 A 
HETATM    2  C   UNL     1     -38.940 -51.079  12.870  1.00  0.00     0.014 A 
HETATM    3  C   UNL     1     -37.694 -50.813  12.331  1.00  0.00     0.018 A 
HETATM    4  C   UNL     1     -37.588 -49.747  11.470  1.00  0.00     0.089 A 
HETATM    5  N   UNL     1     -38.621 -48.939  11.147  1.00  0.00    -0.352 N 
ATOM      6  HN  UNL     1     -38.487 -48.162  10.500  1.00  0.00     0.166 HD
HETATM    7  C   UNL     1     -39.840 -49.172  11.695  1.00  0.00     0.111 A 
ENDROOT
BRANCH   1   8
HETATM    8  C   UNL     1     -41.368 -50.562  13.234  1.00  0.00     0.312 C 
BRANCH   8   9
HETATM    9  N   UNL     1     -42.378 -51.235  12.399  1.00  0.00     0.091 N 
HETATM   10  H   UNL     1     -42.794 -50.541  11.780  1.00  0.00     0.316 HD
BRANCH   9  11
HETATM   11  C   UNL     1     -43.454 -51.898  13.165  1.00  0.00     0.217 C 
HETATM   12  C   UNL     1     -43.722 -53.240  12.476  1.00  0.00     0.042 C 
BRANCH  11  13
HETATM   13  C   UNL     1     -44.741 -51.049  13.262  1.00  0.00     0.039 C 
BRANCH  13  14
HETATM   14  C   UNL     1     -46.056 -51.841  13.393  1.00  0.00    -0.021 C 
HETATM   15  C   UNL     1     -46.845 -51.438  14.641  1.00  0.00     0.009 C 
HETATM   16  C   UNL     1     -46.913 -51.602  12.142  1.00  0.00     0.009 C 
ENDBRANCH  13  14
ENDBRANCH  11  13
ENDBRANCH   9  11
ENDBRANCH   8   9
ENDBRANCH   1   8
BRANCH   7  17
HETATM   17  N   UNL     1     -40.813 -48.211  11.488  1.00  0.00    -0.363 N 
HETATM   18  C   UNL     1     -40.455 -46.815  11.788  1.00  0.00     0.150 C 
HETATM   19  C   UNL     1     -41.756 -46.089  12.174  1.00  0.00     0.187 C 
HETATM   20  O   UNL     1     -42.754 -46.175  11.136  1.00  0.00    -0.388 OA
HETATM   21  C   UNL     1     -43.023 -47.549  10.791  1.00  0.00     0.187 C 
HETATM   22  C   UNL     1     -41.736 -48.274  10.344  1.00  0.00     0.150 C 
ENDBRANCH   7  17
TORSDOF 6
ENDMDL
MODEL 3
REMARK VINA RESULT:      -5.5      2.766      5.380
REMARK  6 active torsions:
REMARK  status: ('A' for Active; 'I' for Inactive)
REMARK    1  A    between atoms: C_2  and  C_4 
REMARK    2  A    between atoms: C_4  and  C_5 
REMARK    3  A    between atoms: C_5  and  N_7 
REMARK    4  A    between atoms: N_7  and  C_8 
REMARK    5  A    between atoms: C_8  and  C_9 
REMARK    6  A    between atoms: C_15  and  N_16 
ROOT
HETATM    1  C   UNL     1     -39.843 -50.135  12.118  1.00  0.00     0.014 A 
HETATM    2  C   UNL     1     -38.680 -49.580  11.552  1.00  0.00     0.014 A 
HETATM    3  C   UNL     1     -37.429 -50.057  11.900  1.00  0.00     0.018 A 
HETATM    4  C   UNL     1     -37.368 -51.056  12.842  1.00  0.00     0.089 A 
HETATM    5  N   UNL     1     -38.457 -51.609  13.420  1.00  0.00    -0.352 N 
ATOM      6  HN  UNL     1     -38.353 -52.347  14.116  1.00  0.00     0.166 HD
HETATM    7  C   UNL     1     -39.690 -51.170  13.063  1.00  0.00     0.111 A 
ENDROOT
BRANCH   1   8
HETATM    8  C   UNL     1     -41.187 -49.612  11.661  1.00  0.00     0.312 C 
BRANCH   8   9
HETATM    9  N   UNL     1     -41.230 -48.990  10.325  1.00  0.00     0.091 N 
HETATM   10  H   UNL     1     -40.276 -48.910   9.980  1.00  0.00     0.316 HD
BRANCH   9  11
HETATM   11  C   UNL     1     -41.863 -47.655  10.299  1.00  0.00     0.217 C 
HETATM   12  C   UNL     1     -41.231 -46.846  11.436  1.00  0.00     0.042 C 
BRANCH  11  13
HETATM   13  C   UNL     1     -43.401 -47.710  10.434  1.00  0.00     0.039 C 
BRANCH  13  14
HETATM   14  C   UNL     1     -44.198 -47.197   9.218  1.00  0.00    -0.021 C 
HETATM   15  C   UNL     1     -43.633 -47.728   7.899  1.00  0.00     0.009 C 
HETATM   16  C   UNL     1     -45.664 -47.628   9.361  1.00  0.00     0.009 C 
ENDBRANCH  13  14
ENDBRANCH  11  13
ENDBRANCH   9  11
ENDBRANCH   8   9
ENDBRANCH   1   8
BRANCH   7  17
HETATM   17  N   UNL     1     -40.771 -51.892  13.534  1.00  0.00    -0.363 N 
HETATM   18  C   UNL     1     -41.039 -53.194  12.901  1.00  0.00     0.150 C 
HETATM   19  C   UNL     1     -42.550 -53.456  13.029  1.00  0.00     0.187 C 
HETATM   20  O   UNL     1     -42.992 -53.426  14.402  1.00  0.00    -0.388 OA
HETATM   21  C   UNL     1     -42.638 -52.179  15.031  1.00  0.00     0.187 C 
HETATM   22  C   UNL     1     -41.116 -51.932  14.964  1.00  0.00     0.150 C 
ENDBRANCH   7  17
TORSDOF 6
ENDMDL
MODEL 4
REMARK VINA RESULT:      -5.4      1.595      2.278
REMARK  6 active torsions:
REMARK  status: ('A' for Active; 'I' for Inactive)
REMARK    1  A    between atoms: C_2  and  C_4 
REMARK    2  A    between atoms: C_4  and  C_5 
REMARK    3  A    between atoms: C_5  and  N_7 
REMARK    4  A    between atoms: N_7  and  C_8 
REMARK    5  A    between atoms: C_8  and  C_9 
REMARK    6  A    between atoms: C_15  and  N_16 
ROOT
HETATM    1  C   UNL     1     -43.081 -53.010  13.692  1.00  0.00     0.014 A 
HETATM    2  C   UNL     1     -43.669 -54.142  14.286  1.00  0.00     0.014 A 
HETATM    3  C   UNL     1     -42.917 -54.999  15.070  1.00  0.00     0.018 A 
HETATM    4  C   UNL     1     -41.578 -54.725  15.206  1.00  0.00     0.089 A 
HETATM    5  N   UNL     1     -40.969 -53.659  14.643  1.00  0.00    -0.352 N 
ATOM      6  HN  UNL     1     -39.969 -53.505  14.776  1.00  0.00     0.166 HD
HETATM    7  C   UNL     1     -41.703 -52.795  13.899  1.00  0.00     0.111 A 
ENDROOT
BRANCH   1   8
HETATM    8  C   UNL     1     -43.962 -52.077  12.890  1.00  0.00     0.312 C 
BRANCH   8   9
HETATM    9  N   UNL     1     -45.047 -52.703  12.113  1.00  0.00     0.091 N 
HETATM   10  H   UNL     1     -44.922 -52.455  11.134  1.00  0.00     0.316 HD
BRANCH   9  11
HETATM   11  C   UNL     1     -46.404 -52.304  12.538  1.00  0.00     0.217 C 
HETATM   12  C   UNL     1     -47.130 -51.807  11.284  1.00  0.00     0.042 C 
BRANCH  11  13
HETATM   13  C   UNL     1     -46.401 -51.229  13.649  1.00  0.00     0.039 C 
BRANCH  13  14
HETATM   14  C   UNL     1     -46.907 -51.692  15.029  1.00  0.00    -0.021 C 
HETATM   15  C   UNL     1     -47.075 -53.212  15.097  1.00  0.00     0.009 C 
HETATM   16  C   UNL     1     -45.916 -51.234  16.107  1.00  0.00     0.009 C 
ENDBRANCH  13  14
ENDBRANCH  11  13
ENDBRANCH   9  11
ENDBRANCH   8   9
ENDBRANCH   1   8
BRANCH   7  17
HETATM   17  N   UNL     1     -41.082 -51.624  13.506  1.00  0.00    -0.363 N 
HETATM   18  C   UNL     1     -40.398 -50.841  14.550  1.00  0.00     0.150 C 
HETATM   19  C   UNL     1     -40.426 -49.369  14.101  1.00  0.00     0.187 C 
HETATM   20  O   UNL     1     -39.815 -49.185  12.807  1.00  0.00    -0.388 OA
HETATM   21  C   UNL     1     -40.438 -50.029  11.818  1.00  0.00     0.187 C 
HETATM   22  C   UNL     1     -40.365 -51.515  12.227  1.00  0.00     0.150 C 
ENDBRANCH   7  17
TORSDOF 6
ENDMDL
MODEL 5
REMARK VINA RESULT:      -5.4      2.763      5.776
REMARK  6 active torsions:
REMARK  status: ('A' for Active; 'I' for Inactive)
REMARK    1  A    between atoms: C_2  and  C_4 
REMARK    2  A    between atoms: C_4  and  C_5 
REMARK    3  A    between atoms: C_5  and  N_7 
REMARK    4  A    between atoms: N_7  and  C_8 
REMARK    5  A    between atoms: C_8  and  C_9 
REMARK    6  A    between atoms: C_15  and  N_16 
ROOT
HETATM    1  C   UNL     1     -39.824 -50.293  12.021  1.00  0.00     0.014 A 
HETATM    2  C   UNL     1     -38.701 -49.677  11.439  1.00  0.00     0.014 A 
HETATM    3  C   UNL     1     -37.421 -50.045  11.812  1.00  0.00     0.018 A 
HETATM    4  C   UNL     1     -37.293 -50.998  12.794  1.00  0.00     0.089 A 
HETATM    5  N   UNL     1     -38.343 -51.606  13.389  1.00  0.00    -0.352 N 
ATOM      6  HN  UNL     1     -38.190 -52.305  14.116  1.00  0.00     0.166 HD
HETATM    7  C   UNL     1     -39.602 -51.275  13.009  1.00  0.00     0.111 A 
ENDROOT
BRANCH   1   8
HETATM    8  C   UNL     1     -41.200 -49.891  11.537  1.00  0.00     0.312 C 
BRANCH   8   9
HETATM    9  N   UNL     1     -41.248 -48.916  10.433  1.00  0.00     0.091 N 
HETATM   10  H   UNL     1     -40.338 -48.463  10.367  1.00  0.00     0.316 HD
BRANCH   9  11
HETATM   11  C   UNL     1     -42.288 -47.878  10.586  1.00  0.00     0.217 C 
HETATM   12  C   UNL     1     -42.903 -47.662   9.200  1.00  0.00     0.042 C 
BRANCH  11  13
HETATM   13  C   UNL     1     -41.744 -46.556  11.172  1.00  0.00     0.039 C 
BRANCH  13  14
HETATM   14  C   UNL     1     -40.212 -46.387  11.133  1.00  0.00    -0.021 C 
HETATM   15  C   UNL     1     -39.791 -45.178  10.295  1.00  0.00     0.009 C 
HETATM   16  C   UNL     1     -39.688 -46.229  12.566  1.00  0.00     0.009 C 
ENDBRANCH  13  14
ENDBRANCH  11  13
ENDBRANCH   9  11
ENDBRANCH   8   9
ENDBRANCH   1   8
BRANCH   7  17
HETATM   17  N   UNL     1     -40.630 -52.055  13.505  1.00  0.00    -0.363 N 
HETATM   18  C   UNL     1     -40.579 -53.499  13.217  1.00  0.00     0.150 C 
HETATM   19  C   UNL     1     -42.032 -54.007  13.202  1.00  0.00     0.187 C 
HETATM   20  O   UNL     1     -42.716 -53.732  14.441  1.00  0.00    -0.388 OA
HETATM   21  C   UNL     1     -42.674 -52.325  14.752  1.00  0.00     0.187 C 
HETATM   22  C   UNL     1     -41.221 -51.813  14.830  1.00  0.00     0.150 C 
ENDBRANCH   7  17
TORSDOF 6
ENDMDL
MODEL 6
REMARK VINA RESULT:      -5.2      2.011      4.304
REMARK  6 active torsions:
REMARK  status: ('A' for Active; 'I' for Inactive)
REMARK    1  A    between atoms: C_2  and  C_4 
REMARK    2  A    between atoms: C_4  and  C_5 
REMARK    3  A    between atoms: C_5  and  N_7 
REMARK    4  A    between atoms: N_7  and  C_8 
REMARK    5  A    between atoms: C_8  and  C_9 
REMARK    6  A    between atoms: C_15  and  N_16 
ROOT
HETATM    1  C   UNL     1     -42.794 -49.711  12.524  1.00  0.00     0.014 A 
HETATM    2  C   UNL     1     -43.415 -48.591  11.940  1.00  0.00     0.014 A 
HETATM    3  C   UNL     1     -42.727 -47.788  11.047  1.00  0.00     0.018 A 
HETATM    4  C   UNL     1     -41.415 -48.102  10.790  1.00  0.00     0.089 A 
HETATM    5  N   UNL     1     -40.775 -49.158  11.338  1.00  0.00    -0.352 N 
ATOM      6  HN  UNL     1     -39.797 -49.343  11.114  1.00  0.00     0.166 HD
HETATM    7  C   UNL     1     -41.449 -49.970  12.190  1.00  0.00     0.111 A 
ENDROOT
BRANCH   1   8
HETATM    8  C   UNL     1     -43.610 -50.586  13.451  1.00  0.00     0.312 C 
BRANCH   8   9
HETATM    9  N   UNL     1     -44.397 -51.659  12.818  1.00  0.00     0.091 N 
HETATM   10  H   UNL     1     -44.958 -51.247  12.075  1.00  0.00     0.316 HD
BRANCH   9  11
HETATM   11  C   UNL     1     -45.290 -52.382  13.746  1.00  0.00     0.217 C 
HETATM   12  C   UNL     1     -46.328 -51.369  14.239  1.00  0.00     0.042 C 
BRANCH  11  13
HETATM   13  C   UNL     1     -44.537 -53.036  14.927  1.00  0.00     0.039 C 
BRANCH  13  14
HETATM   14  C   UNL     1     -44.614 -54.573  15.000  1.00  0.00    -0.021 C 
HETATM   15  C   UNL     1     -45.385 -55.165  13.818  1.00  0.00     0.009 C 
HETATM   16  C   UNL     1     -43.191 -55.146  15.026  1.00  0.00     0.009 C 
ENDBRANCH  13  14
ENDBRANCH  11  13
ENDBRANCH   9  11
ENDBRANCH   8   9
ENDBRANCH   1   8
BRANCH   7  17
HETATM   17  N   UNL     1     -40.816 -51.139  12.571  1.00  0.00    -0.363 N 
HETATM   18  C   UNL     1     -41.062 -52.337  11.751  1.00  0.00     0.150 C 
HETATM   19  C   UNL     1     -40.897 -53.558  12.674  1.00  0.00     0.187 C 
HETATM   20  O   UNL     1     -39.597 -53.594  13.300  1.00  0.00    -0.388 OA
HETATM   21  C   UNL     1     -39.338 -52.373  14.021  1.00  0.00     0.187 C 
HETATM   22  C   UNL     1     -39.441 -51.144  13.094  1.00  0.00     0.150 C 
ENDBRANCH   7  17
TORSDOF 6
ENDMDL
MODEL 7
REMARK VINA RESULT:      -5.2      2.158      3.523
REMARK  6 active torsions:
REMARK  status: ('A' for Active; 'I' for Inactive)
REMARK    1  A    between atoms: C_2  and  C_4 
REMARK    2  A    between atoms: C_4  and  C_5 
REMARK    3  A    between atoms: C_5  and  N_7 
REMARK    4  A    between atoms: N_7  and  C_8 
REMARK    5  A    between atoms: C_8  and  C_9 
REMARK    6  A    between atoms: C_15  and  N_16 
ROOT
HETATM    1  C   UNL     1     -40.506 -50.395  12.132  1.00  0.00     0.014 A 
HETATM    2  C   UNL     1     -39.429 -51.207  12.534  1.00  0.00     0.014 A 
HETATM    3  C   UNL     1     -38.125 -50.758  12.422  1.00  0.00     0.018 A 
HETATM    4  C   UNL     1     -37.926 -49.516  11.869  1.00  0.00     0.089 A 
HETATM    5  N   UNL     1     -38.928 -48.708  11.458  1.00  0.00    -0.352 N 
ATOM      6  HN  UNL     1     -38.721 -47.796  11.051  1.00  0.00     0.166 HD
HETATM    7  C   UNL     1     -40.211 -49.126  11.592  1.00  0.00     0.111 A 
ENDROOT
BRANCH   1   8
HETATM    8  C   UNL     1     -41.913 -50.914  12.327  1.00  0.00     0.312 C 
BRANCH   8   9
HETATM    9  N   UNL     1     -42.212 -52.236  11.749  1.00  0.00     0.091 N 
HETATM   10  H   UNL     1     -42.859 -52.107  10.974  1.00  0.00     0.316 HD
BRANCH   9  11
HETATM   11  C   UNL     1     -42.797 -53.197  12.706  1.00  0.00     0.217 C 
HETATM   12  C   UNL     1     -44.298 -53.261  12.404  1.00  0.00     0.042 C 
BRANCH  11  13
HETATM   13  C   UNL     1     -42.537 -52.820  14.182  1.00  0.00     0.039 C 
BRANCH  13  14
HETATM   14  C   UNL     1     -41.765 -53.863  15.013  1.00  0.00    -0.021 C 
HETATM   15  C   UNL     1     -42.620 -55.094  15.323  1.00  0.00     0.009 C 
HETATM   16  C   UNL     1     -40.509 -54.289  14.242  1.00  0.00     0.009 C 
ENDBRANCH  13  14
ENDBRANCH  11  13
ENDBRANCH   9  11
ENDBRANCH   8   9
ENDBRANCH   1   8
BRANCH   7  17
HETATM   17  N   UNL     1     -41.201 -48.194  11.338  1.00  0.00    -0.363 N 
HETATM   18  C   UNL     1     -40.963 -46.816  11.799  1.00  0.00     0.150 C 
HETATM   19  C   UNL     1     -42.342 -46.186  12.068  1.00  0.00     0.187 C 
HETATM   20  O   UNL     1     -43.192 -46.223  10.903  1.00  0.00    -0.388 OA
HETATM   21  C   UNL     1     -43.337 -47.570  10.412  1.00  0.00     0.187 C 
HETATM   22  C   UNL     1     -41.965 -48.194  10.081  1.00  0.00     0.150 C 
ENDBRANCH   7  17
TORSDOF 6
ENDMDL
MODEL 8
REMARK VINA RESULT:      -5.2      2.216      3.809
REMARK  6 active torsions:
REMARK  status: ('A' for Active; 'I' for Inactive)
REMARK    1  A    between atoms: C_2  and  C_4 
REMARK    2  A    between atoms: C_4  and  C_5 
REMARK    3  A    between atoms: C_5  and  N_7 
REMARK    4  A    between atoms: N_7  and  C_8 
REMARK    5  A    between atoms: C_8  and  C_9 
REMARK    6  A    between atoms: C_15  and  N_16 
ROOT
HETATM    1  C   UNL     1     -41.671 -49.601  12.346  1.00  0.00     0.014 A 
HETATM    2  C   UNL     1     -40.910 -50.605  12.973  1.00  0.00     0.014 A 
HETATM    3  C   UNL     1     -39.587 -50.810  12.623  1.00  0.00     0.018 A 
HETATM    4  C   UNL     1     -39.066 -50.029  11.620  1.00  0.00     0.089 A 
HETATM    5  N   UNL     1     -39.763 -49.063  10.983  1.00  0.00    -0.352 N 
ATOM      6  HN  UNL     1     -39.326 -48.514  10.242  1.00  0.00     0.166 HD
HETATM    7  C   UNL     1     -41.051 -48.833  11.339  1.00  0.00     0.111 A 
ENDROOT
BRANCH   1   8
HETATM    8  C   UNL     1     -43.096 -49.384  12.806  1.00  0.00     0.312 C 
BRANCH   8   9
HETATM    9  N   UNL     1     -43.976 -50.566  12.798  1.00  0.00     0.091 N 
HETATM   10  H   UNL     1     -44.808 -50.341  12.255  1.00  0.00     0.316 HD
BRANCH   9  11
HETATM   11  C   UNL     1     -44.390 -51.023  14.140  1.00  0.00     0.217 C 
HETATM   12  C   UNL     1     -43.869 -49.984  15.139  1.00  0.00     0.042 C 
BRANCH  11  13
HETATM   13  C   UNL     1     -43.877 -52.439  14.484  1.00  0.00     0.039 C 
BRANCH  13  14
HETATM   14  C   UNL     1     -43.631 -53.372  13.281  1.00  0.00    -0.021 C 
HETATM   15  C   UNL     1     -42.260 -54.046  13.352  1.00  0.00     0.009 C 
HETATM   16  C   UNL     1     -44.730 -54.441  13.243  1.00  0.00     0.009 C 
ENDBRANCH  13  14
ENDBRANCH  11  13
ENDBRANCH   9  11
ENDBRANCH   8   9
ENDBRANCH   1   8
BRANCH   7  17
HETATM   17  N   UNL     1     -41.659 -47.715  10.797  1.00  0.00    -0.363 N 
HETATM   18  C   UNL     1     -40.871 -46.472  10.759  1.00  0.00     0.150 C 
HETATM   19  C   UNL     1     -41.871 -45.302  10.816  1.00  0.00     0.187 C 
HETATM   20  O   UNL     1     -42.835 -45.360   9.745  1.00  0.00    -0.388 OA
HETATM   21  C   UNL     1     -43.531 -46.622   9.744  1.00  0.00     0.187 C 
HETATM   22  C   UNL     1     -42.544 -47.803   9.626  1.00  0.00     0.150 C 
ENDBRANCH   7  17
TORSDOF 6
ENDMDL
MODEL 9
REMARK VINA RESULT:      -5.2      2.326      5.547
REMARK  6 active torsions:
REMARK  status: ('A' for Active; 'I' for Inactive)
REMARK    1  A    between atoms: C_2  and  C_4 
REMARK    2  A    between atoms: C_4  and  C_5 
REMARK    3  A    between atoms: C_5  and  N_7 
REMARK    4  A    between atoms: N_7  and  C_8 
REMARK    5  A    between atoms: C_8  and  C_9 
REMARK    6  A    between atoms: C_15  and  N_16 
ROOT
HETATM    1  C   UNL     1     -41.379 -53.127  13.197  1.00  0.00     0.014 A 
HETATM    2  C   UNL     1     -40.069 -53.636  13.244  1.00  0.00     0.014 A 
HETATM    3  C   UNL     1     -39.638 -54.378  14.330  1.00  0.00     0.018 A 
HETATM    4  C   UNL     1     -40.521 -54.559  15.367  1.00  0.00     0.089 A 
HETATM    5  N   UNL     1     -41.783 -54.077  15.370  1.00  0.00    -0.352 N 
ATOM      6  HN  UNL     1     -42.396 -54.239  16.170  1.00  0.00     0.166 HD
HETATM    7  C   UNL     1     -42.226 -53.375  14.298  1.00  0.00     0.111 A 
ENDROOT
BRANCH   1   8
HETATM    8  C   UNL     1     -41.814 -52.368  11.962  1.00  0.00     0.312 C 
BRANCH   8   9
HETATM    9  N   UNL     1     -40.838 -51.421  11.396  1.00  0.00     0.091 N 
HETATM   10  H   UNL     1     -39.915 -51.848  11.441  1.00  0.00     0.316 HD
BRANCH   9  11
HETATM   11  C   UNL     1     -40.794 -50.114  12.084  1.00  0.00     0.217 C 
HETATM   12  C   UNL     1     -41.168 -49.055  11.042  1.00  0.00     0.042 C 
BRANCH  11  13
HETATM   13  C   UNL     1     -39.421 -49.812  12.724  1.00  0.00     0.039 C 
BRANCH  13  14
HETATM   14  C   UNL     1     -38.237 -50.642  12.190  1.00  0.00    -0.021 C 
HETATM   15  C   UNL     1     -37.423 -49.873  11.147  1.00  0.00     0.009 C 
HETATM   16  C   UNL     1     -37.329 -51.036  13.363  1.00  0.00     0.009 C 
ENDBRANCH  13  14
ENDBRANCH  11  13
ENDBRANCH   9  11
ENDBRANCH   8   9
ENDBRANCH   1   8
BRANCH   7  17
HETATM   17  N   UNL     1     -43.574 -53.070  14.263  1.00  0.00    -0.363 N 
HETATM   18  C   UNL     1     -44.519 -54.162  14.548  1.00  0.00     0.150 C 
HETATM   19  C   UNL     1     -45.824 -53.838  13.798  1.00  0.00     0.187 C 
HETATM   20  O   UNL     1     -46.360 -52.553  14.173  1.00  0.00    -0.388 OA
HETATM   21  C   UNL     1     -45.387 -51.509  13.974  1.00  0.00     0.187 C 
HETATM   22  C   UNL     1     -44.095 -51.791  14.769  1.00  0.00     0.150 C 
ENDBRANCH   7  17
TORSDOF 6
ENDMDL
