MODEL 1
REMARK VINA RESULT:      -6.0      0.000      0.000
REMARK  3 active torsions:
REMARK  status: ('A' for Active; 'I' for Inactive)
REMARK    1  A    between atoms: C_2  and  C_5 
REMARK       I    between atoms: C_5  and  N_7 
REMARK    2  A    between atoms: N_7  and  C_8 
REMARK    3  A    between atoms: C_11  and  N_15 
ROOT
HETATM    1  C   UNL     1     -42.781 -51.181  12.998  1.00  0.00     0.050 A 
HETATM    2  C   UNL     1     -43.448 -49.965  13.047  1.00  0.00     0.035 A 
HETATM    3  C   UNL     1     -43.025 -48.905  12.249  1.00  0.00     0.051 A 
HETATM    4  C   UNL     1     -41.935 -49.049  11.393  1.00  0.00     0.103 A 
HETATM    5  N   UNL     1     -41.259 -50.215  11.344  1.00  0.00    -0.350 N 
ATOM      6  HN  UNL     1     -40.458 -50.331  10.725  1.00  0.00     0.166 HD
HETATM    7  C   UNL     1     -41.680 -51.236  12.150  1.00  0.00     0.119 A 
ENDROOT
BRANCH   1   8
HETATM    8  N   UNL     1     -43.176 -52.308  13.768  1.00  0.00    -0.325 N 
HETATM    9  C   UNL     1     -44.067 -53.282  13.339  1.00  0.00     0.229 C 
HETATM   10  O   UNL     1     -44.517 -53.345  12.194  1.00  0.00    -0.272 OA
HETATM   11  H   UNL     1     -42.677 -52.469  14.633  1.00  0.00     0.169 HD
BRANCH   9  12
HETATM   12  C   UNL     1     -44.488 -54.332  14.390  1.00  0.00     0.030 C 
HETATM   13  C   UNL     1     -45.116 -53.592  15.592  1.00  0.00     0.025 C 
HETATM   14  C   UNL     1     -43.258 -55.104  14.886  1.00  0.00     0.025 C 
HETATM   15  C   UNL     1     -45.530 -55.300  13.819  1.00  0.00     0.025 C 
ENDBRANCH   9  12
ENDBRANCH   1   8
BRANCH   4  16
HETATM   16  N   UNL     1     -41.611 -47.996  10.554  1.00  0.00    -0.363 N 
HETATM   17  C   UNL     1     -40.719 -46.935  11.031  1.00  0.00     0.150 C 
HETATM   18  C   UNL     1     -41.475 -45.628  11.293  1.00  0.00     0.187 C 
HETATM   19  O   UNL     1     -42.262 -45.237  10.153  1.00  0.00    -0.388 OA
HETATM   20  C   UNL     1     -43.235 -46.252   9.865  1.00  0.00     0.187 C 
HETATM   21  C   UNL     1     -42.572 -47.594   9.518  1.00  0.00     0.150 C 
ENDBRANCH   4  16
TORSDOF 3
ENDMDL
MODEL 2
REMARK VINA RESULT:      -5.6      1.396      1.798
REMARK  3 active torsions:
REMARK  status: ('A' for Active; 'I' for Inactive)
REMARK    1  A    between atoms: C_2  and  C_5 
REMARK       I    between atoms: C_5  and  N_7 
REMARK    2  A    between atoms: N_7  and  C_8 
REMARK    3  A    between atoms: C_11  and  N_15 
ROOT
HETATM    1  C   UNL     1     -42.115 -50.302  12.565  1.00  0.00     0.050 A 
HETATM    2  C   UNL     1     -43.085 -49.312  12.637  1.00  0.00     0.035 A 
HETATM    3  C   UNL     1     -43.082 -48.265  11.719  1.00  0.00     0.051 A 
HETATM    4  C   UNL     1     -42.113 -48.196  10.720  1.00  0.00     0.103 A 
HETATM    5  N   UNL     1     -41.148 -49.135  10.645  1.00  0.00    -0.350 N 
ATOM      6  HN  UNL     1     -40.432 -49.094   9.920  1.00  0.00     0.166 HD
HETATM    7  C   UNL     1     -41.159 -50.143  11.567  1.00  0.00     0.119 A 
ENDROOT
BRANCH   1   8
HETATM    8  N   UNL     1     -42.076 -51.408  13.455  1.00  0.00    -0.325 N 
HETATM    9  C   UNL     1     -42.789 -52.587  13.279  1.00  0.00     0.229 C 
HETATM   10  O   UNL     1     -43.436 -52.852  12.265  1.00  0.00    -0.272 OA
HETATM   11  H   UNL     1     -41.388 -51.376  14.196  1.00  0.00     0.169 HD
BRANCH   9  12
HETATM   12  C   UNL     1     -42.736 -53.597  14.445  1.00  0.00     0.030 C 
HETATM   13  C   UNL     1     -43.832 -54.661  14.217  1.00  0.00     0.025 C 
HETATM   14  C   UNL     1     -43.022 -52.884  15.774  1.00  0.00     0.025 C 
HETATM   15  C   UNL     1     -41.377 -54.305  14.503  1.00  0.00     0.025 C 
ENDBRANCH   9  12
ENDBRANCH   1   8
BRANCH   4  16
HETATM   16  N   UNL     1     -42.208 -47.186   9.778  1.00  0.00    -0.363 N 
HETATM   17  C   UNL     1     -41.784 -45.826  10.125  1.00  0.00     0.150 C 
HETATM   18  C   UNL     1     -42.978 -44.881  10.291  1.00  0.00     0.187 C 
HETATM   19  O   UNL     1     -43.850 -44.927   9.146  1.00  0.00    -0.388 OA
HETATM   20  C   UNL     1     -44.368 -46.257   8.986  1.00  0.00     0.187 C 
HETATM   21  C   UNL     1     -43.245 -47.278   8.742  1.00  0.00     0.150 C 
ENDBRANCH   4  16
TORSDOF 3
ENDMDL
MODEL 3
REMARK VINA RESULT:      -5.4      1.779      7.645
REMARK  3 active torsions:
REMARK  status: ('A' for Active; 'I' for Inactive)
REMARK    1  A    between atoms: C_2  and  C_5 
REMARK       I    between atoms: C_5  and  N_7 
REMARK    2  A    between atoms: N_7  and  C_8 
REMARK    3  A    between atoms: C_11  and  N_15 
ROOT
HETATM    1  C   UNL     1     -40.951 -48.603  12.094  1.00  0.00     0.050 A 
HETATM    2  C   UNL     1     -42.031 -49.031  12.852  1.00  0.00     0.035 A 
HETATM    3  C   UNL     1     -42.383 -50.379  12.866  1.00  0.00     0.051 A 
HETATM    4  C   UNL     1     -41.660 -51.311  12.125  1.00  0.00     0.103 A 
HETATM    5  N   UNL     1     -40.620 -50.915  11.365  1.00  0.00    -0.350 N 
ATOM      6  HN  UNL     1     -40.085 -51.587  10.816  1.00  0.00     0.166 HD
HETATM    7  C   UNL     1     -40.304 -49.585  11.351  1.00  0.00     0.119 A 
ENDROOT
BRANCH   1   8
HETATM    8  N   UNL     1     -40.525 -47.248  12.055  1.00  0.00    -0.325 N 
HETATM    9  C   UNL     1     -40.937 -46.320  11.107  1.00  0.00     0.229 C 
HETATM   10  O   UNL     1     -41.815 -46.536  10.271  1.00  0.00    -0.272 OA
HETATM   11  H   UNL     1     -39.986 -46.914  12.843  1.00  0.00     0.169 HD
BRANCH   9  12
HETATM   12  C   UNL     1     -40.229 -44.949  11.143  1.00  0.00     0.030 C 
HETATM   13  C   UNL     1     -39.333 -44.830   9.890  1.00  0.00     0.025 C 
HETATM   14  C   UNL     1     -39.336 -44.849  12.388  1.00  0.00     0.025 C 
HETATM   15  C   UNL     1     -41.244 -43.800  11.125  1.00  0.00     0.025 C 
ENDBRANCH   9  12
ENDBRANCH   1   8
BRANCH   4  16
HETATM   16  N   UNL     1     -41.993 -52.650  12.244  1.00  0.00    -0.363 N 
HETATM   17  C   UNL     1     -43.382 -53.031  12.519  1.00  0.00     0.150 C 
HETATM   18  C   UNL     1     -43.560 -53.540  13.954  1.00  0.00     0.187 C 
HETATM   19  O   UNL     1     -42.615 -54.579  14.266  1.00  0.00    -0.388 OA
HETATM   20  C   UNL     1     -41.278 -54.069  14.150  1.00  0.00     0.187 C 
HETATM   21  C   UNL     1     -40.973 -53.594  12.720  1.00  0.00     0.150 C 
ENDBRANCH   4  16
TORSDOF 3
ENDMDL
MODEL 4
REMARK VINA RESULT:      -5.2      3.205      7.126
REMARK  3 active torsions:
REMARK  status: ('A' for Active; 'I' for Inactive)
REMARK    1  A    between atoms: C_2  and  C_5 
REMARK       I    between atoms: C_5  and  N_7 
REMARK    2  A    between atoms: N_7  and  C_8 
REMARK    3  A    between atoms: C_11  and  N_15 
ROOT
HETATM    1  C   UNL     1     -41.204 -51.687  13.179  1.00  0.00     0.050 A 
HETATM    2  C   UNL     1     -41.447 -53.040  13.371  1.00  0.00     0.035 A 
HETATM    3  C   UNL     1     -42.751 -53.527  13.338  1.00  0.00     0.051 A 
HETATM    4  C   UNL     1     -43.826 -52.670  13.111  1.00  0.00     0.103 A 
HETATM    5  N   UNL     1     -43.616 -51.348  12.943  1.00  0.00    -0.350 N 
ATOM      6  HN  UNL     1     -44.394 -50.710  12.780  1.00  0.00     0.166 HD
HETATM    7  C   UNL     1     -42.329 -50.889  12.999  1.00  0.00     0.119 A 
ENDROOT
BRANCH   1   8
HETATM    8  N   UNL     1     -39.898 -51.131  13.178  1.00  0.00    -0.325 N 
HETATM    9  C   UNL     1     -39.336 -50.443  12.111  1.00  0.00     0.229 C 
HETATM   10  O   UNL     1     -39.955 -50.129  11.093  1.00  0.00    -0.272 OA
HETATM   11  H   UNL     1     -39.398 -51.132  14.058  1.00  0.00     0.169 HD
BRANCH   9  12
HETATM   12  C   UNL     1     -37.846 -50.064  12.252  1.00  0.00     0.030 C 
HETATM   13  C   UNL     1     -37.260 -49.857  10.838  1.00  0.00     0.025 C 
HETATM   14  C   UNL     1     -37.074 -51.204  12.933  1.00  0.00     0.025 C 
HETATM   15  C   UNL     1     -37.677 -48.762  13.042  1.00  0.00     0.025 C 
ENDBRANCH   9  12
ENDBRANCH   1   8
BRANCH   4  16
HETATM   16  N   UNL     1     -45.093 -53.216  12.997  1.00  0.00    -0.363 N 
HETATM   17  C   UNL     1     -46.267 -52.340  13.034  1.00  0.00     0.150 C 
HETATM   18  C   UNL     1     -47.044 -52.483  14.348  1.00  0.00     0.187 C 
HETATM   19  O   UNL     1     -47.355 -53.860  14.629  1.00  0.00    -0.388 OA
HETATM   20  C   UNL     1     -46.140 -54.613  14.759  1.00  0.00     0.187 C 
HETATM   21  C   UNL     1     -45.316 -54.592  13.461  1.00  0.00     0.150 C 
ENDBRANCH   4  16
TORSDOF 3
ENDMDL
MODEL 5
REMARK VINA RESULT:      -5.2      1.997      2.540
REMARK  3 active torsions:
REMARK  status: ('A' for Active; 'I' for Inactive)
REMARK    1  A    between atoms: C_2  and  C_5 
REMARK       I    between atoms: C_5  and  N_7 
REMARK    2  A    between atoms: N_7  and  C_8 
REMARK    3  A    between atoms: C_11  and  N_15 
ROOT
HETATM    1  C   UNL     1     -41.982 -49.961  11.906  1.00  0.00     0.050 A 
HETATM    2  C   UNL     1     -42.891 -48.942  12.155  1.00  0.00     0.035 A 
HETATM    3  C   UNL     1     -42.616 -47.643  11.736  1.00  0.00     0.051 A 
HETATM    4  C   UNL     1     -41.432 -47.348  11.063  1.00  0.00     0.103 A 
HETATM    5  N   UNL     1     -40.525 -48.317  10.828  1.00  0.00    -0.350 N 
ATOM      6  HN  UNL     1     -39.654 -48.113  10.340  1.00  0.00     0.166 HD
HETATM    7  C   UNL     1     -40.807 -49.581  11.266  1.00  0.00     0.119 A 
ENDROOT
BRANCH   1   8
HETATM    8  N   UNL     1     -42.212 -51.310  12.286  1.00  0.00    -0.325 N 
HETATM    9  C   UNL     1     -41.807 -51.869  13.491  1.00  0.00     0.229 C 
HETATM   10  O   UNL     1     -41.314 -51.223  14.417  1.00  0.00    -0.272 OA
HETATM   11  H   UNL     1     -42.820 -51.857  11.689  1.00  0.00     0.169 HD
BRANCH   9  12
HETATM   12  C   UNL     1     -42.009 -53.393  13.637  1.00  0.00     0.030 C 
HETATM   13  C   UNL     1     -41.983 -53.744  15.141  1.00  0.00     0.025 C 
HETATM   14  C   UNL     1     -40.864 -54.146  12.945  1.00  0.00     0.025 C 
HETATM   15  C   UNL     1     -43.360 -53.831  13.060  1.00  0.00     0.025 C 
ENDBRANCH   9  12
ENDBRANCH   1   8
BRANCH   4  16
HETATM   16  N   UNL     1     -41.247 -46.061  10.587  1.00  0.00    -0.363 N 
HETATM   17  C   UNL     1     -39.903 -45.478  10.571  1.00  0.00     0.150 C 
HETATM   18  C   UNL     1     -39.737 -44.397  11.645  1.00  0.00     0.187 C 
HETATM   19  O   UNL     1     -40.782 -43.411  11.565  1.00  0.00    -0.388 OA
HETATM   20  C   UNL     1     -42.057 -44.038  11.774  1.00  0.00     0.187 C 
HETATM   21  C   UNL     1     -42.351 -45.098  10.700  1.00  0.00     0.150 C 
ENDBRANCH   4  16
TORSDOF 3
ENDMDL
MODEL 6
REMARK VINA RESULT:      -5.0      1.973      7.577
REMARK  3 active torsions:
REMARK  status: ('A' for Active; 'I' for Inactive)
REMARK    1  A    between atoms: C_2  and  C_5 
REMARK       I    between atoms: C_5  and  N_7 
REMARK    2  A    between atoms: N_7  and  C_8 
REMARK    3  A    between atoms: C_11  and  N_15 
ROOT
HETATM    1  C   UNL     1     -41.725 -49.524  12.034  1.00  0.00     0.050 A 
HETATM    2  C   UNL     1     -40.862 -50.571  11.743  1.00  0.00     0.035 A 
HETATM    3  C   UNL     1     -41.234 -51.882  12.030  1.00  0.00     0.051 A 
HETATM    4  C   UNL     1     -42.470 -52.161  12.609  1.00  0.00     0.103 A 
HETATM    5  N   UNL     1     -43.316 -51.157  12.920  1.00  0.00    -0.350 N 
ATOM      6  HN  UNL     1     -44.222 -51.349  13.346  1.00  0.00     0.166 HD
HETATM    7  C   UNL     1     -42.923 -49.877  12.646  1.00  0.00     0.119 A 
ENDROOT
BRANCH   1   8
HETATM    8  N   UNL     1     -41.416 -48.168  11.745  1.00  0.00    -0.325 N 
HETATM    9  C   UNL     1     -40.517 -47.393  12.466  1.00  0.00     0.229 C 
HETATM   10  O   UNL     1     -39.792 -47.835  13.359  1.00  0.00    -0.272 OA
HETATM   11  H   UNL     1     -41.785 -47.787  10.883  1.00  0.00     0.169 HD
BRANCH   9  12
HETATM   12  C   UNL     1     -40.451 -45.897  12.090  1.00  0.00     0.030 C 
HETATM   13  C   UNL     1     -39.500 -45.189  13.080  1.00  0.00     0.025 C 
HETATM   14  C   UNL     1     -41.842 -45.260  12.214  1.00  0.00     0.025 C 
HETATM   15  C   UNL     1     -39.903 -45.706  10.671  1.00  0.00     0.025 C 
ENDBRANCH   9  12
ENDBRANCH   1   8
BRANCH   4  16
HETATM   16  N   UNL     1     -42.830 -53.485  12.791  1.00  0.00    -0.363 N 
HETATM   17  C   UNL     1     -44.236 -53.880  12.664  1.00  0.00     0.150 C 
HETATM   18  C   UNL     1     -44.859 -54.212  14.024  1.00  0.00     0.187 C 
HETATM   19  O   UNL     1     -44.065 -55.170  14.749  1.00  0.00    -0.388 OA
HETATM   20  C   UNL     1     -42.758 -54.629  14.991  1.00  0.00     0.187 C 
HETATM   21  C   UNL     1     -42.016 -54.325  13.680  1.00  0.00     0.150 C 
ENDBRANCH   4  16
TORSDOF 3
ENDMDL
MODEL 7
REMARK VINA RESULT:      -5.0      4.786      6.424
REMARK  3 active torsions:
REMARK  status: ('A' for Active; 'I' for Inactive)
REMARK    1  A    between atoms: C_2  and  C_5 
REMARK       I    between atoms: C_5  and  N_7 
REMARK    2  A    between atoms: N_7  and  C_8 
REMARK    3  A    between atoms: C_11  and  N_15 
ROOT
HETATM    1  C   UNL     1     -40.200 -46.548  11.323  1.00  0.00     0.050 A 
HETATM    2  C   UNL     1     -39.526 -45.573  10.600  1.00  0.00     0.035 A 
HETATM    3  C   UNL     1     -40.027 -44.275  10.543  1.00  0.00     0.051 A 
HETATM    4  C   UNL     1     -41.204 -43.936  11.208  1.00  0.00     0.103 A 
HETATM    5  N   UNL     1     -41.887 -44.872  11.899  1.00  0.00    -0.350 N 
ATOM      6  HN  UNL     1     -42.750 -44.637  12.387  1.00  0.00     0.166 HD
HETATM    7  C   UNL     1     -41.386 -46.144  11.926  1.00  0.00     0.119 A 
ENDROOT
BRANCH   1   8
HETATM    8  N   UNL     1     -39.730 -47.883  11.440  1.00  0.00    -0.325 N 
HETATM    9  C   UNL     1     -38.940 -48.351  12.481  1.00  0.00     0.229 C 
HETATM   10  O   UNL     1     -38.664 -47.692  13.484  1.00  0.00    -0.272 OA
HETATM   11  H   UNL     1     -40.102 -48.559  10.785  1.00  0.00     0.169 HD
BRANCH   9  12
HETATM   12  C   UNL     1     -38.400 -49.790  12.334  1.00  0.00     0.030 C 
HETATM   13  C   UNL     1     -39.599 -50.739  12.109  1.00  0.00     0.025 C 
HETATM   14  C   UNL     1     -37.679 -50.218  13.620  1.00  0.00     0.025 C 
HETATM   15  C   UNL     1     -37.457 -49.908  11.131  1.00  0.00     0.025 C 
ENDBRANCH   9  12
ENDBRANCH   1   8
BRANCH   4  16
HETATM   16  N   UNL     1     -41.611 -42.613  11.196  1.00  0.00    -0.363 N 
HETATM   17  C   UNL     1     -40.759 -41.585  11.800  1.00  0.00     0.150 C 
HETATM   18  C   UNL     1     -41.341 -41.064  13.119  1.00  0.00     0.187 C 
HETATM   19  O   UNL     1     -42.709 -40.644  12.962  1.00  0.00    -0.388 OA
HETATM   20  C   UNL     1     -43.511 -41.759  12.543  1.00  0.00     0.187 C 
HETATM   21  C   UNL     1     -43.050 -42.314  11.187  1.00  0.00     0.150 C 
ENDBRANCH   4  16
TORSDOF 3
ENDMDL
MODEL 8
REMARK VINA RESULT:      -4.9      3.948      8.396
REMARK  3 active torsions:
REMARK  status: ('A' for Active; 'I' for Inactive)
REMARK    1  A    between atoms: C_2  and  C_5 
REMARK       I    between atoms: C_5  and  N_7 
REMARK    2  A    between atoms: N_7  and  C_8 
REMARK    3  A    between atoms: C_11  and  N_15 
ROOT
HETATM    1  C   UNL     1     -40.748 -46.058  12.124  1.00  0.00     0.050 A 
HETATM    2  C   UNL     1     -41.335 -46.928  11.217  1.00  0.00     0.035 A 
HETATM    3  C   UNL     1     -40.832 -48.218  11.061  1.00  0.00     0.051 A 
HETATM    4  C   UNL     1     -39.739 -48.651  11.810  1.00  0.00     0.103 A 
HETATM    5  N   UNL     1     -39.140 -47.816  12.682  1.00  0.00    -0.350 N 
ATOM      6  HN  UNL     1     -38.338 -48.121  13.233  1.00  0.00     0.166 HD
HETATM    7  C   UNL     1     -39.639 -46.549  12.806  1.00  0.00     0.119 A 
ENDROOT
BRANCH   1   8
HETATM    8  N   UNL     1     -41.227 -44.740  12.349  1.00  0.00    -0.325 N 
HETATM    9  C   UNL     1     -40.942 -43.650  11.537  1.00  0.00     0.229 C 
HETATM   10  O   UNL     1     -40.346 -43.731  10.462  1.00  0.00    -0.272 OA
HETATM   11  H   UNL     1     -41.919 -44.621  13.077  1.00  0.00     0.169 HD
BRANCH   9  12
HETATM   12  C   UNL     1     -41.423 -42.275  12.048  1.00  0.00     0.030 C 
HETATM   13  C   UNL     1     -42.073 -41.517  10.869  1.00  0.00     0.025 C 
HETATM   14  C   UNL     1     -40.229 -41.452  12.552  1.00  0.00     0.025 C 
HETATM   15  C   UNL     1     -42.468 -42.431  13.159  1.00  0.00     0.025 C 
ENDBRANCH   9  12
ENDBRANCH   1   8
BRANCH   4  16
HETATM   16  N   UNL     1     -39.335 -49.969  11.684  1.00  0.00    -0.363 N 
HETATM   17  C   UNL     1     -40.196 -51.044  12.185  1.00  0.00     0.150 C 
HETATM   18  C   UNL     1     -39.629 -51.683  13.458  1.00  0.00     0.187 C 
HETATM   19  O   UNL     1     -38.260 -52.091  13.278  1.00  0.00    -0.388 OA
HETATM   20  C   UNL     1     -37.451 -50.946  12.969  1.00  0.00     0.187 C 
HETATM   21  C   UNL     1     -37.897 -50.270  11.663  1.00  0.00     0.150 C 
ENDBRANCH   4  16
TORSDOF 3
ENDMDL
MODEL 9
REMARK VINA RESULT:      -4.7      5.158      8.228
REMARK  3 active torsions:
REMARK  status: ('A' for Active; 'I' for Inactive)
REMARK    1  A    between atoms: C_2  and  C_5 
REMARK       I    between atoms: C_5  and  N_7 
REMARK    2  A    between atoms: N_7  and  C_8 
REMARK    3  A    between atoms: C_11  and  N_15 
ROOT
HETATM    1  C   UNL     1     -47.342 -51.687  17.931  1.00  0.00     0.050 A 
HETATM    2  C   UNL     1     -47.709 -51.128  16.715  1.00  0.00     0.035 A 
HETATM    3  C   UNL     1     -47.294 -51.717  15.523  1.00  0.00     0.051 A 
HETATM    4  C   UNL     1     -46.510 -52.869  15.533  1.00  0.00     0.103 A 
HETATM    5  N   UNL     1     -46.124 -53.418  16.703  1.00  0.00    -0.350 N 
ATOM      6  HN  UNL     1     -45.548 -54.259  16.722  1.00  0.00     0.166 HD
HETATM    7  C   UNL     1     -46.527 -52.813  17.860  1.00  0.00     0.119 A 
ENDROOT
BRANCH   1   8
HETATM    8  N   UNL     1     -47.751 -51.151  19.181  1.00  0.00    -0.325 N 
HETATM    9  C   UNL     1     -48.944 -51.462  19.819  1.00  0.00     0.229 C 
HETATM   10  O   UNL     1     -49.723 -52.335  19.432  1.00  0.00    -0.272 OA
HETATM   11  H   UNL     1     -47.069 -50.605  19.691  1.00  0.00     0.169 HD
BRANCH   9  12
HETATM   12  C   UNL     1     -49.273 -50.645  21.087  1.00  0.00     0.030 C 
HETATM   13  C   UNL     1     -48.283 -51.053  22.200  1.00  0.00     0.025 C 
HETATM   14  C   UNL     1     -50.697 -50.963  21.565  1.00  0.00     0.025 C 
HETATM   15  C   UNL     1     -49.122 -49.141  20.832  1.00  0.00     0.025 C 
ENDBRANCH   9  12
ENDBRANCH   1   8
BRANCH   4  16
HETATM   16  N   UNL     1     -46.201 -53.466  14.323  1.00  0.00    -0.363 N 
HETATM   17  C   UNL     1     -45.502 -54.755  14.306  1.00  0.00     0.150 C 
HETATM   18  C   UNL     1     -44.045 -54.608  13.854  1.00  0.00     0.187 C 
HETATM   19  O   UNL     1     -43.949 -53.897  12.607  1.00  0.00    -0.388 OA
HETATM   20  C   UNL     1     -44.491 -52.576  12.760  1.00  0.00     0.187 C 
HETATM   21  C   UNL     1     -45.978 -52.613  13.148  1.00  0.00     0.150 C 
ENDBRANCH   4  16
TORSDOF 3
ENDMDL
