MODEL 1
REMARK VINA RESULT:      -5.0      0.000      0.000
REMARK  3 active torsions:
REMARK  status: ('A' for Active; 'I' for Inactive)
REMARK    1  A    between atoms: C_5  and  C_6 
REMARK    2  A    between atoms: C_6  and  C_7 
REMARK       I    between atoms: C_7  and  N_9 
REMARK    3  A    between atoms: N_9  and  C_10 
ROOT
HETATM    1  C   UNL     1     -41.997 -49.242  11.738  1.00  0.00     0.223 C 
HETATM    2  O   UNL     1     -42.724 -48.860  12.651  1.00  0.00    -0.273 OA
HETATM    3  N   UNL     1     -41.426 -50.497  11.691  1.00  0.00    -0.356 N 
HETATM    4  H   UNL     1     -41.117 -50.796  10.766  1.00  0.00     0.162 HD
ENDROOT
BRANCH   1   5
HETATM    5  C   UNL     1     -41.574 -48.321  10.607  1.00  0.00     0.160 C 
BRANCH   5   6
HETATM    6  C   UNL     1     -42.714 -47.531  10.053  1.00  0.00     0.025 A 
HETATM    7  N   UNL     1     -43.967 -48.126   9.961  1.00  0.00    -0.357 N 
HETATM    8  C   UNL     1     -44.829 -47.281   9.432  1.00  0.00     0.047 A 
ATOM      9  HN  UNL     1     -44.187 -49.077  10.259  1.00  0.00     0.166 HD
HETATM   10  C   UNL     1     -46.269 -47.575   9.198  1.00  0.00     0.076 C 
HETATM   11  S   UNL     1     -44.189 -45.746   8.999  1.00  0.00    -0.087 SA
HETATM   12  C   UNL     1     -42.652 -46.239   9.566  1.00  0.00     0.077 A 
ENDBRANCH   5   6
ENDBRANCH   1   5
BRANCH   3  13
HETATM   13  C   UNL     1     -41.725 -51.514  12.675  1.00  0.00     0.084 C 
HETATM   14  C   UNL     1     -40.512 -52.395  12.985  1.00  0.00     0.025 C 
HETATM   15  C   UNL     1     -41.052 -53.809  13.201  1.00  0.00     0.002 C 
HETATM   16  C   UNL     1     -42.567 -53.706  13.091  1.00  0.00     0.002 C 
HETATM   17  C   UNL     1     -42.800 -52.491  12.209  1.00  0.00     0.025 C 
ENDBRANCH   3  13
TORSDOF 3
ENDMDL
MODEL 2
REMARK VINA RESULT:      -5.0      2.642      6.197
REMARK  3 active torsions:
REMARK  status: ('A' for Active; 'I' for Inactive)
REMARK    1  A    between atoms: C_5  and  C_6 
REMARK    2  A    between atoms: C_6  and  C_7 
REMARK       I    between atoms: C_7  and  N_9 
REMARK    3  A    between atoms: N_9  and  C_10 
ROOT
HETATM    1  C   UNL     1     -41.962 -49.001  11.625  1.00  0.00     0.223 C 
HETATM    2  O   UNL     1     -42.517 -48.747  12.691  1.00  0.00    -0.273 OA
HETATM    3  N   UNL     1     -42.293 -48.399  10.429  1.00  0.00    -0.356 N 
HETATM    4  H   UNL     1     -41.577 -48.454   9.706  1.00  0.00     0.162 HD
ENDROOT
BRANCH   1   5
HETATM    5  C   UNL     1     -40.908 -50.087  11.507  1.00  0.00     0.160 C 
BRANCH   5   6
HETATM    6  C   UNL     1     -41.369 -51.398  12.054  1.00  0.00     0.025 A 
HETATM    7  N   UNL     1     -42.722 -51.715  11.999  1.00  0.00    -0.357 N 
HETATM    8  C   UNL     1     -42.931 -52.895  12.547  1.00  0.00     0.047 A 
ATOM      9  HN  UNL     1     -43.446 -51.121  11.593  1.00  0.00     0.166 HD
HETATM   10  C   UNL     1     -44.259 -53.557  12.649  1.00  0.00     0.076 C 
HETATM   11  S   UNL     1     -41.535 -53.677  13.174  1.00  0.00    -0.087 SA
HETATM   12  C   UNL     1     -40.580 -52.350  12.671  1.00  0.00     0.077 A 
ENDBRANCH   5   6
ENDBRANCH   1   5
BRANCH   3  13
HETATM   13  C   UNL     1     -43.265 -47.331  10.351  1.00  0.00     0.084 C 
HETATM   14  C   UNL     1     -44.637 -47.828   9.886  1.00  0.00     0.025 C 
HETATM   15  C   UNL     1     -45.217 -46.726   9.001  1.00  0.00     0.002 C 
HETATM   16  C   UNL     1     -44.211 -45.583   9.031  1.00  0.00     0.002 C 
HETATM   17  C   UNL     1     -42.883 -46.257   9.336  1.00  0.00     0.025 C 
ENDBRANCH   3  13
TORSDOF 3
ENDMDL
MODEL 3
REMARK VINA RESULT:      -4.8      3.737      5.265
REMARK  3 active torsions:
REMARK  status: ('A' for Active; 'I' for Inactive)
REMARK    1  A    between atoms: C_5  and  C_6 
REMARK    2  A    between atoms: C_6  and  C_7 
REMARK       I    between atoms: C_7  and  N_9 
REMARK    3  A    between atoms: N_9  and  C_10 
ROOT
HETATM    1  C   UNL     1     -42.467 -50.535  12.531  1.00  0.00     0.223 C 
HETATM    2  O   UNL     1     -41.892 -51.595  12.762  1.00  0.00    -0.273 OA
HETATM    3  N   UNL     1     -43.782 -50.291  12.869  1.00  0.00    -0.356 N 
HETATM    4  H   UNL     1     -44.041 -49.306  12.913  1.00  0.00     0.162 HD
ENDROOT
BRANCH   1   5
HETATM    5  C   UNL     1     -41.802 -49.411  11.756  1.00  0.00     0.160 C 
BRANCH   5   6
HETATM    6  C   UNL     1     -40.333 -49.331  12.006  1.00  0.00     0.025 A 
HETATM    7  N   UNL     1     -39.459 -49.898  11.085  1.00  0.00    -0.357 N 
HETATM    8  C   UNL     1     -38.215 -49.743  11.491  1.00  0.00     0.047 A 
ATOM      9  HN  UNL     1     -39.739 -50.365  10.222  1.00  0.00     0.166 HD
HETATM   10  C   UNL     1     -37.016 -50.214  10.744  1.00  0.00     0.076 C 
HETATM   11  S   UNL     1     -38.022 -48.936  12.995  1.00  0.00    -0.087 SA
HETATM   12  C   UNL     1     -39.721 -48.771  13.111  1.00  0.00     0.077 A 
ENDBRANCH   5   6
ENDBRANCH   1   5
BRANCH   3  13
HETATM   13  C   UNL     1     -44.570 -51.241  13.623  1.00  0.00     0.084 C 
HETATM   14  C   UNL     1     -46.004 -51.351  13.098  1.00  0.00     0.025 C 
HETATM   15  C   UNL     1     -46.897 -51.544  14.324  1.00  0.00     0.002 C 
HETATM   16  C   UNL     1     -45.961 -51.620  15.523  1.00  0.00     0.002 C 
HETATM   17  C   UNL     1     -44.727 -50.846  15.089  1.00  0.00     0.025 C 
ENDBRANCH   3  13
TORSDOF 3
ENDMDL
MODEL 4
REMARK VINA RESULT:      -4.8      3.910      6.494
REMARK  3 active torsions:
REMARK  status: ('A' for Active; 'I' for Inactive)
REMARK    1  A    between atoms: C_5  and  C_6 
REMARK    2  A    between atoms: C_6  and  C_7 
REMARK       I    between atoms: C_7  and  N_9 
REMARK    3  A    between atoms: N_9  and  C_10 
ROOT
HETATM    1  C   UNL     1     -41.569 -47.304  10.596  1.00  0.00     0.223 C 
HETATM    2  O   UNL     1     -41.512 -48.484  10.261  1.00  0.00    -0.273 OA
HETATM    3  N   UNL     1     -42.546 -46.433  10.160  1.00  0.00    -0.356 N 
HETATM    4  H   UNL     1     -42.669 -45.599  10.733  1.00  0.00     0.162 HD
ENDROOT
BRANCH   1   5
HETATM    5  C   UNL     1     -40.498 -46.659  11.457  1.00  0.00     0.160 C 
BRANCH   5   6
HETATM    6  C   UNL     1     -39.611 -47.662  12.118  1.00  0.00     0.025 A 
HETATM    7  N   UNL     1     -38.927 -48.582  11.330  1.00  0.00    -0.357 N 
HETATM    8  C   UNL     1     -38.219 -49.390  12.093  1.00  0.00     0.047 A 
ATOM      9  HN  UNL     1     -38.968 -48.625  10.311  1.00  0.00     0.166 HD
HETATM   10  C   UNL     1     -37.351 -50.488  11.587  1.00  0.00     0.076 C 
HETATM   11  S   UNL     1     -38.346 -49.111  13.784  1.00  0.00    -0.087 SA
HETATM   12  C   UNL     1     -39.416 -47.812  13.477  1.00  0.00     0.077 A 
ENDBRANCH   5   6
ENDBRANCH   1   5
BRANCH   3  13
HETATM   13  C   UNL     1     -43.657 -46.872   9.343  1.00  0.00     0.084 C 
HETATM   14  C   UNL     1     -44.500 -45.701   8.832  1.00  0.00     0.025 C 
HETATM   15  C   UNL     1     -45.952 -46.177   8.846  1.00  0.00     0.002 C 
HETATM   16  C   UNL     1     -45.916 -47.635   9.287  1.00  0.00     0.002 C 
HETATM   17  C   UNL     1     -44.643 -47.749  10.109  1.00  0.00     0.025 C 
ENDBRANCH   3  13
TORSDOF 3
ENDMDL
MODEL 5
REMARK VINA RESULT:      -4.8      4.454      6.146
REMARK  3 active torsions:
REMARK  status: ('A' for Active; 'I' for Inactive)
REMARK    1  A    between atoms: C_5  and  C_6 
REMARK    2  A    between atoms: C_6  and  C_7 
REMARK       I    between atoms: C_7  and  N_9 
REMARK    3  A    between atoms: N_9  and  C_10 
ROOT
HETATM    1  C   UNL     1     -42.524 -54.034  13.607  1.00  0.00     0.223 C 
HETATM    2  O   UNL     1     -42.792 -54.740  14.576  1.00  0.00    -0.273 OA
HETATM    3  N   UNL     1     -43.424 -53.168  13.022  1.00  0.00    -0.356 N 
HETATM    4  H   UNL     1     -43.007 -52.433  12.452  1.00  0.00     0.162 HD
ENDROOT
BRANCH   1   5
HETATM    5  C   UNL     1     -41.187 -54.121  12.894  1.00  0.00     0.160 C 
BRANCH   5   6
HETATM    6  C   UNL     1     -40.351 -52.899  13.089  1.00  0.00     0.025 A 
HETATM    7  N   UNL     1     -40.309 -51.942  12.080  1.00  0.00    -0.357 N 
HETATM    8  C   UNL     1     -39.507 -50.956  12.429  1.00  0.00     0.047 A 
ATOM      9  HN  UNL     1     -40.823 -51.995  11.200  1.00  0.00     0.166 HD
HETATM   10  C   UNL     1     -39.234 -49.753  11.597  1.00  0.00     0.076 C 
HETATM   11  S   UNL     1     -38.748 -51.126  13.961  1.00  0.00    -0.087 SA
HETATM   12  C   UNL     1     -39.553 -52.619  14.182  1.00  0.00     0.077 A 
ENDBRANCH   5   6
ENDBRANCH   1   5
BRANCH   3  13
HETATM   13  C   UNL     1     -44.743 -52.943  13.572  1.00  0.00     0.084 C 
HETATM   14  C   UNL     1     -45.776 -52.621  12.490  1.00  0.00     0.025 C 
HETATM   15  C   UNL     1     -46.721 -51.581  13.092  1.00  0.00     0.002 C 
HETATM   16  C   UNL     1     -46.267 -51.380  14.532  1.00  0.00     0.002 C 
HETATM   17  C   UNL     1     -44.793 -51.746  14.518  1.00  0.00     0.025 C 
ENDBRANCH   3  13
TORSDOF 3
ENDMDL
MODEL 6
REMARK VINA RESULT:      -4.8      3.093      4.692
REMARK  3 active torsions:
REMARK  status: ('A' for Active; 'I' for Inactive)
REMARK    1  A    between atoms: C_5  and  C_6 
REMARK    2  A    between atoms: C_6  and  C_7 
REMARK       I    between atoms: C_7  and  N_9 
REMARK    3  A    between atoms: N_9  and  C_10 
ROOT
HETATM    1  C   UNL     1     -42.941 -52.362  12.787  1.00  0.00     0.223 C 
HETATM    2  O   UNL     1     -43.055 -51.872  13.907  1.00  0.00    -0.273 OA
HETATM    3  N   UNL     1     -43.987 -52.939  12.097  1.00  0.00    -0.356 N 
HETATM    4  H   UNL     1     -43.847 -53.020  11.091  1.00  0.00     0.162 HD
ENDROOT
BRANCH   1   5
HETATM    5  C   UNL     1     -41.598 -52.467  12.088  1.00  0.00     0.160 C 
BRANCH   5   6
HETATM    6  C   UNL     1     -40.926 -51.143  11.932  1.00  0.00     0.025 A 
HETATM    7  N   UNL     1     -41.652 -50.073  11.421  1.00  0.00    -0.357 N 
HETATM    8  C   UNL     1     -40.884 -49.005  11.341  1.00  0.00     0.047 A 
ATOM      9  HN  UNL     1     -42.635 -50.109  11.149  1.00  0.00     0.166 HD
HETATM   10  C   UNL     1     -41.334 -47.673  10.852  1.00  0.00     0.076 C 
HETATM   11  S   UNL     1     -39.257 -49.224  11.848  1.00  0.00    -0.087 SA
HETATM   12  C   UNL     1     -39.602 -50.860  12.210  1.00  0.00     0.077 A 
ENDBRANCH   5   6
ENDBRANCH   1   5
BRANCH   3  13
HETATM   13  C   UNL     1     -45.343 -52.921  12.601  1.00  0.00     0.084 C 
HETATM   14  C   UNL     1     -45.814 -51.505  12.944  1.00  0.00     0.025 C 
HETATM   15  C   UNL     1     -46.688 -51.633  14.191  1.00  0.00     0.002 C 
HETATM   16  C   UNL     1     -46.770 -53.122  14.501  1.00  0.00     0.002 C 
HETATM   17  C   UNL     1     -45.500 -53.703  13.902  1.00  0.00     0.025 C 
ENDBRANCH   3  13
TORSDOF 3
ENDMDL
MODEL 7
REMARK VINA RESULT:      -4.7      1.873      2.521
REMARK  3 active torsions:
REMARK  status: ('A' for Active; 'I' for Inactive)
REMARK    1  A    between atoms: C_5  and  C_6 
REMARK    2  A    between atoms: C_6  and  C_7 
REMARK       I    between atoms: C_7  and  N_9 
REMARK    3  A    between atoms: N_9  and  C_10 
ROOT
HETATM    1  C   UNL     1     -42.325 -50.689  12.535  1.00  0.00     0.223 C 
HETATM    2  O   UNL     1     -43.214 -49.946  12.943  1.00  0.00    -0.273 OA
HETATM    3  N   UNL     1     -42.285 -52.044  12.793  1.00  0.00    -0.356 N 
HETATM    4  H   UNL     1     -41.698 -52.586  12.161  1.00  0.00     0.162 HD
ENDROOT
BRANCH   1   5
HETATM    5  C   UNL     1     -41.119 -50.162  11.778  1.00  0.00     0.160 C 
BRANCH   5   6
HETATM    6  C   UNL     1     -41.317 -48.768  11.281  1.00  0.00     0.025 A 
HETATM    7  N   UNL     1     -42.362 -48.507  10.400  1.00  0.00    -0.357 N 
HETATM    8  C   UNL     1     -42.358 -47.233  10.062  1.00  0.00     0.047 A 
ATOM      9  HN  UNL     1     -43.032 -49.200  10.064  1.00  0.00     0.166 HD
HETATM   10  C   UNL     1     -43.344 -46.598   9.146  1.00  0.00     0.076 C 
HETATM   11  S   UNL     1     -41.103 -46.287  10.757  1.00  0.00    -0.087 SA
HETATM   12  C   UNL     1     -40.526 -47.674  11.575  1.00  0.00     0.077 A 
ENDBRANCH   5   6
ENDBRANCH   1   5
BRANCH   3  13
HETATM   13  C   UNL     1     -43.355 -52.725  13.489  1.00  0.00     0.084 C 
HETATM   14  C   UNL     1     -42.831 -53.736  14.511  1.00  0.00     0.025 C 
HETATM   15  C   UNL     1     -43.791 -54.924  14.474  1.00  0.00     0.002 C 
HETATM   16  C   UNL     1     -44.893 -54.548  13.492  1.00  0.00     0.002 C 
HETATM   17  C   UNL     1     -44.238 -53.547  12.554  1.00  0.00     0.025 C 
ENDBRANCH   3  13
TORSDOF 3
ENDMDL
MODEL 8
REMARK VINA RESULT:      -4.7      2.228      2.758
REMARK  3 active torsions:
REMARK  status: ('A' for Active; 'I' for Inactive)
REMARK    1  A    between atoms: C_5  and  C_6 
REMARK    2  A    between atoms: C_6  and  C_7 
REMARK       I    between atoms: C_7  and  N_9 
REMARK    3  A    between atoms: N_9  and  C_10 
ROOT
HETATM    1  C   UNL     1     -41.728 -48.879  12.156  1.00  0.00     0.223 C 
HETATM    2  O   UNL     1     -42.331 -49.944  12.054  1.00  0.00    -0.273 OA
HETATM    3  N   UNL     1     -40.355 -48.785  12.242  1.00  0.00    -0.356 N 
HETATM    4  H   UNL     1     -39.969 -47.870  12.009  1.00  0.00     0.162 HD
ENDROOT
BRANCH   1   5
HETATM    5  C   UNL     1     -42.455 -47.553  12.296  1.00  0.00     0.160 C 
BRANCH   5   6
HETATM    6  C   UNL     1     -43.162 -47.150  11.044  1.00  0.00     0.025 A 
HETATM    7  N   UNL     1     -44.222 -47.926  10.587  1.00  0.00    -0.357 N 
HETATM    8  C   UNL     1     -44.698 -47.423   9.466  1.00  0.00     0.047 A 
ATOM      9  HN  UNL     1     -44.579 -48.762  11.053  1.00  0.00     0.166 HD
HETATM   10  C   UNL     1     -45.845 -47.988   8.705  1.00  0.00     0.076 C 
HETATM   11  S   UNL     1     -43.897 -46.018   8.887  1.00  0.00    -0.087 SA
HETATM   12  C   UNL     1     -42.844 -46.077  10.234  1.00  0.00     0.077 A 
ENDBRANCH   5   6
ENDBRANCH   1   5
BRANCH   3  13
HETATM   13  C   UNL     1     -39.496 -49.942  12.114  1.00  0.00     0.084 C 
HETATM   14  C   UNL     1     -39.177 -50.580  13.469  1.00  0.00     0.025 C 
HETATM   15  C   UNL     1     -37.729 -51.061  13.388  1.00  0.00     0.002 C 
HETATM   16  C   UNL     1     -37.263 -50.766  11.968  1.00  0.00     0.002 C 
HETATM   17  C   UNL     1     -38.132 -49.604  11.519  1.00  0.00     0.025 C 
ENDBRANCH   3  13
TORSDOF 3
ENDMDL
MODEL 9
REMARK VINA RESULT:      -4.6      5.107      6.024
REMARK  3 active torsions:
REMARK  status: ('A' for Active; 'I' for Inactive)
REMARK    1  A    between atoms: C_5  and  C_6 
REMARK    2  A    between atoms: C_6  and  C_7 
REMARK       I    between atoms: C_7  and  N_9 
REMARK    3  A    between atoms: N_9  and  C_10 
ROOT
HETATM    1  C   UNL     1     -40.146 -53.332  14.159  1.00  0.00     0.223 C 
HETATM    2  O   UNL     1     -39.693 -54.050  13.272  1.00  0.00    -0.273 OA
HETATM    3  N   UNL     1     -41.496 -53.166  14.391  1.00  0.00    -0.356 N 
HETATM    4  H   UNL     1     -41.735 -52.814  15.317  1.00  0.00     0.162 HD
ENDROOT
BRANCH   1   5
HETATM    5  C   UNL     1     -39.252 -52.473  15.035  1.00  0.00     0.160 C 
BRANCH   5   6
HETATM    6  C   UNL     1     -38.788 -51.234  14.343  1.00  0.00     0.025 A 
HETATM    7  N   UNL     1     -38.313 -51.326  13.039  1.00  0.00    -0.357 N 
HETATM    8  C   UNL     1     -37.935 -50.138  12.613  1.00  0.00     0.047 A 
ATOM      9  HN  UNL     1     -38.266 -52.187  12.493  1.00  0.00     0.166 HD
HETATM   10  C   UNL     1     -37.388 -49.860  11.257  1.00  0.00     0.076 C 
HETATM   11  S   UNL     1     -38.104 -48.857  13.746  1.00  0.00    -0.087 SA
HETATM   12  C   UNL     1     -38.737 -49.964  14.886  1.00  0.00     0.077 A 
ENDBRANCH   5   6
ENDBRANCH   1   5
BRANCH   3  13
HETATM   13  C   UNL     1     -42.498 -53.914  13.663  1.00  0.00     0.084 C 
HETATM   14  C   UNL     1     -43.244 -53.046  12.646  1.00  0.00     0.025 C 
HETATM   15  C   UNL     1     -44.694 -53.529  12.649  1.00  0.00     0.002 C 
HETATM   16  C   UNL     1     -44.744 -54.713  13.606  1.00  0.00     0.002 C 
HETATM   17  C   UNL     1     -43.593 -54.471  14.568  1.00  0.00     0.025 C 
ENDBRANCH   3  13
TORSDOF 3
ENDMDL
