MODEL 1
REMARK VINA RESULT:      -6.2      0.000      0.000
REMARK  4 active torsions:
REMARK  status: ('A' for Active; 'I' for Inactive)
REMARK    1  A    between atoms: C_2  and  C_3 
REMARK       I    between atoms: N_6  and  C_10 
REMARK       I    between atoms: C_10  and  N_12 
REMARK    2  A    between atoms: N_12  and  C_13 
REMARK    3  A    between atoms: C_13  and  C_14 
REMARK    4  A    between atoms: C_14  and  C_15 
ROOT
HETATM    1  C   UNL     1     -45.917 -52.527  13.872  1.00  0.00     0.073 C 
HETATM    2  C   UNL     1     -46.839 -51.474  14.507  1.00  0.00     0.047 C 
HETATM    3  C   UNL     1     -44.463 -52.245  14.348  1.00  0.00     0.165 C 
HETATM    4  N   UNL     1     -43.574 -53.365  14.023  1.00  0.00    -0.329 N 
HETATM    5  C   UNL     1     -44.063 -54.644  14.536  1.00  0.00     0.153 C 
HETATM    6  C   UNL     1     -45.492 -54.898  14.057  1.00  0.00     0.189 C 
HETATM    7  O   UNL     1     -46.369 -53.806  14.379  1.00  0.00    -0.377 OA
HETATM    8  C   UNL     1     -42.365 -53.325  13.366  1.00  0.00     0.318 C 
HETATM    9  O   UNL     1     -41.686 -54.329  13.164  1.00  0.00    -0.247 OA
HETATM   10  N   UNL     1     -41.951 -52.092  12.946  1.00  0.00    -0.343 N 
HETATM   11  H   UNL     1     -42.648 -51.385  12.783  1.00  0.00     0.164 HD
ENDROOT
BRANCH  10  12
HETATM   12  C   UNL     1     -40.753 -51.933  12.134  1.00  0.00     0.131 C 
BRANCH  12  13
HETATM   13  C   UNL     1     -39.969 -50.665  12.485  1.00  0.00     0.084 C 
BRANCH  13  14
HETATM   14  C   UNL     1     -40.502 -49.454  11.772  1.00  0.00     0.052 A 
HETATM   15  N   UNL     1     -41.522 -49.460  10.938  1.00  0.00    -0.363 N 
HETATM   16  C   UNL     1     -41.747 -48.182  10.465  1.00  0.00     0.102 A 
ATOM     17  HN  UNL     1     -42.064 -50.284  10.679  1.00  0.00     0.165 HD
HETATM   18  C   UNL     1     -40.881 -47.213  10.927  1.00  0.00    -0.004 A 
HETATM   19  C   UNL     1     -40.831 -45.762  10.613  1.00  0.00     0.058 C 
HETATM   20  S   UNL     1     -39.759 -47.920  12.010  1.00  0.00    -0.080 SA
ENDBRANCH  13  14
ENDBRANCH  12  13
ENDBRANCH  10  12
BRANCH   1  21
HETATM   21  C   UNL     1     -46.017 -52.464  12.326  1.00  0.00     0.035 C 
HETATM   22  C   UNL     1     -47.114 -51.542  11.803  1.00  0.00     0.008 C 
ENDBRANCH   1  21
TORSDOF 4
ENDMDL
MODEL 2
REMARK VINA RESULT:      -6.0      2.254      2.945
REMARK  4 active torsions:
REMARK  status: ('A' for Active; 'I' for Inactive)
REMARK    1  A    between atoms: C_2  and  C_3 
REMARK       I    between atoms: N_6  and  C_10 
REMARK       I    between atoms: C_10  and  N_12 
REMARK    2  A    between atoms: N_12  and  C_13 
REMARK    3  A    between atoms: C_13  and  C_14 
REMARK    4  A    between atoms: C_14  and  C_15 
ROOT
HETATM    1  C   UNL     1     -44.345 -51.690  14.736  1.00  0.00     0.073 C 
HETATM    2  C   UNL     1     -44.958 -51.005  15.967  1.00  0.00     0.047 C 
HETATM    3  C   UNL     1     -42.910 -51.124  14.534  1.00  0.00     0.165 C 
HETATM    4  N   UNL     1     -42.158 -51.927  13.565  1.00  0.00    -0.329 N 
HETATM    5  C   UNL     1     -42.127 -53.347  13.907  1.00  0.00     0.153 C 
HETATM    6  C   UNL     1     -43.547 -53.879  14.101  1.00  0.00     0.189 C 
HETATM    7  O   UNL     1     -44.287 -53.100  15.056  1.00  0.00    -0.377 OA
HETATM    8  C   UNL     1     -41.470 -51.490  12.454  1.00  0.00     0.318 C 
HETATM    9  O   UNL     1     -40.850 -52.251  11.716  1.00  0.00    -0.247 OA
HETATM   10  N   UNL     1     -41.511 -50.145  12.215  1.00  0.00    -0.343 N 
HETATM   11  H   UNL     1     -42.288 -49.619  12.578  1.00  0.00     0.164 HD
ENDROOT
BRANCH  10  12
HETATM   12  C   UNL     1     -40.929 -49.574  11.009  1.00  0.00     0.131 C 
BRANCH  12  13
HETATM   13  C   UNL     1     -41.266 -48.090  10.838  1.00  0.00     0.084 C 
BRANCH  13  14
HETATM   14  C   UNL     1     -42.504 -47.882  10.012  1.00  0.00     0.052 A 
HETATM   15  N   UNL     1     -42.549 -47.933   8.695  1.00  0.00    -0.363 N 
HETATM   16  C   UNL     1     -43.839 -47.700   8.262  1.00  0.00     0.102 A 
ATOM     17  HN  UNL     1     -41.751 -48.116   8.088  1.00  0.00     0.165 HD
HETATM   18  C   UNL     1     -44.766 -47.451   9.251  1.00  0.00    -0.004 A 
HETATM   19  C   UNL     1     -46.216 -47.151   9.136  1.00  0.00     0.058 C 
HETATM   20  S   UNL     1     -44.003 -47.535  10.782  1.00  0.00    -0.080 SA
ENDBRANCH  13  14
ENDBRANCH  12  13
ENDBRANCH  10  12
BRANCH   1  21
HETATM   21  C   UNL     1     -45.224 -51.429  13.485  1.00  0.00     0.035 C 
HETATM   22  C   UNL     1     -46.724 -51.411  13.763  1.00  0.00     0.008 C 
ENDBRANCH   1  21
TORSDOF 4
ENDMDL
MODEL 3
REMARK VINA RESULT:      -5.6      1.887      2.649
REMARK  4 active torsions:
REMARK  status: ('A' for Active; 'I' for Inactive)
REMARK    1  A    between atoms: C_2  and  C_3 
REMARK       I    between atoms: N_6  and  C_10 
REMARK       I    between atoms: C_10  and  N_12 
REMARK    2  A    between atoms: N_12  and  C_13 
REMARK    3  A    between atoms: C_13  and  C_14 
REMARK    4  A    between atoms: C_14  and  C_15 
ROOT
HETATM    1  C   UNL     1     -45.890 -52.556  13.829  1.00  0.00     0.073 C 
HETATM    2  C   UNL     1     -46.807 -51.499  14.464  1.00  0.00     0.047 C 
HETATM    3  C   UNL     1     -44.432 -52.269  14.288  1.00  0.00     0.165 C 
HETATM    4  N   UNL     1     -43.546 -53.391  13.962  1.00  0.00    -0.329 N 
HETATM    5  C   UNL     1     -44.029 -54.666  14.490  1.00  0.00     0.153 C 
HETATM    6  C   UNL     1     -45.462 -54.925  14.026  1.00  0.00     0.189 C 
HETATM    7  O   UNL     1     -46.337 -53.831  14.349  1.00  0.00    -0.377 OA
HETATM    8  C   UNL     1     -42.343 -53.355  13.294  1.00  0.00     0.318 C 
HETATM    9  O   UNL     1     -41.665 -54.360  13.093  1.00  0.00    -0.247 OA
HETATM   10  N   UNL     1     -41.935 -52.124  12.861  1.00  0.00    -0.343 N 
HETATM   11  H   UNL     1     -42.634 -51.419  12.699  1.00  0.00     0.164 HD
ENDROOT
BRANCH  10  12
HETATM   12  C   UNL     1     -40.745 -51.970  12.037  1.00  0.00     0.131 C 
BRANCH  12  13
HETATM   13  C   UNL     1     -40.401 -50.502  11.768  1.00  0.00     0.084 C 
BRANCH  13  14
HETATM   14  C   UNL     1     -39.399 -49.966  12.752  1.00  0.00     0.052 A 
HETATM   15  N   UNL     1     -39.114 -48.690  12.917  1.00  0.00    -0.363 N 
HETATM   16  C   UNL     1     -38.155 -48.548  13.900  1.00  0.00     0.102 A 
ATOM     17  HN  UNL     1     -39.538 -47.922  12.397  1.00  0.00     0.165 HD
HETATM   18  C   UNL     1     -37.698 -49.721  14.463  1.00  0.00    -0.004 A 
HETATM   19  C   UNL     1     -36.673 -49.928  15.518  1.00  0.00     0.058 C 
HETATM   20  S   UNL     1     -38.515 -51.049  13.755  1.00  0.00    -0.080 SA
ENDBRANCH  13  14
ENDBRANCH  12  13
ENDBRANCH  10  12
BRANCH   1  21
HETATM   21  C   UNL     1     -46.006 -52.504  12.283  1.00  0.00     0.035 C 
HETATM   22  C   UNL     1     -47.026 -51.497  11.762  1.00  0.00     0.008 C 
ENDBRANCH   1  21
TORSDOF 4
ENDMDL
MODEL 4
REMARK VINA RESULT:      -5.6      3.058      7.091
REMARK  4 active torsions:
REMARK  status: ('A' for Active; 'I' for Inactive)
REMARK    1  A    between atoms: C_2  and  C_3 
REMARK       I    between atoms: N_6  and  C_10 
REMARK       I    between atoms: C_10  and  N_12 
REMARK    2  A    between atoms: N_12  and  C_13 
REMARK    3  A    between atoms: C_13  and  C_14 
REMARK    4  A    between atoms: C_14  and  C_15 
ROOT
HETATM    1  C   UNL     1     -38.511 -48.860  12.996  1.00  0.00     0.073 C 
HETATM    2  C   UNL     1     -37.542 -48.244  14.018  1.00  0.00     0.047 C 
HETATM    3  C   UNL     1     -39.508 -49.773  13.765  1.00  0.00     0.165 C 
HETATM    4  N   UNL     1     -40.632 -50.166  12.909  1.00  0.00    -0.329 N 
HETATM    5  C   UNL     1     -41.314 -49.021  12.308  1.00  0.00     0.153 C 
HETATM    6  C   UNL     1     -40.315 -48.139  11.559  1.00  0.00     0.189 C 
HETATM    7  O   UNL     1     -39.214 -47.746  12.396  1.00  0.00    -0.377 OA
HETATM    8  C   UNL     1     -41.115 -51.433  12.672  1.00  0.00     0.318 C 
HETATM    9  O   UNL     1     -42.085 -51.649  11.949  1.00  0.00    -0.247 OA
HETATM   10  N   UNL     1     -40.452 -52.453  13.296  1.00  0.00    -0.343 N 
HETATM   11  H   UNL     1     -39.490 -52.310  13.554  1.00  0.00     0.164 HD
ENDROOT
BRANCH  10  12
HETATM   12  C   UNL     1     -40.787 -53.845  13.031  1.00  0.00     0.131 C 
BRANCH  12  13
HETATM   13  C   UNL     1     -41.687 -54.450  14.112  1.00  0.00     0.084 C 
BRANCH  13  14
HETATM   14  C   UNL     1     -43.139 -54.137  13.881  1.00  0.00     0.052 A 
HETATM   15  N   UNL     1     -43.707 -54.028  12.696  1.00  0.00    -0.363 N 
HETATM   16  C   UNL     1     -45.048 -53.738  12.844  1.00  0.00     0.102 A 
ATOM     17  HN  UNL     1     -43.226 -54.142  11.803  1.00  0.00     0.165 HD
HETATM   18  C   UNL     1     -45.490 -53.605  14.143  1.00  0.00    -0.004 A 
HETATM   19  C   UNL     1     -46.848 -53.284  14.653  1.00  0.00     0.058 C 
HETATM   20  S   UNL     1     -44.187 -53.877  15.221  1.00  0.00    -0.080 SA
ENDBRANCH  13  14
ENDBRANCH  12  13
ENDBRANCH  10  12
BRANCH   1  21
HETATM   21  C   UNL     1     -37.724 -49.670  11.933  1.00  0.00     0.035 C 
HETATM   22  C   UNL     1     -37.189 -51.009  12.431  1.00  0.00     0.008 C 
ENDBRANCH   1  21
TORSDOF 4
ENDMDL
MODEL 5
REMARK VINA RESULT:      -5.5      3.731      5.995
REMARK  4 active torsions:
REMARK  status: ('A' for Active; 'I' for Inactive)
REMARK    1  A    between atoms: C_2  and  C_3 
REMARK       I    between atoms: N_6  and  C_10 
REMARK       I    between atoms: C_10  and  N_12 
REMARK    2  A    between atoms: N_12  and  C_13 
REMARK    3  A    between atoms: C_13  and  C_14 
REMARK    4  A    between atoms: C_14  and  C_15 
ROOT
HETATM    1  C   UNL     1     -38.747 -49.835  12.342  1.00  0.00     0.073 C 
HETATM    2  C   UNL     1     -37.463 -50.075  11.534  1.00  0.00     0.047 C 
HETATM    3  C   UNL     1     -39.962 -50.082  11.403  1.00  0.00     0.165 C 
HETATM    4  N   UNL     1     -41.212 -50.155  12.166  1.00  0.00    -0.329 N 
HETATM    5  C   UNL     1     -41.163 -51.142  13.242  1.00  0.00     0.153 C 
HETATM    6  C   UNL     1     -39.962 -50.879  14.151  1.00  0.00     0.189 C 
HETATM    7  O   UNL     1     -38.732 -50.814  13.409  1.00  0.00    -0.377 OA
HETATM    8  C   UNL     1     -42.382 -49.462  11.945  1.00  0.00     0.318 C 
HETATM    9  O   UNL     1     -43.385 -49.617  12.636  1.00  0.00    -0.247 OA
HETATM   10  N   UNL     1     -42.369 -48.583  10.898  1.00  0.00    -0.343 N 
HETATM   11  H   UNL     1     -41.484 -48.205  10.604  1.00  0.00     0.164 HD
ENDROOT
BRANCH  10  12
HETATM   12  C   UNL     1     -43.499 -47.703  10.637  1.00  0.00     0.131 C 
BRANCH  12  13
HETATM   13  C   UNL     1     -43.080 -46.389   9.970  1.00  0.00     0.084 C 
BRANCH  13  14
HETATM   14  C   UNL     1     -41.805 -45.843  10.548  1.00  0.00     0.052 A 
HETATM   15  N   UNL     1     -40.670 -45.720   9.888  1.00  0.00    -0.363 N 
HETATM   16  C   UNL     1     -39.704 -45.183  10.714  1.00  0.00     0.102 A 
ATOM     17  HN  UNL     1     -40.528 -45.984   8.913  1.00  0.00     0.165 HD
HETATM   18  C   UNL     1     -40.102 -44.919  12.007  1.00  0.00    -0.004 A 
HETATM   19  C   UNL     1     -39.323 -44.363  13.143  1.00  0.00     0.058 C 
HETATM   20  S   UNL     1     -41.753 -45.335  12.191  1.00  0.00    -0.080 SA
ENDBRANCH  13  14
ENDBRANCH  12  13
ENDBRANCH  10  12
BRANCH   1  21
HETATM   21  C   UNL     1     -38.764 -48.389  12.902  1.00  0.00     0.035 C 
HETATM   22  C   UNL     1     -37.716 -48.118  13.977  1.00  0.00     0.008 C 
ENDBRANCH   1  21
TORSDOF 4
ENDMDL
MODEL 6
REMARK VINA RESULT:      -5.5      2.966      6.196
REMARK  4 active torsions:
REMARK  status: ('A' for Active; 'I' for Inactive)
REMARK    1  A    between atoms: C_2  and  C_3 
REMARK       I    between atoms: N_6  and  C_10 
REMARK       I    between atoms: C_10  and  N_12 
REMARK    2  A    between atoms: N_12  and  C_13 
REMARK    3  A    between atoms: C_13  and  C_14 
REMARK    4  A    between atoms: C_14  and  C_15 
ROOT
HETATM    1  C   UNL     1     -41.824 -48.089  12.779  1.00  0.00     0.073 C 
HETATM    2  C   UNL     1     -42.818 -47.004  12.332  1.00  0.00     0.047 C 
HETATM    3  C   UNL     1     -42.019 -49.330  11.862  1.00  0.00     0.165 C 
HETATM    4  N   UNL     1     -40.925 -50.290  12.034  1.00  0.00    -0.329 N 
HETATM    5  C   UNL     1     -39.607 -49.688  11.841  1.00  0.00     0.153 C 
HETATM    6  C   UNL     1     -39.440 -48.471  12.752  1.00  0.00     0.189 C 
HETATM    7  O   UNL     1     -40.507 -47.523  12.582  1.00  0.00    -0.377 OA
HETATM    8  C   UNL     1     -41.014 -51.640  12.290  1.00  0.00     0.318 C 
HETATM    9  O   UNL     1     -40.025 -52.362  12.394  1.00  0.00    -0.247 OA
HETATM   10  N   UNL     1     -42.278 -52.143  12.422  1.00  0.00    -0.343 N 
HETATM   11  H   UNL     1     -43.014 -51.517  12.703  1.00  0.00     0.164 HD
ENDROOT
BRANCH  10  12
HETATM   12  C   UNL     1     -42.503 -53.527  12.815  1.00  0.00     0.131 C 
BRANCH  12  13
HETATM   13  C   UNL     1     -43.924 -54.004  12.501  1.00  0.00     0.084 C 
BRANCH  13  14
HETATM   14  C   UNL     1     -44.968 -53.090  13.077  1.00  0.00     0.052 A 
HETATM   15  N   UNL     1     -45.736 -52.283  12.372  1.00  0.00    -0.363 N 
HETATM   16  C   UNL     1     -46.583 -51.589  13.212  1.00  0.00     0.102 A 
ATOM     17  HN  UNL     1     -45.707 -52.185  11.357  1.00  0.00     0.165 HD
HETATM   18  C   UNL     1     -46.441 -51.856  14.557  1.00  0.00    -0.004 A 
HETATM   19  C   UNL     1     -47.169 -51.284  15.718  1.00  0.00     0.058 C 
HETATM   20  S   UNL     1     -45.219 -53.036  14.779  1.00  0.00    -0.080 SA
ENDBRANCH  13  14
ENDBRANCH  12  13
ENDBRANCH  10  12
BRANCH   1  21
HETATM   21  C   UNL     1     -42.066 -48.455  14.267  1.00  0.00     0.035 C 
HETATM   22  C   UNL     1     -43.279 -49.349  14.506  1.00  0.00     0.008 C 
ENDBRANCH   1  21
TORSDOF 4
ENDMDL
MODEL 7
REMARK VINA RESULT:      -5.5      3.000      6.593
REMARK  4 active torsions:
REMARK  status: ('A' for Active; 'I' for Inactive)
REMARK    1  A    between atoms: C_2  and  C_3 
REMARK       I    between atoms: N_6  and  C_10 
REMARK       I    between atoms: C_10  and  N_12 
REMARK    2  A    between atoms: N_12  and  C_13 
REMARK    3  A    between atoms: C_13  and  C_14 
REMARK    4  A    between atoms: C_14  and  C_15 
ROOT
HETATM    1  C   UNL     1     -40.451 -51.420  12.856  1.00  0.00     0.073 C 
HETATM    2  C   UNL     1     -39.641 -50.428  12.007  1.00  0.00     0.047 C 
HETATM    3  C   UNL     1     -41.565 -52.027  11.957  1.00  0.00     0.165 C 
HETATM    4  N   UNL     1     -42.193 -53.184  12.603  1.00  0.00    -0.329 N 
HETATM    5  C   UNL     1     -41.225 -54.201  13.010  1.00  0.00     0.153 C 
HETATM    6  C   UNL     1     -40.141 -53.580  13.892  1.00  0.00     0.189 C 
HETATM    7  O   UNL     1     -39.517 -52.449  13.260  1.00  0.00    -0.377 OA
HETATM    8  C   UNL     1     -43.535 -53.419  12.803  1.00  0.00     0.318 C 
HETATM    9  O   UNL     1     -43.957 -54.440  13.340  1.00  0.00    -0.247 OA
HETATM   10  N   UNL     1     -44.386 -52.443  12.364  1.00  0.00    -0.343 N 
HETATM   11  H   UNL     1     -44.035 -51.504  12.286  1.00  0.00     0.164 HD
ENDROOT
BRANCH  10  12
HETATM   12  C   UNL     1     -45.816 -52.515  12.626  1.00  0.00     0.131 C 
BRANCH  12  13
HETATM   13  C   UNL     1     -46.264 -51.537  13.717  1.00  0.00     0.084 C 
BRANCH  13  14
HETATM   14  C   UNL     1     -46.128 -52.123  15.094  1.00  0.00     0.052 A 
HETATM   15  N   UNL     1     -46.076 -53.413  15.362  1.00  0.00    -0.363 N 
HETATM   16  C   UNL     1     -45.947 -53.603  16.723  1.00  0.00     0.102 A 
ATOM     17  HN  UNL     1     -46.124 -54.158  14.667  1.00  0.00     0.165 HD
HETATM   18  C   UNL     1     -45.923 -52.456  17.487  1.00  0.00    -0.004 A 
HETATM   19  C   UNL     1     -45.813 -52.302  18.960  1.00  0.00     0.058 C 
HETATM   20  S   UNL     1     -46.042 -51.087  16.465  1.00  0.00    -0.080 SA
ENDBRANCH  13  14
ENDBRANCH  12  13
ENDBRANCH  10  12
BRANCH   1  21
HETATM   21  C   UNL     1     -41.063 -50.698  14.085  1.00  0.00     0.035 C 
HETATM   22  C   UNL     1     -40.055 -49.913  14.919  1.00  0.00     0.008 C 
ENDBRANCH   1  21
TORSDOF 4
ENDMDL
MODEL 8
REMARK VINA RESULT:      -5.4      2.404      3.219
REMARK  4 active torsions:
REMARK  status: ('A' for Active; 'I' for Inactive)
REMARK    1  A    between atoms: C_2  and  C_3 
REMARK       I    between atoms: N_6  and  C_10 
REMARK       I    between atoms: C_10  and  N_12 
REMARK    2  A    between atoms: N_12  and  C_13 
REMARK    3  A    between atoms: C_13  and  C_14 
REMARK    4  A    between atoms: C_14  and  C_15 
ROOT
HETATM    1  C   UNL     1     -45.983 -51.759  16.912  1.00  0.00     0.073 C 
HETATM    2  C   UNL     1     -46.113 -50.288  17.340  1.00  0.00     0.047 C 
HETATM    3  C   UNL     1     -44.501 -52.017  16.517  1.00  0.00     0.165 C 
HETATM    4  N   UNL     1     -44.236 -53.452  16.375  1.00  0.00    -0.329 N 
HETATM    5  C   UNL     1     -44.612 -54.219  17.561  1.00  0.00     0.153 C 
HETATM    6  C   UNL     1     -46.071 -53.948  17.929  1.00  0.00     0.189 C 
HETATM    7  O   UNL     1     -46.335 -52.543  18.076  1.00  0.00    -0.377 OA
HETATM    8  C   UNL     1     -43.649 -54.105  15.314  1.00  0.00     0.318 C 
HETATM    9  O   UNL     1     -43.452 -55.317  15.307  1.00  0.00    -0.247 OA
HETATM   10  N   UNL     1     -43.288 -53.321  14.253  1.00  0.00    -0.343 N 
HETATM   11  H   UNL     1     -43.774 -52.451  14.116  1.00  0.00     0.164 HD
ENDROOT
BRANCH  10  12
HETATM   12  C   UNL     1     -42.772 -53.905  13.024  1.00  0.00     0.131 C 
BRANCH  12  13
HETATM   13  C   UNL     1     -41.244 -53.848  12.941  1.00  0.00     0.084 C 
BRANCH  13  14
HETATM   14  C   UNL     1     -40.747 -52.479  12.571  1.00  0.00     0.052 A 
HETATM   15  N   UNL     1     -41.144 -51.794  11.517  1.00  0.00    -0.363 N 
HETATM   16  C   UNL     1     -40.491 -50.578  11.477  1.00  0.00     0.102 A 
ATOM     17  HN  UNL     1     -41.829 -52.114  10.833  1.00  0.00     0.165 HD
HETATM   18  C   UNL     1     -39.584 -50.353  12.490  1.00  0.00    -0.004 A 
HETATM   19  C   UNL     1     -38.712 -49.176  12.736  1.00  0.00     0.058 C 
HETATM   20  S   UNL     1     -39.562 -51.701  13.546  1.00  0.00    -0.080 SA
ENDBRANCH  13  14
ENDBRANCH  12  13
ENDBRANCH  10  12
BRANCH   1  21
HETATM   21  C   UNL     1     -46.934 -52.055  15.722  1.00  0.00     0.035 C 
HETATM   22  C   UNL     1     -46.513 -51.412  14.405  1.00  0.00     0.008 C 
ENDBRANCH   1  21
TORSDOF 4
ENDMDL
MODEL 9
REMARK VINA RESULT:      -5.2      4.155      6.559
REMARK  4 active torsions:
REMARK  status: ('A' for Active; 'I' for Inactive)
REMARK    1  A    between atoms: C_2  and  C_3 
REMARK       I    between atoms: N_6  and  C_10 
REMARK       I    between atoms: C_10  and  N_12 
REMARK    2  A    between atoms: N_12  and  C_13 
REMARK    3  A    between atoms: C_13  and  C_14 
REMARK    4  A    between atoms: C_14  and  C_15 
ROOT
HETATM    1  C   UNL     1     -38.561 -50.632  12.874  1.00  0.00     0.073 C 
HETATM    2  C   UNL     1     -37.085 -51.045  12.751  1.00  0.00     0.047 C 
HETATM    3  C   UNL     1     -39.003 -50.016  11.516  1.00  0.00     0.165 C 
HETATM    4  N   UNL     1     -40.461 -49.863  11.456  1.00  0.00    -0.329 N 
HETATM    5  C   UNL     1     -41.173 -51.109  11.732  1.00  0.00     0.153 C 
HETATM    6  C   UNL     1     -40.721 -51.695  13.070  1.00  0.00     0.189 C 
HETATM    7  O   UNL     1     -39.294 -51.853  13.131  1.00  0.00    -0.377 OA
HETATM    8  C   UNL     1     -41.182 -48.736  11.129  1.00  0.00     0.318 C 
HETATM    9  O   UNL     1     -42.410 -48.724  11.087  1.00  0.00    -0.247 OA
HETATM   10  N   UNL     1     -40.451 -47.617  10.846  1.00  0.00    -0.343 N 
HETATM   11  H   UNL     1     -39.526 -47.540  11.236  1.00  0.00     0.164 HD
ENDROOT
BRANCH  10  12
HETATM   12  C   UNL     1     -41.095 -46.334  10.607  1.00  0.00     0.131 C 
BRANCH  12  13
HETATM   13  C   UNL     1     -41.125 -45.448  11.856  1.00  0.00     0.084 C 
BRANCH  13  14
HETATM   14  C   UNL     1     -41.722 -44.097  11.578  1.00  0.00     0.052 A 
HETATM   15  N   UNL     1     -42.989 -43.880  11.285  1.00  0.00    -0.363 N 
HETATM   16  C   UNL     1     -43.199 -42.529  11.092  1.00  0.00     0.102 A 
ATOM     17  HN  UNL     1     -43.706 -44.601  11.212  1.00  0.00     0.165 HD
HETATM   18  C   UNL     1     -42.085 -41.727  11.218  1.00  0.00    -0.004 A 
HETATM   19  C   UNL     1     -41.955 -40.255  11.062  1.00  0.00     0.058 C 
HETATM   20  S   UNL     1     -40.728 -42.693  11.617  1.00  0.00    -0.080 SA
ENDBRANCH  13  14
ENDBRANCH  12  13
ENDBRANCH  10  12
BRANCH   1  21
HETATM   21  C   UNL     1     -38.736 -49.612  14.029  1.00  0.00     0.035 C 
HETATM   22  C   UNL     1     -37.477 -48.820  14.366  1.00  0.00     0.008 C 
ENDBRANCH   1  21
TORSDOF 4
ENDMDL
