MODEL 1
REMARK VINA RESULT:      -5.4      0.000      0.000
REMARK  4 active torsions:
REMARK  status: ('A' for Active; 'I' for Inactive)
REMARK    1  A    between atoms: N_7  and  C_8 
REMARK    2  A    between atoms: C_8  and  C_9 
REMARK       I    between atoms: C_9  and  N_11 
REMARK    3  A    between atoms: N_11  and  C_12 
REMARK    4  A    between atoms: C_12  and  C_13 
ROOT
HETATM    1  C   UNL     1     -44.761 -55.037  14.301  1.00  0.00     0.234 C 
ENDROOT
BRANCH   1   2
HETATM    2  N   UNL     1     -45.390 -53.724  14.179  1.00  0.00    -0.313 N 
HETATM    3  C   UNL     1     -45.287 -53.046  12.966  1.00  0.00     0.247 A 
HETATM    4  C   UNL     1     -46.129 -51.822  12.821  1.00  0.00     0.077 A 
HETATM    5  O   UNL     1     -44.562 -53.403  12.041  1.00  0.00    -0.268 OA
HETATM    6  C   UNL     1     -46.873 -51.393  13.851  1.00  0.00     0.049 A 
HETATM    7  C   UNL     1     -46.856 -52.101  15.099  1.00  0.00     0.132 A 
HETATM    8  F   UNL     1     -47.606 -51.631  16.116  1.00  0.00    -0.205 F 
HETATM    9  C   UNL     1     -46.146 -53.226  15.233  1.00  0.00     0.137 A 
ENDBRANCH   1   2
BRANCH   1  10
HETATM   10  C   UNL     1     -43.353 -55.032  14.892  1.00  0.00     0.235 C 
HETATM   11  O   UNL     1     -43.108 -55.599  15.956  1.00  0.00    -0.272 OA
HETATM   12  N   UNL     1     -42.375 -54.434  14.122  1.00  0.00    -0.359 N 
HETATM   13  H   UNL     1     -42.665 -53.863  13.328  1.00  0.00     0.162 HD
BRANCH  12  14
HETATM   14  C   UNL     1     -40.995 -54.441  14.564  1.00  0.00     0.127 C 
BRANCH  14  15
HETATM   15  C   UNL     1     -40.184 -53.566  13.627  1.00  0.00     0.003 C 
HETATM   16  C   UNL     1     -39.915 -52.120  14.136  1.00  0.00     0.006 C 
HETATM   17  C   UNL     1     -40.060 -51.655  12.674  1.00  0.00     0.001 C 
HETATM   18  C   UNL     1     -40.939 -52.903  12.442  1.00  0.00     0.006 C 
ENDBRANCH  14  15
ENDBRANCH  12  14
ENDBRANCH   1  10
TORSDOF 4
ENDMDL
MODEL 2
REMARK VINA RESULT:      -5.2      4.379      5.627
REMARK  4 active torsions:
REMARK  status: ('A' for Active; 'I' for Inactive)
REMARK    1  A    between atoms: N_7  and  C_8 
REMARK    2  A    between atoms: C_8  and  C_9 
REMARK       I    between atoms: C_9  and  N_11 
REMARK    3  A    between atoms: N_11  and  C_12 
REMARK    4  A    between atoms: C_12  and  C_13 
ROOT
HETATM    1  C   UNL     1     -42.114 -50.359  13.466  1.00  0.00     0.234 C 
ENDROOT
BRANCH   1   2
HETATM    2  N   UNL     1     -43.245 -51.211  13.108  1.00  0.00    -0.313 N 
HETATM    3  C   UNL     1     -42.988 -52.469  12.567  1.00  0.00     0.247 A 
HETATM    4  C   UNL     1     -44.161 -53.380  12.430  1.00  0.00     0.077 A 
HETATM    5  O   UNL     1     -41.873 -52.847  12.213  1.00  0.00    -0.268 OA
HETATM    6  C   UNL     1     -45.388 -52.949  12.754  1.00  0.00     0.049 A 
HETATM    7  C   UNL     1     -45.582 -51.607  13.223  1.00  0.00     0.132 A 
HETATM    8  F   UNL     1     -46.832 -51.205  13.526  1.00  0.00    -0.205 F 
HETATM    9  C   UNL     1     -44.537 -50.791  13.398  1.00  0.00     0.137 A 
ENDBRANCH   1   2
BRANCH   1  10
HETATM   10  C   UNL     1     -41.935 -49.116  12.596  1.00  0.00     0.235 C 
HETATM   11  O   UNL     1     -41.668 -48.023  13.095  1.00  0.00    -0.272 OA
HETATM   12  N   UNL     1     -42.005 -49.317  11.231  1.00  0.00    -0.359 N 
HETATM   13  H   UNL     1     -42.367 -50.207  10.891  1.00  0.00     0.162 HD
BRANCH  12  14
HETATM   14  C   UNL     1     -41.777 -48.212  10.321  1.00  0.00     0.127 C 
BRANCH  14  15
HETATM   15  C   UNL     1     -43.108 -47.550  10.024  1.00  0.00     0.003 C 
HETATM   16  C   UNL     1     -43.520 -47.531   8.522  1.00  0.00     0.006 C 
HETATM   17  C   UNL     1     -44.132 -46.140   8.782  1.00  0.00     0.001 C 
HETATM   18  C   UNL     1     -43.130 -45.999   9.948  1.00  0.00     0.006 C 
ENDBRANCH  14  15
ENDBRANCH  12  14
ENDBRANCH   1  10
TORSDOF 4
ENDMDL
MODEL 3
REMARK VINA RESULT:      -5.2      2.776      3.684
REMARK  4 active torsions:
REMARK  status: ('A' for Active; 'I' for Inactive)
REMARK    1  A    between atoms: N_7  and  C_8 
REMARK    2  A    between atoms: C_8  and  C_9 
REMARK       I    between atoms: C_9  and  N_11 
REMARK    3  A    between atoms: N_11  and  C_12 
REMARK    4  A    between atoms: C_12  and  C_13 
ROOT
HETATM    1  C   UNL     1     -42.020 -52.303  11.991  1.00  0.00     0.234 C 
ENDROOT
BRANCH   1   2
HETATM    2  N   UNL     1     -43.259 -52.544  12.727  1.00  0.00    -0.313 N 
HETATM    3  C   UNL     1     -43.949 -51.450  13.246  1.00  0.00     0.247 A 
HETATM    4  C   UNL     1     -45.311 -51.727  13.789  1.00  0.00     0.077 A 
HETATM    5  O   UNL     1     -43.500 -50.306  13.271  1.00  0.00    -0.268 OA
HETATM    6  C   UNL     1     -45.779 -52.982  13.822  1.00  0.00     0.049 A 
HETATM    7  C   UNL     1     -44.968 -54.068  13.347  1.00  0.00     0.132 A 
HETATM    8  F   UNL     1     -45.467 -55.319  13.410  1.00  0.00    -0.205 F 
HETATM    9  C   UNL     1     -43.765 -53.835  12.814  1.00  0.00     0.137 A 
ENDBRANCH   1   2
BRANCH   1  10
HETATM   10  C   UNL     1     -40.751 -52.285  12.842  1.00  0.00     0.235 C 
HETATM   11  O   UNL     1     -40.088 -53.307  13.016  1.00  0.00    -0.272 OA
HETATM   12  N   UNL     1     -40.360 -51.049  13.319  1.00  0.00    -0.359 N 
HETATM   13  H   UNL     1     -41.022 -50.276  13.262  1.00  0.00     0.162 HD
BRANCH  12  14
HETATM   14  C   UNL     1     -39.131 -50.917  14.076  1.00  0.00     0.127 C 
BRANCH  14  15
HETATM   15  C   UNL     1     -38.117 -50.180  13.223  1.00  0.00     0.003 C 
HETATM   16  C   UNL     1     -38.693 -49.495  11.950  1.00  0.00     0.006 C 
HETATM   17  C   UNL     1     -37.380 -49.874  11.238  1.00  0.00     0.001 C 
HETATM   18  C   UNL     1     -37.250 -51.029  12.254  1.00  0.00     0.006 C 
ENDBRANCH  14  15
ENDBRANCH  12  14
ENDBRANCH   1  10
TORSDOF 4
ENDMDL
MODEL 4
REMARK VINA RESULT:      -5.2      3.784      6.451
REMARK  4 active torsions:
REMARK  status: ('A' for Active; 'I' for Inactive)
REMARK    1  A    between atoms: N_7  and  C_8 
REMARK    2  A    between atoms: C_8  and  C_9 
REMARK       I    between atoms: C_9  and  N_11 
REMARK    3  A    between atoms: N_11  and  C_12 
REMARK    4  A    between atoms: C_12  and  C_13 
ROOT
HETATM    1  C   UNL     1     -38.742 -52.006  14.515  1.00  0.00     0.234 C 
ENDROOT
BRANCH   1   2
HETATM    2  N   UNL     1     -38.656 -50.830  13.652  1.00  0.00    -0.313 N 
HETATM    3  C   UNL     1     -37.746 -50.845  12.596  1.00  0.00     0.247 A 
HETATM    4  C   UNL     1     -37.854 -49.723  11.618  1.00  0.00     0.077 A 
HETATM    5  O   UNL     1     -36.893 -51.714  12.438  1.00  0.00    -0.268 OA
HETATM    6  C   UNL     1     -38.741 -48.738  11.820  1.00  0.00     0.049 A 
HETATM    7  C   UNL     1     -39.583 -48.752  12.982  1.00  0.00     0.132 A 
HETATM    8  F   UNL     1     -40.453 -47.737  13.159  1.00  0.00    -0.205 F 
HETATM    9  C   UNL     1     -39.535 -49.773  13.845  1.00  0.00     0.137 A 
ENDBRANCH   1   2
BRANCH   1  10
HETATM   10  C   UNL     1     -39.512 -53.188  13.928  1.00  0.00     0.235 C 
HETATM   11  O   UNL     1     -38.936 -54.227  13.607  1.00  0.00    -0.272 OA
HETATM   12  N   UNL     1     -40.885 -53.046  13.867  1.00  0.00    -0.359 N 
HETATM   13  H   UNL     1     -41.283 -52.118  14.012  1.00  0.00     0.162 HD
BRANCH  12  14
HETATM   14  C   UNL     1     -41.709 -54.140  13.393  1.00  0.00     0.127 C 
BRANCH  14  15
HETATM   15  C   UNL     1     -43.143 -53.877  13.808  1.00  0.00     0.003 C 
HETATM   16  C   UNL     1     -43.832 -55.037  14.585  1.00  0.00     0.006 C 
HETATM   17  C   UNL     1     -45.133 -54.662  13.848  1.00  0.00     0.001 C 
HETATM   18  C   UNL     1     -44.244 -54.077  12.730  1.00  0.00     0.006 C 
ENDBRANCH  14  15
ENDBRANCH  12  14
ENDBRANCH   1  10
TORSDOF 4
ENDMDL
MODEL 5
REMARK VINA RESULT:      -5.2      1.633      2.191
REMARK  4 active torsions:
REMARK  status: ('A' for Active; 'I' for Inactive)
REMARK    1  A    between atoms: N_7  and  C_8 
REMARK    2  A    between atoms: C_8  and  C_9 
REMARK       I    between atoms: C_9  and  N_11 
REMARK    3  A    between atoms: N_11  and  C_12 
REMARK    4  A    between atoms: C_12  and  C_13 
ROOT
HETATM    1  C   UNL     1     -44.476 -54.928  14.124  1.00  0.00     0.234 C 
ENDROOT
BRANCH   1   2
HETATM    2  N   UNL     1     -45.417 -53.826  14.302  1.00  0.00    -0.313 N 
HETATM    3  C   UNL     1     -45.923 -53.581  15.577  1.00  0.00     0.247 A 
HETATM    4  C   UNL     1     -46.698 -52.317  15.748  1.00  0.00     0.077 A 
HETATM    5  O   UNL     1     -45.760 -54.333  16.535  1.00  0.00    -0.268 OA
HETATM    6  C   UNL     1     -46.933 -51.525  14.692  1.00  0.00     0.049 A 
HETATM    7  C   UNL     1     -46.450 -51.894  13.391  1.00  0.00     0.132 A 
HETATM    8  F   UNL     1     -46.718 -51.080  12.351  1.00  0.00    -0.205 F 
HETATM    9  C   UNL     1     -45.713 -52.997  13.227  1.00  0.00     0.137 A 
ENDBRANCH   1   2
BRANCH   1  10
HETATM   10  C   UNL     1     -43.000 -54.537  14.170  1.00  0.00     0.235 C 
HETATM   11  O   UNL     1     -42.349 -54.628  15.210  1.00  0.00    -0.272 OA
HETATM   12  N   UNL     1     -42.434 -54.165  12.966  1.00  0.00    -0.359 N 
HETATM   13  H   UNL     1     -43.053 -53.974  12.179  1.00  0.00     0.162 HD
BRANCH  12  14
HETATM   14  C   UNL     1     -41.022 -53.845  12.893  1.00  0.00     0.127 C 
BRANCH  14  15
HETATM   15  C   UNL     1     -40.862 -52.545  12.129  1.00  0.00     0.003 C 
HETATM   16  C   UNL     1     -39.892 -51.513  12.773  1.00  0.00     0.006 C 
HETATM   17  C   UNL     1     -40.848 -50.411  12.275  1.00  0.00     0.001 C 
HETATM   18  C   UNL     1     -41.969 -51.471  12.313  1.00  0.00     0.006 C 
ENDBRANCH  14  15
ENDBRANCH  12  14
ENDBRANCH   1  10
TORSDOF 4
ENDMDL
MODEL 6
REMARK VINA RESULT:      -5.1      2.168      5.382
REMARK  4 active torsions:
REMARK  status: ('A' for Active; 'I' for Inactive)
REMARK    1  A    between atoms: N_7  and  C_8 
REMARK    2  A    between atoms: C_8  and  C_9 
REMARK       I    between atoms: C_9  and  N_11 
REMARK    3  A    between atoms: N_11  and  C_12 
REMARK    4  A    between atoms: C_12  and  C_13 
ROOT
HETATM    1  C   UNL     1     -42.832 -53.044  12.505  1.00  0.00     0.234 C 
ENDROOT
BRANCH   1   2
HETATM    2  N   UNL     1     -42.225 -53.762  13.623  1.00  0.00    -0.313 N 
HETATM    3  C   UNL     1     -40.838 -53.895  13.655  1.00  0.00     0.247 A 
HETATM    4  C   UNL     1     -40.257 -54.433  14.919  1.00  0.00     0.077 A 
HETATM    5  O   UNL     1     -40.100 -53.594  12.720  1.00  0.00    -0.268 OA
HETATM    6  C   UNL     1     -41.063 -54.823  15.917  1.00  0.00     0.049 A 
HETATM    7  C   UNL     1     -42.488 -54.734  15.771  1.00  0.00     0.132 A 
HETATM    8  F   UNL     1     -43.266 -55.149  16.790  1.00  0.00    -0.205 F 
HETATM    9  C   UNL     1     -43.027 -54.210  14.665  1.00  0.00     0.137 A 
ENDBRANCH   1   2
BRANCH   1  10
HETATM   10  C   UNL     1     -44.360 -53.027  12.495  1.00  0.00     0.235 C 
HETATM   11  O   UNL     1     -45.007 -54.064  12.358  1.00  0.00    -0.272 OA
HETATM   12  N   UNL     1     -44.953 -51.803  12.737  1.00  0.00    -0.359 N 
HETATM   13  H   UNL     1     -44.371 -50.967  12.701  1.00  0.00     0.162 HD
BRANCH  12  14
HETATM   14  C   UNL     1     -46.396 -51.697  12.820  1.00  0.00     0.127 C 
BRANCH  14  15
HETATM   15  C   UNL     1     -46.777 -51.416  14.261  1.00  0.00     0.003 C 
HETATM   16  C   UNL     1     -45.589 -51.074  15.206  1.00  0.00     0.006 C 
HETATM   17  C   UNL     1     -46.338 -51.846  16.310  1.00  0.00     0.001 C 
HETATM   18  C   UNL     1     -47.028 -52.642  15.182  1.00  0.00     0.006 C 
ENDBRANCH  14  15
ENDBRANCH  12  14
ENDBRANCH   1  10
TORSDOF 4
ENDMDL
MODEL 7
REMARK VINA RESULT:      -5.1      3.213      5.799
REMARK  4 active torsions:
REMARK  status: ('A' for Active; 'I' for Inactive)
REMARK    1  A    between atoms: N_7  and  C_8 
REMARK    2  A    between atoms: C_8  and  C_9 
REMARK       I    between atoms: C_9  and  N_11 
REMARK    3  A    between atoms: N_11  and  C_12 
REMARK    4  A    between atoms: C_12  and  C_13 
ROOT
HETATM    1  C   UNL     1     -41.145 -52.259  11.759  1.00  0.00     0.234 C 
ENDROOT
BRANCH   1   2
HETATM    2  N   UNL     1     -40.878 -50.870  12.126  1.00  0.00    -0.313 N 
HETATM    3  C   UNL     1     -39.553 -50.466  12.283  1.00  0.00     0.247 A 
HETATM    4  C   UNL     1     -39.325 -49.000  12.434  1.00  0.00     0.077 A 
HETATM    5  O   UNL     1     -38.598 -51.240  12.297  1.00  0.00    -0.268 OA
HETATM    6  C   UNL     1     -40.367 -48.159  12.483  1.00  0.00     0.049 A 
HETATM    7  C   UNL     1     -41.708 -48.665  12.402  1.00  0.00     0.132 A 
HETATM    8  F   UNL     1     -42.732 -47.790  12.469  1.00  0.00    -0.205 F 
HETATM    9  C   UNL     1     -41.932 -49.970  12.218  1.00  0.00     0.137 A 
ENDBRANCH   1   2
BRANCH   1  10
HETATM   10  C   UNL     1     -42.195 -52.966  12.614  1.00  0.00     0.235 C 
HETATM   11  O   UNL     1     -41.951 -53.303  13.773  1.00  0.00    -0.272 OA
HETATM   12  N   UNL     1     -43.442 -53.118  12.039  1.00  0.00    -0.359 N 
HETATM   13  H   UNL     1     -43.538 -52.949  11.038  1.00  0.00     0.162 HD
BRANCH  12  14
HETATM   14  C   UNL     1     -44.526 -53.712  12.797  1.00  0.00     0.127 C 
BRANCH  14  15
HETATM   15  C   UNL     1     -45.646 -52.696  12.913  1.00  0.00     0.003 C 
HETATM   16  C   UNL     1     -45.255 -51.351  13.590  1.00  0.00     0.006 C 
HETATM   17  C   UNL     1     -46.662 -51.341  14.220  1.00  0.00     0.001 C 
HETATM   18  C   UNL     1     -46.653 -52.878  14.082  1.00  0.00     0.006 C 
ENDBRANCH  14  15
ENDBRANCH  12  14
ENDBRANCH   1  10
TORSDOF 4
ENDMDL
MODEL 8
REMARK VINA RESULT:      -5.0      2.156      3.037
REMARK  4 active torsions:
REMARK  status: ('A' for Active; 'I' for Inactive)
REMARK    1  A    between atoms: N_7  and  C_8 
REMARK    2  A    between atoms: C_8  and  C_9 
REMARK       I    between atoms: C_9  and  N_11 
REMARK    3  A    between atoms: N_11  and  C_12 
REMARK    4  A    between atoms: C_12  and  C_13 
ROOT
HETATM    1  C   UNL     1     -43.775 -53.790  12.400  1.00  0.00     0.234 C 
ENDROOT
BRANCH   1   2
HETATM    2  N   UNL     1     -44.930 -53.576  13.268  1.00  0.00    -0.313 N 
HETATM    3  C   UNL     1     -45.250 -54.558  14.205  1.00  0.00     0.247 A 
HETATM    4  C   UNL     1     -46.291 -54.196  15.210  1.00  0.00     0.077 A 
HETATM    5  O   UNL     1     -44.726 -55.669  14.238  1.00  0.00    -0.268 OA
HETATM    6  C   UNL     1     -46.911 -53.009  15.138  1.00  0.00     0.049 A 
HETATM    7  C   UNL     1     -46.585 -52.087  14.088  1.00  0.00     0.132 A 
HETATM    8  F   UNL     1     -47.239 -50.909  14.039  1.00  0.00    -0.205 F 
HETATM    9  C   UNL     1     -45.621 -52.373  13.206  1.00  0.00     0.137 A 
ENDBRANCH   1   2
BRANCH   1  10
HETATM   10  C   UNL     1     -42.529 -52.984  12.764  1.00  0.00     0.235 C 
HETATM   11  O   UNL     1     -42.044 -53.038  13.894  1.00  0.00    -0.272 OA
HETATM   12  N   UNL     1     -41.946 -52.272  11.734  1.00  0.00    -0.359 N 
HETATM   13  H   UNL     1     -42.471 -52.154  10.868  1.00  0.00     0.162 HD
BRANCH  12  14
HETATM   14  C   UNL     1     -40.719 -51.534  11.963  1.00  0.00     0.127 C 
BRANCH  14  15
HETATM   15  C   UNL     1     -40.846 -50.174  11.304  1.00  0.00     0.003 C 
HETATM   16  C   UNL     1     -39.796 -49.118  11.756  1.00  0.00     0.006 C 
HETATM   17  C   UNL     1     -40.912 -48.061  11.632  1.00  0.00     0.001 C 
HETATM   18  C   UNL     1     -41.920 -49.206  11.872  1.00  0.00     0.006 C 
ENDBRANCH  14  15
ENDBRANCH  12  14
ENDBRANCH   1  10
TORSDOF 4
ENDMDL
MODEL 9
REMARK VINA RESULT:      -4.9      2.835      5.698
REMARK  4 active torsions:
REMARK  status: ('A' for Active; 'I' for Inactive)
REMARK    1  A    between atoms: N_7  and  C_8 
REMARK    2  A    between atoms: C_8  and  C_9 
REMARK       I    between atoms: C_9  and  N_11 
REMARK    3  A    between atoms: N_11  and  C_12 
REMARK    4  A    between atoms: C_12  and  C_13 
ROOT
HETATM    1  C   UNL     1     -40.847 -54.093  12.945  1.00  0.00     0.234 C 
ENDROOT
BRANCH   1   2
HETATM    2  N   UNL     1     -40.178 -52.899  13.457  1.00  0.00    -0.313 N 
HETATM    3  C   UNL     1     -40.417 -51.679  12.827  1.00  0.00     0.247 A 
HETATM    4  C   UNL     1     -39.893 -50.466  13.520  1.00  0.00     0.077 A 
HETATM    5  O   UNL     1     -41.023 -51.564  11.765  1.00  0.00    -0.268 OA
HETATM    6  C   UNL     1     -39.176 -50.591  14.645  1.00  0.00     0.049 A 
HETATM    7  C   UNL     1     -38.899 -51.893  15.184  1.00  0.00     0.132 A 
HETATM    8  F   UNL     1     -38.163 -51.980  16.310  1.00  0.00    -0.205 F 
HETATM    9  C   UNL     1     -39.400 -52.989  14.605  1.00  0.00     0.137 A 
ENDBRANCH   1   2
BRANCH   1  10
HETATM   10  C   UNL     1     -42.314 -54.239  13.345  1.00  0.00     0.235 C 
HETATM   11  O   UNL     1     -42.631 -54.658  14.458  1.00  0.00    -0.272 OA
HETATM   12  N   UNL     1     -43.240 -53.792  12.423  1.00  0.00    -0.359 N 
HETATM   13  H   UNL     1     -42.922 -53.592  11.475  1.00  0.00     0.162 HD
BRANCH  12  14
HETATM   14  C   UNL     1     -44.654 -53.821  12.740  1.00  0.00     0.127 C 
BRANCH  14  15
HETATM   15  C   UNL     1     -45.057 -52.460  13.273  1.00  0.00     0.003 C 
HETATM   16  C   UNL     1     -45.638 -52.459  14.717  1.00  0.00     0.006 C 
HETATM   17  C   UNL     1     -46.595 -51.342  14.254  1.00  0.00     0.001 C 
HETATM   18  C   UNL     1     -46.435 -51.900  12.824  1.00  0.00     0.006 C 
ENDBRANCH  14  15
ENDBRANCH  12  14
ENDBRANCH   1  10
TORSDOF 4
ENDMDL
