MODEL 1
REMARK VINA RESULT:      -6.4      0.000      0.000
REMARK  6 active torsions:
REMARK  status: ('A' for Active; 'I' for Inactive)
REMARK    1  A    between atoms: S_2  and  C_5 
REMARK    2  A    between atoms: C_5  and  C_6 
REMARK    3  A    between atoms: N_15  and  C_16 
REMARK    4  A    between atoms: C_16  and  C_17 
REMARK    5  A    between atoms: C_17  and  O_18 
REMARK    6  A    between atoms: C_17  and  C_19 
ROOT
HETATM    1  C   UNL     1     -40.267 -52.249  13.248  1.00  0.00     0.098 A 
HETATM    2  N   UNL     1     -39.565 -52.952  14.117  1.00  0.00    -0.343 N 
ATOM      3  HN  UNL     1     -38.563 -52.882  14.296  1.00  0.00     0.167 HD
HETATM    4  C   UNL     1     -40.455 -53.796  14.731  1.00  0.00     0.060 A 
HETATM    5  C   UNL     1     -40.233 -54.743  15.743  1.00  0.00     0.032 A 
HETATM    6  C   UNL     1     -41.320 -55.485  16.225  1.00  0.00     0.002 A 
HETATM    7  C   UNL     1     -42.598 -55.292  15.705  1.00  0.00     0.002 A 
HETATM    8  C   UNL     1     -42.835 -54.355  14.691  1.00  0.00     0.032 A 
HETATM    9  C   UNL     1     -41.737 -53.618  14.225  1.00  0.00     0.062 A 
HETATM   10  N   UNL     1     -41.597 -52.628  13.271  1.00  0.00    -0.331 N 
ENDROOT
BRANCH  10  11
HETATM   11  C   UNL     1     -42.702 -52.008  12.557  1.00  0.00     0.167 C 
BRANCH  11  12
HETATM   12  C   UNL     1     -43.267 -50.733  13.206  1.00  0.00     0.169 C 
BRANCH  12  13
HETATM   13  O   UNL     1     -43.541 -49.750  12.209  1.00  0.00    -0.389 OA
HETATM   14  H   UNL     1     -44.243 -49.169  12.545  1.00  0.00     0.210 HD
ENDBRANCH  12  13
BRANCH  12  15
HETATM   15  C   UNL     1     -44.537 -50.975  14.007  1.00  0.00    -0.028 A 
HETATM   16  C   UNL     1     -45.702 -51.395  13.338  1.00  0.00     0.010 A 
HETATM   17  C   UNL     1     -46.898 -51.603  14.034  1.00  0.00     0.001 A 
HETATM   18  C   UNL     1     -46.949 -51.410  15.410  1.00  0.00     0.000 A 
HETATM   19  C   UNL     1     -45.800 -51.025  16.095  1.00  0.00     0.001 A 
HETATM   20  C   UNL     1     -44.603 -50.816  15.402  1.00  0.00     0.010 A 
ENDBRANCH  12  15
ENDBRANCH  11  12
ENDBRANCH  10  11
BRANCH   1  21
HETATM   21  C   UNL     1     -39.678 -51.230  12.342  1.00  0.00     0.216 C 
BRANCH  21  22
HETATM   22  S   UNL     1     -38.007 -50.839  12.842  1.00  0.00     0.147 S 
HETATM   23  C   UNL     1     -37.529 -49.425  11.878  1.00  0.00     0.161 C 
HETATM   24  O   UNL     1     -37.130 -51.937  12.479  1.00  0.00    -0.228 OA
HETATM   25  O   UNL     1     -38.070 -50.407  14.230  1.00  0.00    -0.228 OA
ENDBRANCH  21  22
ENDBRANCH   1  21
TORSDOF 6
ENDMDL
MODEL 2
REMARK VINA RESULT:      -6.2      3.292      4.522
REMARK  6 active torsions:
REMARK  status: ('A' for Active; 'I' for Inactive)
REMARK    1  A    between atoms: S_2  and  C_5 
REMARK    2  A    between atoms: C_5  and  C_6 
REMARK    3  A    between atoms: N_15  and  C_16 
REMARK    4  A    between atoms: C_16  and  C_17 
REMARK    5  A    between atoms: C_17  and  O_18 
REMARK    6  A    between atoms: C_17  and  C_19 
ROOT
HETATM    1  C   UNL     1     -40.977 -48.890  11.313  1.00  0.00     0.098 A 
HETATM    2  N   UNL     1     -39.718 -49.039  10.942  1.00  0.00    -0.343 N 
ATOM      3  HN  UNL     1     -39.272 -48.641  10.114  1.00  0.00     0.167 HD
HETATM    4  C   UNL     1     -39.132 -49.835  11.892  1.00  0.00     0.060 A 
HETATM    5  C   UNL     1     -37.806 -50.286  11.983  1.00  0.00     0.032 A 
HETATM    6  C   UNL     1     -37.439 -51.089  13.071  1.00  0.00     0.002 A 
HETATM    7  C   UNL     1     -38.373 -51.442  14.042  1.00  0.00     0.002 A 
HETATM    8  C   UNL     1     -39.702 -51.004  13.963  1.00  0.00     0.032 A 
HETATM    9  C   UNL     1     -40.051 -50.197  12.871  1.00  0.00     0.062 A 
HETATM   10  N   UNL     1     -41.228 -49.589  12.480  1.00  0.00    -0.331 N 
ENDROOT
BRANCH  10  11
HETATM   11  C   UNL     1     -42.450 -49.574  13.270  1.00  0.00     0.167 C 
BRANCH  11  12
HETATM   12  C   UNL     1     -43.546 -50.545  12.797  1.00  0.00     0.169 C 
BRANCH  12  13
HETATM   13  O   UNL     1     -42.970 -51.791  12.410  1.00  0.00    -0.389 OA
HETATM   14  H   UNL     1     -42.743 -51.737  11.467  1.00  0.00     0.210 HD
ENDBRANCH  12  13
BRANCH  12  15
HETATM   15  C   UNL     1     -44.611 -50.811  13.850  1.00  0.00    -0.028 A 
HETATM   16  C   UNL     1     -44.328 -50.532  15.200  1.00  0.00     0.010 A 
HETATM   17  C   UNL     1     -45.270 -50.787  16.202  1.00  0.00     0.001 A 
HETATM   18  C   UNL     1     -46.516 -51.311  15.874  1.00  0.00     0.000 A 
HETATM   19  C   UNL     1     -46.827 -51.566  14.541  1.00  0.00     0.001 A 
HETATM   20  C   UNL     1     -45.887 -51.311  13.537  1.00  0.00     0.010 A 
ENDBRANCH  12  15
ENDBRANCH  11  12
ENDBRANCH  10  11
BRANCH   1  21
HETATM   21  C   UNL     1     -41.981 -48.117  10.539  1.00  0.00     0.216 C 
BRANCH  21  22
HETATM   22  S   UNL     1     -41.624 -46.367  10.625  1.00  0.00     0.147 S 
HETATM   23  C   UNL     1     -42.240 -45.822  12.200  1.00  0.00     0.161 C 
HETATM   24  O   UNL     1     -42.376 -45.675   9.594  1.00  0.00    -0.228 OA
HETATM   25  O   UNL     1     -40.177 -46.231  10.662  1.00  0.00    -0.228 OA
ENDBRANCH  21  22
ENDBRANCH   1  21
TORSDOF 6
ENDMDL
MODEL 3
REMARK VINA RESULT:      -6.1      4.712      8.046
REMARK  6 active torsions:
REMARK  status: ('A' for Active; 'I' for Inactive)
REMARK    1  A    between atoms: S_2  and  C_5 
REMARK    2  A    between atoms: C_5  and  C_6 
REMARK    3  A    between atoms: N_15  and  C_16 
REMARK    4  A    between atoms: C_16  and  C_17 
REMARK    5  A    between atoms: C_17  and  O_18 
REMARK    6  A    between atoms: C_17  and  C_19 
ROOT
HETATM    1  C   UNL     1     -42.970 -46.839  11.302  1.00  0.00     0.098 A 
HETATM    2  N   UNL     1     -42.729 -45.547  11.174  1.00  0.00    -0.343 N 
ATOM      3  HN  UNL     1     -43.310 -44.860  10.693  1.00  0.00     0.167 HD
HETATM    4  C   UNL     1     -41.541 -45.316  11.818  1.00  0.00     0.060 A 
HETATM    5  C   UNL     1     -40.841 -44.112  11.994  1.00  0.00     0.032 A 
HETATM    6  C   UNL     1     -39.638 -44.127  12.712  1.00  0.00     0.002 A 
HETATM    7  C   UNL     1     -39.140 -45.317  13.239  1.00  0.00     0.002 A 
HETATM    8  C   UNL     1     -39.824 -46.528  13.068  1.00  0.00     0.032 A 
HETATM    9  C   UNL     1     -41.028 -46.493  12.351  1.00  0.00     0.062 A 
HETATM   10  N   UNL     1     -41.953 -47.459  12.005  1.00  0.00    -0.331 N 
ENDROOT
BRANCH  10  11
HETATM   11  C   UNL     1     -41.911 -48.841  12.458  1.00  0.00     0.167 C 
BRANCH  11  12
HETATM   12  C   UNL     1     -41.186 -49.817  11.516  1.00  0.00     0.169 C 
BRANCH  12  13
HETATM   13  O   UNL     1     -41.039 -49.237  10.221  1.00  0.00    -0.389 OA
HETATM   14  H   UNL     1     -40.303 -48.604  10.257  1.00  0.00     0.210 HD
ENDBRANCH  12  13
BRANCH  12  15
HETATM   15  C   UNL     1     -39.811 -50.231  12.018  1.00  0.00    -0.028 A 
HETATM   16  C   UNL     1     -38.664 -49.701  11.400  1.00  0.00     0.010 A 
HETATM   17  C   UNL     1     -37.382 -50.076  11.814  1.00  0.00     0.001 A 
HETATM   18  C   UNL     1     -37.221 -50.976  12.862  1.00  0.00     0.000 A 
HETATM   19  C   UNL     1     -38.343 -51.490  13.508  1.00  0.00     0.001 A 
HETATM   20  C   UNL     1     -39.625 -51.116  13.095  1.00  0.00     0.010 A 
ENDBRANCH  12  15
ENDBRANCH  11  12
ENDBRANCH  10  11
BRANCH   1  21
HETATM   21  C   UNL     1     -44.153 -47.520  10.718  1.00  0.00     0.216 C 
BRANCH  21  22
HETATM   22  S   UNL     1     -44.222 -47.252   8.952  1.00  0.00     0.147 S 
HETATM   23  C   UNL     1     -45.703 -48.059   8.395  1.00  0.00     0.161 C 
HETATM   24  O   UNL     1     -43.095 -47.915   8.323  1.00  0.00    -0.228 OA
HETATM   25  O   UNL     1     -44.411 -45.824   8.748  1.00  0.00    -0.228 OA
ENDBRANCH  21  22
ENDBRANCH   1  21
TORSDOF 6
ENDMDL
MODEL 4
REMARK VINA RESULT:      -6.1      2.879      5.042
REMARK  6 active torsions:
REMARK  status: ('A' for Active; 'I' for Inactive)
REMARK    1  A    between atoms: S_2  and  C_5 
REMARK    2  A    between atoms: C_5  and  C_6 
REMARK    3  A    between atoms: N_15  and  C_16 
REMARK    4  A    between atoms: C_16  and  C_17 
REMARK    5  A    between atoms: C_17  and  O_18 
REMARK    6  A    between atoms: C_17  and  C_19 
ROOT
HETATM    1  C   UNL     1     -40.127 -49.468  11.971  1.00  0.00     0.098 A 
HETATM    2  N   UNL     1     -39.703 -48.477  11.207  1.00  0.00    -0.343 N 
ATOM      3  HN  UNL     1     -38.896 -48.486  10.583  1.00  0.00     0.167 HD
HETATM    4  C   UNL     1     -40.567 -47.434  11.423  1.00  0.00     0.060 A 
HETATM    5  C   UNL     1     -40.579 -46.153  10.850  1.00  0.00     0.032 A 
HETATM    6  C   UNL     1     -41.587 -45.254  11.224  1.00  0.00     0.002 A 
HETATM    7  C   UNL     1     -42.558 -45.622  12.154  1.00  0.00     0.002 A 
HETATM    8  C   UNL     1     -42.557 -46.895  12.738  1.00  0.00     0.032 A 
HETATM    9  C   UNL     1     -41.544 -47.783  12.348  1.00  0.00     0.062 A 
HETATM   10  N   UNL     1     -41.242 -49.086  12.694  1.00  0.00    -0.331 N 
ENDROOT
BRANCH  10  11
HETATM   11  C   UNL     1     -42.071 -49.926  13.545  1.00  0.00     0.167 C 
BRANCH  11  12
HETATM   12  C   UNL     1     -43.263 -50.597  12.841  1.00  0.00     0.169 C 
BRANCH  12  13
HETATM   13  O   UNL     1     -42.862 -51.837  12.262  1.00  0.00    -0.389 OA
HETATM   14  H   UNL     1     -42.846 -52.506  12.967  1.00  0.00     0.210 HD
ENDBRANCH  12  13
BRANCH  12  15
HETATM   15  C   UNL     1     -44.443 -50.854  13.766  1.00  0.00    -0.028 A 
HETATM   16  C   UNL     1     -44.297 -50.622  15.146  1.00  0.00     0.010 A 
HETATM   17  C   UNL     1     -45.349 -50.871  16.034  1.00  0.00     0.001 A 
HETATM   18  C   UNL     1     -46.569 -51.342  15.560  1.00  0.00     0.000 A 
HETATM   19  C   UNL     1     -46.743 -51.549  14.194  1.00  0.00     0.001 A 
HETATM   20  C   UNL     1     -45.693 -51.300  13.304  1.00  0.00     0.010 A 
ENDBRANCH  12  15
ENDBRANCH  11  12
ENDBRANCH  10  11
BRANCH   1  21
HETATM   21  C   UNL     1     -39.451 -50.786  12.064  1.00  0.00     0.216 C 
BRANCH  21  22
HETATM   22  S   UNL     1     -37.690 -50.573  12.293  1.00  0.00     0.147 S 
HETATM   23  C   UNL     1     -37.504 -49.684  13.820  1.00  0.00     0.161 C 
HETATM   24  O   UNL     1     -37.168 -49.735  11.229  1.00  0.00    -0.228 OA
HETATM   25  O   UNL     1     -37.126 -51.897  12.498  1.00  0.00    -0.228 OA
ENDBRANCH  21  22
ENDBRANCH   1  21
TORSDOF 6
ENDMDL
MODEL 5
REMARK VINA RESULT:      -6.0      1.927      4.163
REMARK  6 active torsions:
REMARK  status: ('A' for Active; 'I' for Inactive)
REMARK    1  A    between atoms: S_2  and  C_5 
REMARK    2  A    between atoms: C_5  and  C_6 
REMARK    3  A    between atoms: N_15  and  C_16 
REMARK    4  A    between atoms: C_16  and  C_17 
REMARK    5  A    between atoms: C_17  and  O_18 
REMARK    6  A    between atoms: C_17  and  C_19 
ROOT
HETATM    1  C   UNL     1     -40.266 -52.757  14.027  1.00  0.00     0.098 A 
HETATM    2  N   UNL     1     -38.960 -52.575  14.078  1.00  0.00    -0.343 N 
ATOM      3  HN  UNL     1     -38.287 -53.109  14.629  1.00  0.00     0.167 HD
HETATM    4  C   UNL     1     -38.689 -51.523  13.241  1.00  0.00     0.060 A 
HETATM    5  C   UNL     1     -37.457 -50.933  12.920  1.00  0.00     0.032 A 
HETATM    6  C   UNL     1     -37.434 -49.863  12.014  1.00  0.00     0.002 A 
HETATM    7  C   UNL     1     -38.615 -49.388  11.447  1.00  0.00     0.002 A 
HETATM    8  C   UNL     1     -39.853 -49.963  11.761  1.00  0.00     0.032 A 
HETATM    9  C   UNL     1     -39.856 -51.034  12.665  1.00  0.00     0.062 A 
HETATM   10  N   UNL     1     -40.857 -51.832  13.185  1.00  0.00    -0.331 N 
ENDROOT
BRANCH  10  11
HETATM   11  C   UNL     1     -42.250 -51.783  12.770  1.00  0.00     0.167 C 
BRANCH  11  12
HETATM   12  C   UNL     1     -43.027 -50.538  13.233  1.00  0.00     0.169 C 
BRANCH  12  13
HETATM   13  O   UNL     1     -43.281 -49.674  12.128  1.00  0.00    -0.389 OA
HETATM   14  H   UNL     1     -44.216 -49.412  12.159  1.00  0.00     0.210 HD
ENDBRANCH  12  13
BRANCH  12  15
HETATM   15  C   UNL     1     -44.353 -50.869  13.901  1.00  0.00    -0.028 A 
HETATM   16  C   UNL     1     -45.431 -51.308  13.110  1.00  0.00     0.010 A 
HETATM   17  C   UNL     1     -46.675 -51.597  13.682  1.00  0.00     0.001 A 
HETATM   18  C   UNL     1     -46.861 -51.468  15.054  1.00  0.00     0.000 A 
HETATM   19  C   UNL     1     -45.798 -51.064  15.859  1.00  0.00     0.001 A 
HETATM   20  C   UNL     1     -44.554 -50.775  15.289  1.00  0.00     0.010 A 
ENDBRANCH  12  15
ENDBRANCH  11  12
ENDBRANCH  10  11
BRANCH   1  21
HETATM   21  C   UNL     1     -40.988 -53.787  14.816  1.00  0.00     0.216 C 
BRANCH  21  22
HETATM   22  S   UNL     1     -39.842 -54.727  15.816  1.00  0.00     0.147 S 
HETATM   23  C   UNL     1     -40.821 -55.944  16.663  1.00  0.00     0.161 C 
HETATM   24  O   UNL     1     -39.257 -53.856  16.819  1.00  0.00    -0.228 OA
HETATM   25  O   UNL     1     -38.969 -55.443  14.899  1.00  0.00    -0.228 OA
ENDBRANCH  21  22
ENDBRANCH   1  21
TORSDOF 6
ENDMDL
MODEL 6
REMARK VINA RESULT:      -5.8      2.612      5.655
REMARK  6 active torsions:
REMARK  status: ('A' for Active; 'I' for Inactive)
REMARK    1  A    between atoms: S_2  and  C_5 
REMARK    2  A    between atoms: C_5  and  C_6 
REMARK    3  A    between atoms: N_15  and  C_16 
REMARK    4  A    between atoms: C_16  and  C_17 
REMARK    5  A    between atoms: C_17  and  O_18 
REMARK    6  A    between atoms: C_17  and  C_19 
ROOT
HETATM    1  C   UNL     1     -41.462 -52.095  12.367  1.00  0.00     0.098 A 
HETATM    2  N   UNL     1     -42.639 -52.340  11.820  1.00  0.00    -0.343 N 
ATOM      3  HN  UNL     1     -43.005 -51.949  10.952  1.00  0.00     0.167 HD
HETATM    4  C   UNL     1     -43.270 -53.226  12.656  1.00  0.00     0.060 A 
HETATM    5  C   UNL     1     -44.535 -53.820  12.534  1.00  0.00     0.032 A 
HETATM    6  C   UNL     1     -44.959 -54.718  13.523  1.00  0.00     0.002 A 
HETATM    7  C   UNL     1     -44.143 -55.011  14.613  1.00  0.00     0.002 A 
HETATM    8  C   UNL     1     -42.879 -54.422  14.752  1.00  0.00     0.032 A 
HETATM    9  C   UNL     1     -42.469 -53.531  13.751  1.00  0.00     0.062 A 
HETATM   10  N   UNL     1     -41.318 -52.792  13.553  1.00  0.00    -0.331 N 
ENDROOT
BRANCH  10  11
HETATM   11  C   UNL     1     -40.126 -52.886  14.381  1.00  0.00     0.167 C 
BRANCH  11  12
HETATM   12  C   UNL     1     -39.509 -54.292  14.483  1.00  0.00     0.169 C 
BRANCH  12  13
HETATM   13  O   UNL     1     -38.616 -54.519  13.394  1.00  0.00    -0.389 OA
HETATM   14  H   UNL     1     -39.064 -54.248  12.576  1.00  0.00     0.210 HD
ENDBRANCH  12  13
BRANCH  12  15
HETATM   15  C   UNL     1     -38.756 -54.527  15.783  1.00  0.00    -0.028 A 
HETATM   16  C   UNL     1     -38.685 -53.492  16.734  1.00  0.00     0.010 A 
HETATM   17  C   UNL     1     -37.980 -53.658  17.930  1.00  0.00     0.001 A 
HETATM   18  C   UNL     1     -37.346 -54.864  18.207  1.00  0.00     0.000 A 
HETATM   19  C   UNL     1     -37.430 -55.912  17.293  1.00  0.00     0.001 A 
HETATM   20  C   UNL     1     -38.134 -55.748  16.096  1.00  0.00     0.010 A 
ENDBRANCH  12  15
ENDBRANCH  11  12
ENDBRANCH  10  11
BRANCH   1  21
HETATM   21  C   UNL     1     -40.465 -51.155  11.795  1.00  0.00     0.216 C 
BRANCH  21  22
HETATM   22  S   UNL     1     -40.939 -49.463  12.124  1.00  0.00     0.147 S 
HETATM   23  C   UNL     1     -40.720 -49.228  13.872  1.00  0.00     0.161 C 
HETATM   24  O   UNL     1     -42.350 -49.296  11.831  1.00  0.00    -0.228 OA
HETATM   25  O   UNL     1     -39.967 -48.613  11.454  1.00  0.00    -0.228 OA
ENDBRANCH  21  22
ENDBRANCH   1  21
TORSDOF 6
ENDMDL
MODEL 7
REMARK VINA RESULT:      -5.7      2.819      5.530
REMARK  6 active torsions:
REMARK  status: ('A' for Active; 'I' for Inactive)
REMARK    1  A    between atoms: S_2  and  C_5 
REMARK    2  A    between atoms: C_5  and  C_6 
REMARK    3  A    between atoms: N_15  and  C_16 
REMARK    4  A    between atoms: C_16  and  C_17 
REMARK    5  A    between atoms: C_17  and  O_18 
REMARK    6  A    between atoms: C_17  and  C_19 
ROOT
HETATM    1  C   UNL     1     -42.712 -52.806  13.760  1.00  0.00     0.098 A 
HETATM    2  N   UNL     1     -42.842 -53.628  14.785  1.00  0.00    -0.343 N 
ATOM      3  HN  UNL     1     -43.698 -53.837  15.299  1.00  0.00     0.167 HD
HETATM    4  C   UNL     1     -41.593 -54.144  15.019  1.00  0.00     0.060 A 
HETATM    5  C   UNL     1     -41.179 -55.075  15.984  1.00  0.00     0.032 A 
HETATM    6  C   UNL     1     -39.833 -55.463  16.016  1.00  0.00     0.002 A 
HETATM    7  C   UNL     1     -38.918 -54.930  15.111  1.00  0.00     0.002 A 
HETATM    8  C   UNL     1     -39.314 -53.996  14.145  1.00  0.00     0.032 A 
HETATM    9  C   UNL     1     -40.665 -53.623  14.124  1.00  0.00     0.062 A 
HETATM   10  N   UNL     1     -41.399 -52.762  13.330  1.00  0.00    -0.331 N 
ENDROOT
BRANCH  10  11
HETATM   11  C   UNL     1     -40.878 -52.077  12.157  1.00  0.00     0.167 C 
BRANCH  11  12
HETATM   12  C   UNL     1     -39.883 -50.941  12.451  1.00  0.00     0.169 C 
BRANCH  12  13
HETATM   13  O   UNL     1     -38.611 -51.237  11.877  1.00  0.00    -0.389 OA
HETATM   14  H   UNL     1     -38.569 -52.194  11.717  1.00  0.00     0.210 HD
ENDBRANCH  12  13
BRANCH  12  15
HETATM   15  C   UNL     1     -40.344 -49.587  11.934  1.00  0.00    -0.028 A 
HETATM   16  C   UNL     1     -39.446 -48.503  11.950  1.00  0.00     0.010 A 
HETATM   17  C   UNL     1     -39.839 -47.235  11.509  1.00  0.00     0.001 A 
HETATM   18  C   UNL     1     -41.128 -47.029  11.030  1.00  0.00     0.000 A 
HETATM   19  C   UNL     1     -42.022 -48.095  10.977  1.00  0.00     0.001 A 
HETATM   20  C   UNL     1     -41.632 -49.364  11.418  1.00  0.00     0.010 A 
ENDBRANCH  12  15
ENDBRANCH  11  12
ENDBRANCH  10  11
BRANCH   1  21
HETATM   21  C   UNL     1     -43.830 -52.007  13.196  1.00  0.00     0.216 C 
BRANCH  21  22
HETATM   22  S   UNL     1     -45.361 -52.926  13.280  1.00  0.00     0.147 S 
HETATM   23  C   UNL     1     -46.520 -52.032  12.272  1.00  0.00     0.161 C 
HETATM   24  O   UNL     1     -45.857 -52.906  14.644  1.00  0.00    -0.228 OA
HETATM   25  O   UNL     1     -45.124 -54.204  12.627  1.00  0.00    -0.228 OA
ENDBRANCH  21  22
ENDBRANCH   1  21
TORSDOF 6
ENDMDL
MODEL 8
REMARK VINA RESULT:      -5.7      2.699      5.349
REMARK  6 active torsions:
REMARK  status: ('A' for Active; 'I' for Inactive)
REMARK    1  A    between atoms: S_2  and  C_5 
REMARK    2  A    between atoms: C_5  and  C_6 
REMARK    3  A    between atoms: N_15  and  C_16 
REMARK    4  A    between atoms: C_16  and  C_17 
REMARK    5  A    between atoms: C_17  and  O_18 
REMARK    6  A    between atoms: C_17  and  C_19 
ROOT
HETATM    1  C   UNL     1     -43.672 -50.795  13.933  1.00  0.00     0.098 A 
HETATM    2  N   UNL     1     -44.700 -51.049  14.722  1.00  0.00    -0.343 N 
ATOM      3  HN  UNL     1     -45.154 -50.399  15.365  1.00  0.00     0.167 HD
HETATM    4  C   UNL     1     -45.034 -52.361  14.503  1.00  0.00     0.060 A 
HETATM    5  C   UNL     1     -46.062 -53.126  15.074  1.00  0.00     0.032 A 
HETATM    6  C   UNL     1     -46.215 -54.460  14.673  1.00  0.00     0.002 A 
HETATM    7  C   UNL     1     -45.357 -55.021  13.729  1.00  0.00     0.002 A 
HETATM    8  C   UNL     1     -44.323 -54.271  13.153  1.00  0.00     0.032 A 
HETATM    9  C   UNL     1     -44.188 -52.937  13.563  1.00  0.00     0.062 A 
HETATM   10  N   UNL     1     -43.318 -51.922  13.214  1.00  0.00    -0.331 N 
ENDROOT
BRANCH  10  11
HETATM   11  C   UNL     1     -42.325 -52.016  12.154  1.00  0.00     0.167 C 
BRANCH  11  12
HETATM   12  C   UNL     1     -40.949 -52.546  12.592  1.00  0.00     0.169 C 
BRANCH  12  13
HETATM   13  O   UNL     1     -40.503 -53.563  11.698  1.00  0.00    -0.389 OA
HETATM   14  H   UNL     1     -39.794 -53.190  11.148  1.00  0.00     0.210 HD
ENDBRANCH  12  13
BRANCH  12  15
HETATM   15  C   UNL     1     -39.882 -51.465  12.665  1.00  0.00    -0.028 A 
HETATM   16  C   UNL     1     -39.970 -50.352  11.807  1.00  0.00     0.010 A 
HETATM   17  C   UNL     1     -38.995 -49.349  11.824  1.00  0.00     0.001 A 
HETATM   18  C   UNL     1     -37.923 -49.430  12.706  1.00  0.00     0.000 A 
HETATM   19  C   UNL     1     -37.833 -50.508  13.585  1.00  0.00     0.001 A 
HETATM   20  C   UNL     1     -38.807 -51.511  13.570  1.00  0.00     0.010 A 
ENDBRANCH  12  15
ENDBRANCH  11  12
ENDBRANCH  10  11
BRANCH   1  21
HETATM   21  C   UNL     1     -42.974 -49.486  13.879  1.00  0.00     0.216 C 
BRANCH  21  22
HETATM   22  S   UNL     1     -41.852 -49.318  15.261  1.00  0.00     0.147 S 
HETATM   23  C   UNL     1     -42.709 -48.333  16.466  1.00  0.00     0.161 C 
HETATM   24  O   UNL     1     -40.680 -48.574  14.837  1.00  0.00    -0.228 OA
HETATM   25  O   UNL     1     -41.685 -50.644  15.835  1.00  0.00    -0.228 OA
ENDBRANCH  21  22
ENDBRANCH   1  21
TORSDOF 6
ENDMDL
MODEL 9
REMARK VINA RESULT:      -5.5     16.584     18.362
REMARK  6 active torsions:
REMARK  status: ('A' for Active; 'I' for Inactive)
REMARK    1  A    between atoms: S_2  and  C_5 
REMARK    2  A    between atoms: C_5  and  C_6 
REMARK    3  A    between atoms: N_15  and  C_16 
REMARK    4  A    between atoms: C_16  and  C_17 
REMARK    5  A    between atoms: C_17  and  O_18 
REMARK    6  A    between atoms: C_17  and  C_19 
ROOT
HETATM    1  C   UNL     1     -49.579 -50.628  -0.557  1.00  0.00     0.098 A 
HETATM    2  N   UNL     1     -50.770 -50.078  -0.410  1.00  0.00    -0.343 N 
ATOM      3  HN  UNL     1     -50.974 -49.093  -0.236  1.00  0.00     0.167 HD
HETATM    4  C   UNL     1     -51.679 -51.097  -0.540  1.00  0.00     0.060 A 
HETATM    5  C   UNL     1     -53.081 -51.054  -0.485  1.00  0.00     0.032 A 
HETATM    6  C   UNL     1     -53.801 -52.243  -0.664  1.00  0.00     0.002 A 
HETATM    7  C   UNL     1     -53.138 -53.448  -0.887  1.00  0.00     0.002 A 
HETATM    8  C   UNL     1     -51.740 -53.508  -0.940  1.00  0.00     0.032 A 
HETATM    9  C   UNL     1     -51.036 -52.309  -0.764  1.00  0.00     0.062 A 
HETATM   10  N   UNL     1     -49.691 -51.991  -0.764  1.00  0.00    -0.331 N 
ENDROOT
BRANCH  10  11
HETATM   11  C   UNL     1     -48.623 -52.923  -1.091  1.00  0.00     0.167 C 
BRANCH  11  12
HETATM   12  C   UNL     1     -48.272 -53.016  -2.586  1.00  0.00     0.169 C 
BRANCH  12  13
HETATM   13  O   UNL     1     -46.888 -52.735  -2.787  1.00  0.00    -0.389 OA
HETATM   14  H   UNL     1     -46.373 -53.391  -2.288  1.00  0.00     0.210 HD
ENDBRANCH  12  13
BRANCH  12  15
HETATM   15  C   UNL     1     -48.582 -54.375  -3.195  1.00  0.00    -0.028 A 
HETATM   16  C   UNL     1     -48.990 -55.428  -2.355  1.00  0.00     0.010 A 
HETATM   17  C   UNL     1     -49.260 -56.700  -2.871  1.00  0.00     0.001 A 
HETATM   18  C   UNL     1     -49.141 -56.941  -4.236  1.00  0.00     0.000 A 
HETATM   19  C   UNL     1     -48.768 -55.904  -5.088  1.00  0.00     0.001 A 
HETATM   20  C   UNL     1     -48.499 -54.632  -4.575  1.00  0.00     0.010 A 
ENDBRANCH  12  15
ENDBRANCH  11  12
ENDBRANCH  10  11
BRANCH   1  21
HETATM   21  C   UNL     1     -48.303 -49.874  -0.457  1.00  0.00     0.216 C 
BRANCH  21  22
HETATM   22  S   UNL     1     -47.861 -49.177  -2.043  1.00  0.00     0.147 S 
HETATM   23  C   UNL     1     -47.441 -47.480  -1.727  1.00  0.00     0.161 C 
HETATM   24  O   UNL     1     -49.024 -49.190  -2.911  1.00  0.00    -0.228 OA
HETATM   25  O   UNL     1     -46.644 -49.846  -2.475  1.00  0.00    -0.228 OA
ENDBRANCH  21  22
ENDBRANCH   1  21
TORSDOF 6
ENDMDL
