MODEL 1
REMARK VINA RESULT:      -7.2      0.000      0.000
REMARK  6 active torsions:
REMARK  status: ('A' for Active; 'I' for Inactive)
REMARK    1  A    between atoms: N_2  and  C_3 
REMARK    2  A    between atoms: N_4  and  C_18 
REMARK    3  A    between atoms: C_13  and  C_24 
REMARK    4  A    between atoms: C_18  and  C_19 
REMARK    5  A    between atoms: C_19  and  C_23 
REMARK    6  A    between atoms: C_23  and  O_25 
ROOT
HETATM    1  C   UNL     1     -42.369 -48.871  11.606  1.00  0.00     0.122 A 
HETATM    2  C   UNL     1     -41.869 -50.099  12.141  1.00  0.00     0.136 A 
HETATM    3  N   UNL     1     -42.161 -46.811  10.822  1.00  0.00    -0.326 N 
HETATM    4  C   UNL     1     -41.439 -47.898  11.258  1.00  0.00     0.140 A 
HETATM    5  N   UNL     1     -43.646 -48.388  11.364  1.00  0.00    -0.346 N 
ATOM      6  HN  UNL     1     -44.528 -48.875  11.518  1.00  0.00     0.167 HD
HETATM    7  C   UNL     1     -43.482 -47.165  10.894  1.00  0.00     0.185 A 
HETATM    8  N   UNL     1     -40.512 -50.170  12.293  1.00  0.00    -0.337 N 
ATOM      9  HN  UNL     1     -40.092 -51.003  12.704  1.00  0.00     0.168 HD
HETATM   10  N   UNL     1     -40.101 -47.970  11.365  1.00  0.00    -0.336 N 
ATOM     11  HN  UNL     1     -39.457 -47.233  11.079  1.00  0.00     0.168 HD
HETATM   12  C   UNL     1     -39.729 -49.148  11.904  1.00  0.00     0.183 A 
ENDROOT
BRANCH   2  13
HETATM   13  N   UNL     1     -42.635 -51.207  12.530  1.00  0.00    -0.357 N 
HETATM   14  C   UNL     1     -43.750 -50.937  13.463  1.00  0.00     0.160 C 
HETATM   15  C   UNL     1     -44.767 -52.124  13.482  1.00  0.00     0.241 C 
HETATM   16  N   UNL     1     -44.124 -53.452  13.660  1.00  0.00     0.096 N 
HETATM   17  C   UNL     1     -45.803 -51.897  14.599  1.00  0.00     0.037 C 
HETATM   18  C   UNL     1     -43.068 -53.624  12.633  1.00  0.00     0.298 C 
HETATM   19  C   UNL     1     -45.102 -54.542  13.616  1.00  0.00     0.273 C 
HETATM   20  C   UNL     1     -41.973 -52.510  12.718  1.00  0.00     0.114 C 
HETATM   21  C   UNL     1     -46.143 -54.380  14.726  1.00  0.00     0.030 C 
HETATM   22  C   UNL     1     -46.833 -53.023  14.645  1.00  0.00     0.004 C 
BRANCH  20  23
HETATM   23  C   UNL     1     -41.236 -52.644  14.076  1.00  0.00     0.022 C 
HETATM   24  C   UNL     1     -40.005 -53.536  14.085  1.00  0.00     0.007 C 
ENDBRANCH  20  23
ENDBRANCH   2  13
BRANCH   3  25
HETATM   25  C   UNL     1     -41.615 -45.532  10.351  1.00  0.00     0.143 C 
BRANCH  25  26
HETATM   26  C   UNL     1     -41.701 -44.334  11.363  1.00  0.00     0.001 C 
HETATM   27  C   UNL     1     -40.350 -43.579  11.401  1.00  0.00     0.039 C 
HETATM   28  C   UNL     1     -39.300 -44.350  12.204  1.00  0.00     0.168 C 
HETATM   29  O   UNL     1     -39.734 -44.478  13.552  1.00  0.00    -0.391 OA
HETATM   30  C   UNL     1     -40.889 -45.299  13.667  1.00  0.00     0.168 C 
HETATM   31  C   UNL     1     -42.042 -44.775  12.823  1.00  0.00     0.039 C 
BRANCH  26  32
HETATM   32  C   UNL     1     -42.860 -43.392  10.944  1.00  0.00     0.175 C 
BRANCH  32  33
HETATM   33  O   UNL     1     -43.562 -43.939   9.828  1.00  0.00    -0.400 OA
HETATM   34  H   UNL     1     -44.205 -44.593  10.174  1.00  0.00     0.209 HD
ENDBRANCH  32  33
ENDBRANCH  26  32
ENDBRANCH  25  26
ENDBRANCH   3  25
TORSDOF 6
ENDMDL
MODEL 2
REMARK VINA RESULT:      -7.1      3.143      8.292
REMARK  6 active torsions:
REMARK  status: ('A' for Active; 'I' for Inactive)
REMARK    1  A    between atoms: N_2  and  C_3 
REMARK    2  A    between atoms: N_4  and  C_18 
REMARK    3  A    between atoms: C_13  and  C_24 
REMARK    4  A    between atoms: C_18  and  C_19 
REMARK    5  A    between atoms: C_19  and  C_23 
REMARK    6  A    between atoms: C_23  and  O_25 
ROOT
HETATM    1  C   UNL     1     -41.688 -49.009  12.792  1.00  0.00     0.122 A 
HETATM    2  C   UNL     1     -40.752 -48.009  12.380  1.00  0.00     0.136 A 
HETATM    3  N   UNL     1     -42.567 -51.041  12.774  1.00  0.00    -0.326 N 
HETATM    4  C   UNL     1     -41.530 -50.288  12.271  1.00  0.00     0.140 A 
HETATM    5  N   UNL     1     -42.799 -48.988  13.622  1.00  0.00    -0.346 N 
ATOM      6  HN  UNL     1     -43.161 -48.193  14.147  1.00  0.00     0.167 HD
HETATM    7  C   UNL     1     -43.291 -50.213  13.591  1.00  0.00     0.185 A 
HETATM    8  N   UNL     1     -39.814 -48.415  11.473  1.00  0.00    -0.337 N 
ATOM      9  HN  UNL     1     -39.139 -47.743  11.107  1.00  0.00     0.168 HD
HETATM   10  N   UNL     1     -40.590 -50.709  11.409  1.00  0.00    -0.336 N 
ATOM     11  HN  UNL     1     -40.504 -51.667  11.067  1.00  0.00     0.168 HD
HETATM   12  C   UNL     1     -39.775 -49.694  11.058  1.00  0.00     0.183 A 
ENDROOT
BRANCH   2  13
HETATM   13  N   UNL     1     -40.725 -46.674  12.805  1.00  0.00    -0.357 N 
HETATM   14  C   UNL     1     -40.508 -45.656  11.753  1.00  0.00     0.160 C 
HETATM   15  C   UNL     1     -40.920 -44.233  12.253  1.00  0.00     0.241 C 
HETATM   16  N   UNL     1     -40.343 -43.882  13.577  1.00  0.00     0.096 N 
HETATM   17  C   UNL     1     -40.502 -43.180  11.211  1.00  0.00     0.037 C 
HETATM   18  C   UNL     1     -40.678 -44.948  14.554  1.00  0.00     0.298 C 
HETATM   19  C   UNL     1     -40.798 -42.567  14.037  1.00  0.00     0.273 C 
HETATM   20  C   UNL     1     -40.132 -46.346  14.114  1.00  0.00     0.114 C 
HETATM   21  C   UNL     1     -40.383 -41.475  13.048  1.00  0.00     0.030 C 
HETATM   22  C   UNL     1     -40.902 -41.772  11.646  1.00  0.00     0.004 C 
BRANCH  20  23
HETATM   23  C   UNL     1     -38.582 -46.289  14.099  1.00  0.00     0.022 C 
HETATM   24  C   UNL     1     -37.862 -47.519  14.627  1.00  0.00     0.007 C 
ENDBRANCH  20  23
ENDBRANCH   2  13
BRANCH   3  25
HETATM   25  C   UNL     1     -42.827 -52.460  12.502  1.00  0.00     0.143 C 
BRANCH  25  26
HETATM   26  C   UNL     1     -42.148 -53.482  13.482  1.00  0.00     0.001 C 
HETATM   27  C   UNL     1     -43.118 -54.654  13.775  1.00  0.00     0.039 C 
HETATM   28  C   UNL     1     -44.214 -54.241  14.758  1.00  0.00     0.168 C 
HETATM   29  O   UNL     1     -43.626 -53.879  16.001  1.00  0.00    -0.391 OA
HETATM   30  C   UNL     1     -42.833 -52.704  15.896  1.00  0.00     0.168 C 
HETATM   31  C   UNL     1     -41.736 -52.852  14.852  1.00  0.00     0.039 C 
BRANCH  26  32
HETATM   32  C   UNL     1     -40.824 -53.990  12.856  1.00  0.00     0.175 C 
BRANCH  32  33
HETATM   33  O   UNL     1     -40.736 -53.586  11.490  1.00  0.00    -0.400 OA
HETATM   34  H   UNL     1     -40.300 -52.708  11.468  1.00  0.00     0.209 HD
ENDBRANCH  32  33
ENDBRANCH  26  32
ENDBRANCH  25  26
ENDBRANCH   3  25
TORSDOF 6
ENDMDL
MODEL 3
REMARK VINA RESULT:      -7.1      3.172      8.025
REMARK  6 active torsions:
REMARK  status: ('A' for Active; 'I' for Inactive)
REMARK    1  A    between atoms: N_2  and  C_3 
REMARK    2  A    between atoms: N_4  and  C_18 
REMARK    3  A    between atoms: C_13  and  C_24 
REMARK    4  A    between atoms: C_18  and  C_19 
REMARK    5  A    between atoms: C_19  and  C_23 
REMARK    6  A    between atoms: C_23  and  O_25 
ROOT
HETATM    1  C   UNL     1     -41.905 -49.765  12.187  1.00  0.00     0.122 A 
HETATM    2  C   UNL     1     -41.060 -48.712  11.718  1.00  0.00     0.136 A 
HETATM    3  N   UNL     1     -42.367 -51.870  12.695  1.00  0.00    -0.326 N 
HETATM    4  C   UNL     1     -41.354 -51.038  12.273  1.00  0.00     0.140 A 
HETATM    5  N   UNL     1     -43.236 -49.817  12.574  1.00  0.00    -0.346 N 
ATOM      6  HN  UNL     1     -43.895 -49.040  12.618  1.00  0.00     0.167 HD
HETATM    7  C   UNL     1     -43.471 -51.081  12.875  1.00  0.00     0.185 A 
HETATM    8  N   UNL     1     -39.794 -49.083  11.361  1.00  0.00    -0.337 N 
ATOM      9  HN  UNL     1     -39.150 -48.388  10.983  1.00  0.00     0.168 HD
HETATM   10  N   UNL     1     -40.101 -51.410  11.962  1.00  0.00    -0.336 N 
ATOM     11  HN  UNL     1     -39.737 -52.358  12.059  1.00  0.00     0.168 HD
HETATM   12  C   UNL     1     -39.392 -50.359  11.505  1.00  0.00     0.183 A 
ENDROOT
BRANCH   2  13
HETATM   13  N   UNL     1     -41.414 -47.362  11.581  1.00  0.00    -0.357 N 
HETATM   14  C   UNL     1     -41.989 -46.710  12.778  1.00  0.00     0.160 C 
HETATM   15  C   UNL     1     -41.940 -45.153  12.649  1.00  0.00     0.241 C 
HETATM   16  N   UNL     1     -42.476 -44.650  11.357  1.00  0.00     0.096 N 
HETATM   17  C   UNL     1     -42.716 -44.515  13.816  1.00  0.00     0.037 C 
HETATM   18  C   UNL     1     -41.781 -45.336  10.240  1.00  0.00     0.298 C 
HETATM   19  C   UNL     1     -42.360 -43.193  11.251  1.00  0.00     0.273 C 
HETATM   20  C   UNL     1     -41.961 -46.888  10.297  1.00  0.00     0.114 C 
HETATM   21  C   UNL     1     -43.139 -42.505  12.374  1.00  0.00     0.030 C 
HETATM   22  C   UNL     1     -42.679 -42.990  13.745  1.00  0.00     0.004 C 
BRANCH  20  23
HETATM   23  C   UNL     1     -43.463 -47.220  10.099  1.00  0.00     0.022 C 
HETATM   24  C   UNL     1     -43.903 -47.505   8.672  1.00  0.00     0.007 C 
ENDBRANCH  20  23
ENDBRANCH   2  13
BRANCH   3  25
HETATM   25  C   UNL     1     -42.268 -53.316  12.929  1.00  0.00     0.143 C 
BRANCH  25  26
HETATM   26  C   UNL     1     -41.722 -53.748  14.337  1.00  0.00     0.001 C 
HETATM   27  C   UNL     1     -42.573 -54.914  14.897  1.00  0.00     0.039 C 
HETATM   28  C   UNL     1     -43.920 -54.420  15.428  1.00  0.00     0.168 C 
HETATM   29  O   UNL     1     -43.704 -53.520  16.506  1.00  0.00    -0.391 OA
HETATM   30  C   UNL     1     -43.069 -52.320  16.083  1.00  0.00     0.168 C 
HETATM   31  C   UNL     1     -41.740 -52.595  15.393  1.00  0.00     0.039 C 
BRANCH  26  32
HETATM   32  C   UNL     1     -40.230 -54.152  14.206  1.00  0.00     0.175 C 
BRANCH  32  33
HETATM   33  O   UNL     1     -39.883 -54.319  12.831  1.00  0.00    -0.400 OA
HETATM   34  H   UNL     1     -39.245 -53.612  12.599  1.00  0.00     0.209 HD
ENDBRANCH  32  33
ENDBRANCH  26  32
ENDBRANCH  25  26
ENDBRANCH   3  25
TORSDOF 6
ENDMDL
MODEL 4
REMARK VINA RESULT:      -6.8      1.878      2.894
REMARK  6 active torsions:
REMARK  status: ('A' for Active; 'I' for Inactive)
REMARK    1  A    between atoms: N_2  and  C_3 
REMARK    2  A    between atoms: N_4  and  C_18 
REMARK    3  A    between atoms: C_13  and  C_24 
REMARK    4  A    between atoms: C_18  and  C_19 
REMARK    5  A    between atoms: C_19  and  C_23 
REMARK    6  A    between atoms: C_23  and  O_25 
ROOT
HETATM    1  C   UNL     1     -41.177 -47.401  11.769  1.00  0.00     0.122 A 
HETATM    2  C   UNL     1     -41.822 -48.573  11.266  1.00  0.00     0.136 A 
HETATM    3  N   UNL     1     -40.635 -45.254  11.728  1.00  0.00    -0.326 N 
HETATM    4  C   UNL     1     -41.392 -46.208  11.087  1.00  0.00     0.140 A 
HETATM    5  N   UNL     1     -40.314 -47.170  12.829  1.00  0.00    -0.346 N 
ATOM      6  HN  UNL     1     -39.977 -47.851  13.509  1.00  0.00     0.167 HD
HETATM    7  C   UNL     1     -40.019 -45.884  12.777  1.00  0.00     0.185 A 
HETATM    8  N   UNL     1     -42.559 -48.401  10.127  1.00  0.00    -0.337 N 
ATOM      9  HN  UNL     1     -43.015 -49.204   9.692  1.00  0.00     0.168 HD
HETATM   10  N   UNL     1     -42.144 -46.018   9.990  1.00  0.00    -0.336 N 
ATOM     11  HN  UNL     1     -42.285 -45.117   9.533  1.00  0.00     0.168 HD
HETATM   12  C   UNL     1     -42.685 -47.181   9.575  1.00  0.00     0.183 A 
ENDROOT
BRANCH   2  13
HETATM   13  N   UNL     1     -41.753 -49.860  11.818  1.00  0.00    -0.357 N 
HETATM   14  C   UNL     1     -42.330 -50.025  13.170  1.00  0.00     0.160 C 
HETATM   15  C   UNL     1     -42.584 -51.533  13.493  1.00  0.00     0.241 C 
HETATM   16  N   UNL     1     -41.412 -52.403  13.214  1.00  0.00     0.096 N 
HETATM   17  C   UNL     1     -43.000 -51.681  14.968  1.00  0.00     0.037 C 
HETATM   18  C   UNL     1     -40.966 -52.188  11.816  1.00  0.00     0.298 C 
HETATM   19  C   UNL     1     -41.708 -53.814  13.475  1.00  0.00     0.273 C 
HETATM   20  C   UNL     1     -40.573 -50.699  11.543  1.00  0.00     0.114 C 
HETATM   21  C   UNL     1     -42.101 -54.024  14.939  1.00  0.00     0.030 C 
HETATM   22  C   UNL     1     -43.279 -53.138  15.328  1.00  0.00     0.004 C 
BRANCH  20  23
HETATM   23  C   UNL     1     -39.340 -50.345  12.416  1.00  0.00     0.022 C 
HETATM   24  C   UNL     1     -38.084 -49.934  11.665  1.00  0.00     0.007 C 
ENDBRANCH  20  23
ENDBRANCH   2  13
BRANCH   3  25
HETATM   25  C   UNL     1     -40.532 -43.835  11.368  1.00  0.00     0.143 C 
BRANCH  25  26
HETATM   26  C   UNL     1     -41.449 -42.852  12.180  1.00  0.00     0.001 C 
HETATM   27  C   UNL     1     -40.882 -41.413  12.098  1.00  0.00     0.039 C 
HETATM   28  C   UNL     1     -39.667 -41.238  13.009  1.00  0.00     0.168 C 
HETATM   29  O   UNL     1     -40.053 -41.447  14.361  1.00  0.00    -0.391 OA
HETATM   30  C   UNL     1     -40.442 -42.792  14.606  1.00  0.00     0.168 C 
HETATM   31  C   UNL     1     -41.579 -43.227  13.692  1.00  0.00     0.039 C 
BRANCH  26  32
HETATM   32  C   UNL     1     -42.894 -42.920  11.621  1.00  0.00     0.175 C 
BRANCH  32  33
HETATM   33  O   UNL     1     -42.869 -43.041  10.199  1.00  0.00    -0.400 OA
HETATM   34  H   UNL     1     -43.213 -42.203   9.825  1.00  0.00     0.209 HD
ENDBRANCH  32  33
ENDBRANCH  26  32
ENDBRANCH  25  26
ENDBRANCH   3  25
TORSDOF 6
ENDMDL
MODEL 5
REMARK VINA RESULT:      -6.7      2.394      3.997
REMARK  6 active torsions:
REMARK  status: ('A' for Active; 'I' for Inactive)
REMARK    1  A    between atoms: N_2  and  C_3 
REMARK    2  A    between atoms: N_4  and  C_18 
REMARK    3  A    between atoms: C_13  and  C_24 
REMARK    4  A    between atoms: C_18  and  C_19 
REMARK    5  A    between atoms: C_19  and  C_23 
REMARK    6  A    between atoms: C_23  and  O_25 
ROOT
HETATM    1  C   UNL     1     -40.403 -49.640  13.780  1.00  0.00     0.122 A 
HETATM    2  C   UNL     1     -40.377 -51.017  13.394  1.00  0.00     0.136 A 
HETATM    3  N   UNL     1     -40.216 -47.466  13.409  1.00  0.00    -0.326 N 
HETATM    4  C   UNL     1     -40.192 -48.692  12.785  1.00  0.00     0.140 A 
HETATM    5  N   UNL     1     -40.575 -48.996  14.995  1.00  0.00    -0.346 N 
ATOM      6  HN  UNL     1     -40.751 -49.427  15.902  1.00  0.00     0.167 HD
HETATM    7  C   UNL     1     -40.464 -47.706  14.734  1.00  0.00     0.185 A 
HETATM    8  N   UNL     1     -40.103 -51.257  12.077  1.00  0.00    -0.337 N 
ATOM      9  HN  UNL     1     -40.031 -52.218  11.741  1.00  0.00     0.168 HD
HETATM   10  N   UNL     1     -39.960 -48.913  11.481  1.00  0.00    -0.336 N 
ATOM     11  HN  UNL     1     -39.828 -48.181  10.783  1.00  0.00     0.168 HD
HETATM   12  C   UNL     1     -39.925 -50.235  11.220  1.00  0.00     0.183 A 
ENDROOT
BRANCH   2  13
HETATM   13  N   UNL     1     -40.588 -52.118  14.235  1.00  0.00    -0.357 N 
HETATM   14  C   UNL     1     -39.505 -53.125  14.280  1.00  0.00     0.160 C 
HETATM   15  C   UNL     1     -39.647 -54.048  15.534  1.00  0.00     0.241 C 
HETATM   16  N   UNL     1     -41.014 -54.606  15.705  1.00  0.00     0.096 N 
HETATM   17  C   UNL     1     -38.626 -55.197  15.446  1.00  0.00     0.037 C 
HETATM   18  C   UNL     1     -41.999 -53.496  15.702  1.00  0.00     0.298 C 
HETATM   19  C   UNL     1     -41.122 -55.418  16.920  1.00  0.00     0.273 C 
HETATM   20  C   UNL     1     -41.949 -52.666  14.377  1.00  0.00     0.114 C 
HETATM   21  C   UNL     1     -40.145 -56.595  16.873  1.00  0.00     0.030 C 
HETATM   22  C   UNL     1     -38.713 -56.118  16.661  1.00  0.00     0.004 C 
BRANCH  20  23
HETATM   23  C   UNL     1     -42.375 -53.585  13.201  1.00  0.00     0.022 C 
HETATM   24  C   UNL     1     -43.590 -53.134  12.406  1.00  0.00     0.007 C 
ENDBRANCH  20  23
ENDBRANCH   2  13
BRANCH   3  25
HETATM   25  C   UNL     1     -40.034 -46.157  12.769  1.00  0.00     0.143 C 
BRANCH  25  26
HETATM   26  C   UNL     1     -41.305 -45.551  12.073  1.00  0.00     0.001 C 
HETATM   27  C   UNL     1     -41.398 -44.035  12.375  1.00  0.00     0.039 C 
HETATM   28  C   UNL     1     -41.895 -43.776  13.798  1.00  0.00     0.168 C 
HETATM   29  O   UNL     1     -43.208 -44.302  13.945  1.00  0.00    -0.391 OA
HETATM   30  C   UNL     1     -43.230 -45.720  13.852  1.00  0.00     0.168 C 
HETATM   31  C   UNL     1     -42.644 -46.211  12.536  1.00  0.00     0.039 C 
BRANCH  26  32
HETATM   32  C   UNL     1     -41.229 -45.818  10.547  1.00  0.00     0.175 C 
BRANCH  32  33
HETATM   33  O   UNL     1     -39.894 -46.155  10.170  1.00  0.00    -0.400 OA
HETATM   34  H   UNL     1     -39.464 -46.573  10.945  1.00  0.00     0.209 HD
ENDBRANCH  32  33
ENDBRANCH  26  32
ENDBRANCH  25  26
ENDBRANCH   3  25
TORSDOF 6
ENDMDL
MODEL 6
REMARK VINA RESULT:      -6.6      4.288      9.056
REMARK  6 active torsions:
REMARK  status: ('A' for Active; 'I' for Inactive)
REMARK    1  A    between atoms: N_2  and  C_3 
REMARK    2  A    between atoms: N_4  and  C_18 
REMARK    3  A    between atoms: C_13  and  C_24 
REMARK    4  A    between atoms: C_18  and  C_19 
REMARK    5  A    between atoms: C_19  and  C_23 
REMARK    6  A    between atoms: C_23  and  O_25 
ROOT
HETATM    1  C   UNL     1     -39.862 -52.026  13.820  1.00  0.00     0.122 A 
HETATM    2  C   UNL     1     -40.361 -51.307  12.690  1.00  0.00     0.136 A 
HETATM    3  N   UNL     1     -39.521 -53.850  15.026  1.00  0.00    -0.326 N 
HETATM    4  C   UNL     1     -40.033 -53.405  13.829  1.00  0.00     0.140 A 
HETATM    5  N   UNL     1     -39.230 -51.637  14.992  1.00  0.00    -0.346 N 
ATOM      6  HN  UNL     1     -38.969 -50.690  15.266  1.00  0.00     0.167 HD
HETATM    7  C   UNL     1     -39.038 -52.748  15.679  1.00  0.00     0.185 A 
HETATM    8  N   UNL     1     -41.000 -52.060  11.744  1.00  0.00    -0.337 N 
ATOM      9  HN  UNL     1     -41.414 -51.606  10.930  1.00  0.00     0.168 HD
HETATM   10  N   UNL     1     -40.624 -54.162  12.889  1.00  0.00    -0.336 N 
ATOM     11  HN  UNL     1     -40.711 -55.177  12.933  1.00  0.00     0.168 HD
HETATM   12  C   UNL     1     -41.086 -53.395  11.881  1.00  0.00     0.183 A 
ENDROOT
BRANCH   2  13
HETATM   13  N   UNL     1     -40.269 -49.924  12.479  1.00  0.00    -0.357 N 
HETATM   14  C   UNL     1     -41.105 -49.369  11.392  1.00  0.00     0.160 C 
HETATM   15  C   UNL     1     -41.252 -47.819  11.530  1.00  0.00     0.241 C 
HETATM   16  N   UNL     1     -39.956 -47.118  11.729  1.00  0.00     0.096 N 
HETATM   17  C   UNL     1     -41.960 -47.256  10.284  1.00  0.00     0.037 C 
HETATM   18  C   UNL     1     -39.243 -47.727  12.878  1.00  0.00     0.298 C 
HETATM   19  C   UNL     1     -40.141 -45.675  11.911  1.00  0.00     0.273 C 
HETATM   20  C   UNL     1     -38.970 -49.252  12.665  1.00  0.00     0.114 C 
HETATM   21  C   UNL     1     -40.817 -45.057  10.685  1.00  0.00     0.030 C 
HETATM   22  C   UNL     1     -42.145 -45.743  10.381  1.00  0.00     0.004 C 
BRANCH  20  23
HETATM   23  C   UNL     1     -38.006 -49.418  11.461  1.00  0.00     0.022 C 
HETATM   24  C   UNL     1     -37.118 -50.651  11.480  1.00  0.00     0.007 C 
ENDBRANCH  20  23
ENDBRANCH   2  13
BRANCH   3  25
HETATM   25  C   UNL     1     -39.480 -55.241  15.494  1.00  0.00     0.143 C 
BRANCH  25  26
HETATM   26  C   UNL     1     -40.438 -55.593  16.688  1.00  0.00     0.001 C 
HETATM   27  C   UNL     1     -39.885 -54.991  18.003  1.00  0.00     0.039 C 
HETATM   28  C   UNL     1     -38.707 -55.805  18.540  1.00  0.00     0.168 C 
HETATM   29  O   UNL     1     -39.141 -57.123  18.847  1.00  0.00    -0.391 OA
HETATM   30  C   UNL     1     -39.523 -57.846  17.684  1.00  0.00     0.168 C 
HETATM   31  C   UNL     1     -40.620 -57.130  16.908  1.00  0.00     0.039 C 
BRANCH  26  32
HETATM   32  C   UNL     1     -41.860 -55.058  16.378  1.00  0.00     0.175 C 
BRANCH  32  33
HETATM   33  O   UNL     1     -42.724 -56.134  16.012  1.00  0.00    -0.400 OA
HETATM   34  H   UNL     1     -42.889 -56.066  15.048  1.00  0.00     0.209 HD
ENDBRANCH  32  33
ENDBRANCH  26  32
ENDBRANCH  25  26
ENDBRANCH   3  25
TORSDOF 6
ENDMDL
MODEL 7
REMARK VINA RESULT:      -6.4      2.123      3.720
REMARK  6 active torsions:
REMARK  status: ('A' for Active; 'I' for Inactive)
REMARK    1  A    between atoms: N_2  and  C_3 
REMARK    2  A    between atoms: N_4  and  C_18 
REMARK    3  A    between atoms: C_13  and  C_24 
REMARK    4  A    between atoms: C_18  and  C_19 
REMARK    5  A    between atoms: C_19  and  C_23 
REMARK    6  A    between atoms: C_23  and  O_25 
ROOT
HETATM    1  C   UNL     1     -42.958 -47.753  14.001  1.00  0.00     0.122 A 
HETATM    2  C   UNL     1     -43.136 -49.043  13.411  1.00  0.00     0.136 A 
HETATM    3  N   UNL     1     -42.746 -45.550  13.942  1.00  0.00    -0.326 N 
HETATM    4  C   UNL     1     -42.987 -46.651  13.153  1.00  0.00     0.140 A 
HETATM    5  N   UNL     1     -42.723 -47.323  15.298  1.00  0.00    -0.346 N 
ATOM      6  HN  UNL     1     -42.653 -47.901  16.135  1.00  0.00     0.167 HD
HETATM    7  C   UNL     1     -42.609 -46.010  15.225  1.00  0.00     0.185 A 
HETATM    8  N   UNL     1     -43.277 -49.058  12.051  1.00  0.00    -0.337 N 
ATOM      9  HN  UNL     1     -43.370 -49.948  11.562  1.00  0.00     0.168 HD
HETATM   10  N   UNL     1     -43.163 -46.649  11.821  1.00  0.00    -0.336 N 
ATOM     11  HN  UNL     1     -43.194 -45.810  11.242  1.00  0.00     0.168 HD
HETATM   12  C   UNL     1     -43.293 -47.907  11.355  1.00  0.00     0.183 A 
ENDROOT
BRANCH   2  13
HETATM   13  N   UNL     1     -43.162 -50.269  14.090  1.00  0.00    -0.357 N 
HETATM   14  C   UNL     1     -42.383 -51.370  13.484  1.00  0.00     0.160 C 
HETATM   15  C   UNL     1     -42.133 -52.518  14.516  1.00  0.00     0.241 C 
HETATM   16  N   UNL     1     -43.365 -52.953  15.225  1.00  0.00     0.096 N 
HETATM   17  C   UNL     1     -41.493 -53.723  13.802  1.00  0.00     0.037 C 
HETATM   18  C   UNL     1     -44.020 -51.770  15.836  1.00  0.00     0.298 C 
HETATM   19  C   UNL     1     -43.081 -53.988  16.224  1.00  0.00     0.273 C 
HETATM   20  C   UNL     1     -44.399 -50.689  14.772  1.00  0.00     0.114 C 
HETATM   21  C   UNL     1     -42.467 -55.224  15.562  1.00  0.00     0.030 C 
HETATM   22  C   UNL     1     -41.212 -54.865  14.775  1.00  0.00     0.004 C 
BRANCH  20  23
HETATM   23  C   UNL     1     -45.464 -51.288  13.816  1.00  0.00     0.022 C 
HETATM   24  C   UNL     1     -46.856 -51.476  14.398  1.00  0.00     0.007 C 
ENDBRANCH  20  23
ENDBRANCH   2  13
BRANCH   3  25
HETATM   25  C   UNL     1     -42.676 -44.154  13.494  1.00  0.00     0.143 C 
BRANCH  25  26
HETATM   26  C   UNL     1     -41.232 -43.561  13.314  1.00  0.00     0.001 C 
HETATM   27  C   UNL     1     -41.292 -42.283  12.442  1.00  0.00     0.039 C 
HETATM   28  C   UNL     1     -41.477 -42.623  10.962  1.00  0.00     0.168 C 
HETATM   29  O   UNL     1     -40.361 -43.376  10.505  1.00  0.00    -0.391 OA
HETATM   30  C   UNL     1     -40.291 -44.656  11.119  1.00  0.00     0.168 C 
HETATM   31  C   UNL     1     -40.232 -44.554  12.636  1.00  0.00     0.039 C 
BRANCH  26  32
HETATM   32  C   UNL     1     -40.623 -43.264  14.709  1.00  0.00     0.175 C 
BRANCH  32  33
HETATM   33  O   UNL     1     -40.073 -41.947  14.738  1.00  0.00    -0.400 OA
HETATM   34  H   UNL     1     -39.113 -42.032  14.916  1.00  0.00     0.209 HD
ENDBRANCH  32  33
ENDBRANCH  26  32
ENDBRANCH  25  26
ENDBRANCH   3  25
TORSDOF 6
ENDMDL
MODEL 8
REMARK VINA RESULT:      -6.4      3.372      4.183
REMARK  6 active torsions:
REMARK  status: ('A' for Active; 'I' for Inactive)
REMARK    1  A    between atoms: N_2  and  C_3 
REMARK    2  A    between atoms: N_4  and  C_18 
REMARK    3  A    between atoms: C_13  and  C_24 
REMARK    4  A    between atoms: C_18  and  C_19 
REMARK    5  A    between atoms: C_19  and  C_23 
REMARK    6  A    between atoms: C_23  and  O_25 
ROOT
HETATM    1  C   UNL     1     -40.896 -47.884  13.510  1.00  0.00     0.122 A 
HETATM    2  C   UNL     1     -39.763 -48.626  13.967  1.00  0.00     0.136 A 
HETATM    3  N   UNL     1     -42.005 -46.022  13.058  1.00  0.00    -0.326 N 
HETATM    4  C   UNL     1     -40.785 -46.498  13.482  1.00  0.00     0.140 A 
HETATM    5  N   UNL     1     -42.165 -48.249  13.086  1.00  0.00    -0.346 N 
ATOM      6  HN  UNL     1     -42.537 -49.194  12.998  1.00  0.00     0.167 HD
HETATM    7  C   UNL     1     -42.792 -47.117  12.821  1.00  0.00     0.185 A 
HETATM    8  N   UNL     1     -38.691 -47.880  14.373  1.00  0.00    -0.337 N 
ATOM      9  HN  UNL     1     -37.863 -48.345  14.747  1.00  0.00     0.168 HD
HETATM   10  N   UNL     1     -39.725 -45.755  13.841  1.00  0.00    -0.336 N 
ATOM     11  HN  UNL     1     -39.686 -44.737  13.786  1.00  0.00     0.168 HD
HETATM   12  C   UNL     1     -38.722 -46.538  14.284  1.00  0.00     0.183 A 
ENDROOT
BRANCH   2  13
HETATM   13  N   UNL     1     -39.664 -50.022  14.050  1.00  0.00    -0.357 N 
HETATM   14  C   UNL     1     -39.094 -50.566  15.302  1.00  0.00     0.160 C 
HETATM   15  C   UNL     1     -39.426 -52.085  15.458  1.00  0.00     0.241 C 
HETATM   16  N   UNL     1     -39.118 -52.885  14.243  1.00  0.00     0.096 N 
HETATM   17  C   UNL     1     -38.661 -52.659  16.664  1.00  0.00     0.037 C 
HETATM   18  C   UNL     1     -39.791 -52.273  13.072  1.00  0.00     0.298 C 
HETATM   19  C   UNL     1     -39.496 -54.292  14.408  1.00  0.00     0.273 C 
HETATM   20  C   UNL     1     -39.339 -50.794  12.837  1.00  0.00     0.114 C 
HETATM   21  C   UNL     1     -38.740 -54.921  15.580  1.00  0.00     0.030 C 
HETATM   22  C   UNL     1     -38.968 -54.140  16.870  1.00  0.00     0.004 C 
BRANCH  20  23
HETATM   23  C   UNL     1     -37.829 -50.788  12.480  1.00  0.00     0.022 C 
HETATM   24  C   UNL     1     -37.435 -49.987  11.251  1.00  0.00     0.007 C 
ENDBRANCH  20  23
ENDBRANCH   2  13
BRANCH   3  25
HETATM   25  C   UNL     1     -42.376 -44.613  12.875  1.00  0.00     0.143 C 
BRANCH  25  26
HETATM   26  C   UNL     1     -42.188 -44.036  11.426  1.00  0.00     0.001 C 
HETATM   27  C   UNL     1     -40.731 -43.548  11.239  1.00  0.00     0.039 C 
HETATM   28  C   UNL     1     -40.493 -42.211  11.942  1.00  0.00     0.168 C 
HETATM   29  O   UNL     1     -41.332 -41.217  11.369  1.00  0.00    -0.391 OA
HETATM   30  C   UNL     1     -42.708 -41.468  11.620  1.00  0.00     0.168 C 
HETATM   31  C   UNL     1     -43.137 -42.836  11.107  1.00  0.00     0.039 C 
BRANCH  26  32
HETATM   32  C   UNL     1     -42.555 -45.128  10.388  1.00  0.00     0.175 C 
BRANCH  32  33
HETATM   33  O   UNL     1     -41.392 -45.535   9.667  1.00  0.00    -0.400 OA
HETATM   34  H   UNL     1     -40.635 -45.016  10.010  1.00  0.00     0.209 HD
ENDBRANCH  32  33
ENDBRANCH  26  32
ENDBRANCH  25  26
ENDBRANCH   3  25
TORSDOF 6
ENDMDL
MODEL 9
REMARK VINA RESULT:      -6.2      2.287      3.962
REMARK  6 active torsions:
REMARK  status: ('A' for Active; 'I' for Inactive)
REMARK    1  A    between atoms: N_2  and  C_3 
REMARK    2  A    between atoms: N_4  and  C_18 
REMARK    3  A    between atoms: C_13  and  C_24 
REMARK    4  A    between atoms: C_18  and  C_19 
REMARK    5  A    between atoms: C_19  and  C_23 
REMARK    6  A    between atoms: C_23  and  O_25 
ROOT
HETATM    1  C   UNL     1     -40.228 -49.557  13.976  1.00  0.00     0.122 A 
HETATM    2  C   UNL     1     -40.228 -50.926  13.564  1.00  0.00     0.136 A 
HETATM    3  N   UNL     1     -39.742 -47.409  13.747  1.00  0.00    -0.326 N 
HETATM    4  C   UNL     1     -39.664 -48.627  13.110  1.00  0.00     0.140 A 
HETATM    5  N   UNL     1     -40.666 -48.907  15.121  1.00  0.00    -0.346 N 
ATOM      6  HN  UNL     1     -41.123 -49.326  15.930  1.00  0.00     0.167 HD
HETATM    7  C   UNL     1     -40.366 -47.633  14.945  1.00  0.00     0.185 A 
HETATM    8  N   UNL     1     -39.626 -51.182  12.364  1.00  0.00    -0.337 N 
ATOM      9  HN  UNL     1     -39.557 -52.143  12.027  1.00  0.00     0.168 HD
HETATM   10  N   UNL     1     -39.106 -48.860  11.911  1.00  0.00    -0.336 N 
ATOM     11  HN  UNL     1     -38.719 -48.139  11.302  1.00  0.00     0.168 HD
HETATM   12  C   UNL     1     -39.125 -50.177  11.624  1.00  0.00     0.183 A 
ENDROOT
BRANCH   2  13
HETATM   13  N   UNL     1     -40.764 -52.007  14.277  1.00  0.00    -0.357 N 
HETATM   14  C   UNL     1     -39.863 -53.161  14.494  1.00  0.00     0.160 C 
HETATM   15  C   UNL     1     -40.399 -54.086  15.634  1.00  0.00     0.241 C 
HETATM   16  N   UNL     1     -41.833 -54.445  15.479  1.00  0.00     0.096 N 
HETATM   17  C   UNL     1     -39.548 -55.368  15.699  1.00  0.00     0.037 C 
HETATM   18  C   UNL     1     -42.634 -53.205  15.330  1.00  0.00     0.298 C 
HETATM   19  C   UNL     1     -42.312 -55.265  16.596  1.00  0.00     0.273 C 
HETATM   20  C   UNL     1     -42.184 -52.357  14.095  1.00  0.00     0.114 C 
HETATM   21  C   UNL     1     -41.517 -56.569  16.690  1.00  0.00     0.030 C 
HETATM   22  C   UNL     1     -40.022 -56.298  16.814  1.00  0.00     0.004 C 
BRANCH  20  23
HETATM   23  C   UNL     1     -42.464 -53.173  12.806  1.00  0.00     0.022 C 
HETATM   24  C   UNL     1     -43.917 -53.533  12.545  1.00  0.00     0.007 C 
ENDBRANCH  20  23
ENDBRANCH   2  13
BRANCH   3  25
HETATM   25  C   UNL     1     -39.270 -46.120  13.227  1.00  0.00     0.143 C 
BRANCH  25  26
HETATM   26  C   UNL     1     -40.386 -45.092  12.820  1.00  0.00     0.001 C 
HETATM   27  C   UNL     1     -41.567 -45.835  12.149  1.00  0.00     0.039 C 
HETATM   28  C   UNL     1     -41.232 -46.236  10.711  1.00  0.00     0.168 C 
HETATM   29  O   UNL     1     -40.991 -45.068   9.936  1.00  0.00    -0.391 OA
HETATM   30  C   UNL     1     -39.821 -44.379  10.355  1.00  0.00     0.168 C 
HETATM   31  C   UNL     1     -39.887 -43.993  11.827  1.00  0.00     0.039 C 
BRANCH  26  32
HETATM   32  C   UNL     1     -40.851 -44.317  14.080  1.00  0.00     0.175 C 
BRANCH  32  33
HETATM   33  O   UNL     1     -39.818 -43.441  14.531  1.00  0.00    -0.400 OA
HETATM   34  H   UNL     1     -40.021 -42.544  14.190  1.00  0.00     0.209 HD
ENDBRANCH  32  33
ENDBRANCH  26  32
ENDBRANCH  25  26
ENDBRANCH   3  25
TORSDOF 6
ENDMDL
