MODEL 1
REMARK VINA RESULT:      -6.5      0.000      0.000
REMARK  3 active torsions:
REMARK  status: ('A' for Active; 'I' for Inactive)
REMARK    1  A    between atoms: C_7  and  C_8 
REMARK    2  A    between atoms: C_8  and  C_9 
REMARK       I    between atoms: C_9  and  N_11 
REMARK    3  A    between atoms: N_11  and  C_12 
ROOT
HETATM    1  C   UNL     1     -45.690 -54.716  14.318  1.00  0.00     0.149 C 
ENDROOT
BRANCH   1   2
HETATM    2  C   UNL     1     -44.416 -54.220  13.697  1.00  0.00     0.041 A 
HETATM    3  C   UNL     1     -43.153 -54.430  14.131  1.00  0.00     0.018 A 
HETATM    4  N   UNL     1     -42.039 -53.844  13.566  1.00  0.00    -0.349 N 
HETATM    5  C   UNL     1     -42.829 -55.331  15.294  1.00  0.00     0.069 C 
HETATM    6  C   UNL     1     -42.211 -53.027  12.584  1.00  0.00     0.080 A 
ATOM      7  HN  UNL     1     -41.105 -54.051  13.917  1.00  0.00     0.167 HD
HETATM    8  C   UNL     1     -41.042 -52.336  11.947  1.00  0.00     0.089 C 
HETATM    9  N   UNL     1     -43.438 -52.730  12.069  1.00  0.00    -0.313 N 
HETATM   10  C   UNL     1     -44.578 -53.309  12.540  1.00  0.00     0.255 A 
HETATM   11  H   UNL     1     -43.540 -52.094  11.294  1.00  0.00     0.170 HD
HETATM   12  O   UNL     1     -45.678 -53.072  12.049  1.00  0.00    -0.268 OA
ENDBRANCH   1   2
BRANCH   1  13
HETATM   13  C   UNL     1     -45.990 -54.037  15.646  1.00  0.00     0.222 C 
HETATM   14  O   UNL     1     -45.954 -54.664  16.703  1.00  0.00    -0.273 OA
HETATM   15  N   UNL     1     -46.281 -52.688  15.585  1.00  0.00    -0.356 N 
HETATM   16  H   UNL     1     -46.266 -52.222  14.682  1.00  0.00     0.162 HD
BRANCH  15  17
HETATM   17  C   UNL     1     -46.458 -51.886  16.801  1.00  0.00     0.084 C 
HETATM   18  C   UNL     1     -47.827 -51.184  16.802  1.00  0.00     0.025 C 
HETATM   19  C   UNL     1     -48.248 -50.733  18.204  1.00  0.00     0.002 C 
HETATM   20  C   UNL     1     -47.750 -49.356  18.636  1.00  0.00     0.000 C 
HETATM   21  C   UNL     1     -46.346 -48.953  18.200  1.00  0.00     0.000 C 
HETATM   22  C   UNL     1     -45.310 -50.071  18.243  1.00  0.00     0.002 C 
HETATM   23  C   UNL     1     -45.280 -50.915  16.965  1.00  0.00     0.025 C 
ENDBRANCH  15  17
ENDBRANCH   1  13
TORSDOF 3
ENDMDL
MODEL 2
REMARK VINA RESULT:      -6.0      3.312      5.600
REMARK  3 active torsions:
REMARK  status: ('A' for Active; 'I' for Inactive)
REMARK    1  A    between atoms: C_7  and  C_8 
REMARK    2  A    between atoms: C_8  and  C_9 
REMARK       I    between atoms: C_9  and  N_11 
REMARK    3  A    between atoms: N_11  and  C_12 
ROOT
HETATM    1  C   UNL     1     -40.889 -52.296  11.939  1.00  0.00     0.149 C 
ENDROOT
BRANCH   1   2
HETATM    2  C   UNL     1     -40.133 -51.157  12.560  1.00  0.00     0.041 A 
HETATM    3  C   UNL     1     -40.363 -49.834  12.401  1.00  0.00     0.018 A 
HETATM    4  N   UNL     1     -39.551 -48.845  12.918  1.00  0.00    -0.349 N 
HETATM    5  C   UNL     1     -41.540 -49.297  11.629  1.00  0.00     0.069 C 
HETATM    6  C   UNL     1     -38.497 -49.200  13.568  1.00  0.00     0.080 A 
ATOM      7  HN  UNL     1     -39.780 -47.860  12.788  1.00  0.00     0.167 HD
HETATM    8  C   UNL     1     -37.560 -48.172  14.129  1.00  0.00     0.089 C 
HETATM    9  N   UNL     1     -38.157 -50.502  13.782  1.00  0.00    -0.313 N 
HETATM   10  C   UNL     1     -38.936 -51.533  13.347  1.00  0.00     0.255 A 
HETATM   11  H   UNL     1     -37.330 -50.749  14.303  1.00  0.00     0.170 HD
HETATM   12  O   UNL     1     -38.651 -52.705  13.575  1.00  0.00    -0.268 OA
ENDBRANCH   1   2
BRANCH   1  13
HETATM   13  C   UNL     1     -42.143 -52.654  12.721  1.00  0.00     0.222 C 
HETATM   14  O   UNL     1     -42.126 -52.734  13.948  1.00  0.00    -0.273 OA
HETATM   15  N   UNL     1     -43.287 -52.860  11.973  1.00  0.00    -0.356 N 
HETATM   16  H   UNL     1     -43.240 -52.751  10.963  1.00  0.00     0.162 HD
BRANCH  15  17
HETATM   17  C   UNL     1     -44.590 -53.080  12.610  1.00  0.00     0.084 C 
HETATM   18  C   UNL     1     -45.016 -51.850  13.429  1.00  0.00     0.025 C 
HETATM   19  C   UNL     1     -46.520 -51.836  13.718  1.00  0.00     0.002 C 
HETATM   20  C   UNL     1     -46.964 -52.591  14.968  1.00  0.00     0.000 C 
HETATM   21  C   UNL     1     -46.234 -53.889  15.296  1.00  0.00     0.000 C 
HETATM   22  C   UNL     1     -45.887 -54.758  14.091  1.00  0.00     0.002 C 
HETATM   23  C   UNL     1     -44.557 -54.375  13.435  1.00  0.00     0.025 C 
ENDBRANCH  15  17
ENDBRANCH   1  13
TORSDOF 3
ENDMDL
MODEL 3
REMARK VINA RESULT:      -5.9      4.310      6.582
REMARK  3 active torsions:
REMARK  status: ('A' for Active; 'I' for Inactive)
REMARK    1  A    between atoms: C_7  and  C_8 
REMARK    2  A    between atoms: C_8  and  C_9 
REMARK       I    between atoms: C_9  and  N_11 
REMARK    3  A    between atoms: N_11  and  C_12 
ROOT
HETATM    1  C   UNL     1     -40.091 -50.322  11.404  1.00  0.00     0.149 C 
ENDROOT
BRANCH   1   2
HETATM    2  C   UNL     1     -39.976 -48.878  11.798  1.00  0.00     0.041 A 
HETATM    3  C   UNL     1     -39.102 -48.331  12.672  1.00  0.00     0.018 A 
HETATM    4  N   UNL     1     -39.134 -47.009  13.066  1.00  0.00    -0.349 N 
HETATM    5  C   UNL     1     -37.993 -49.120  13.318  1.00  0.00     0.069 C 
HETATM    6  C   UNL     1     -40.067 -46.255  12.595  1.00  0.00     0.080 A 
ATOM      7  HN  UNL     1     -38.438 -46.639  13.713  1.00  0.00     0.167 HD
HETATM    8  C   UNL     1     -40.173 -44.817  13.009  1.00  0.00     0.089 C 
HETATM    9  N   UNL     1     -41.011 -46.698  11.717  1.00  0.00    -0.313 N 
HETATM   10  C   UNL     1     -41.012 -47.976  11.242  1.00  0.00     0.255 A 
HETATM   11  H   UNL     1     -41.723 -46.082  11.359  1.00  0.00     0.170 HD
HETATM   12  O   UNL     1     -41.837 -48.363  10.420  1.00  0.00    -0.268 OA
ENDBRANCH   1   2
BRANCH   1  13
HETATM   13  C   UNL     1     -40.957 -51.119  12.368  1.00  0.00     0.222 C 
HETATM   14  O   UNL     1     -40.468 -51.670  13.353  1.00  0.00    -0.273 OA
HETATM   15  N   UNL     1     -42.307 -51.162  12.078  1.00  0.00    -0.356 N 
HETATM   16  H   UNL     1     -42.651 -50.661  11.264  1.00  0.00     0.162 HD
BRANCH  15  17
HETATM   17  C   UNL     1     -43.269 -51.783  12.996  1.00  0.00     0.084 C 
HETATM   18  C   UNL     1     -43.786 -53.117  12.431  1.00  0.00     0.025 C 
HETATM   19  C   UNL     1     -44.405 -54.006  13.513  1.00  0.00     0.002 C 
HETATM   20  C   UNL     1     -45.885 -53.768  13.803  1.00  0.00     0.000 C 
HETATM   21  C   UNL     1     -46.383 -52.327  13.758  1.00  0.00     0.000 C 
HETATM   22  C   UNL     1     -45.424 -51.294  14.341  1.00  0.00     0.002 C 
HETATM   23  C   UNL     1     -44.392 -50.790  13.328  1.00  0.00     0.025 C 
ENDBRANCH  15  17
ENDBRANCH   1  13
TORSDOF 3
ENDMDL
MODEL 4
REMARK VINA RESULT:      -5.9      4.717      6.886
REMARK  3 active torsions:
REMARK  status: ('A' for Active; 'I' for Inactive)
REMARK    1  A    between atoms: C_7  and  C_8 
REMARK    2  A    between atoms: C_8  and  C_9 
REMARK       I    between atoms: C_9  and  N_11 
REMARK    3  A    between atoms: N_11  and  C_12 
ROOT
HETATM    1  C   UNL     1     -41.217 -52.604  11.853  1.00  0.00     0.149 C 
ENDROOT
BRANCH   1   2
HETATM    2  C   UNL     1     -41.530 -53.516  13.004  1.00  0.00     0.041 A 
HETATM    3  C   UNL     1     -42.743 -53.975  13.383  1.00  0.00     0.018 A 
HETATM    4  N   UNL     1     -42.961 -54.720  14.523  1.00  0.00    -0.349 N 
HETATM    5  C   UNL     1     -43.999 -53.712  12.593  1.00  0.00     0.069 C 
HETATM    6  C   UNL     1     -41.955 -54.973  15.288  1.00  0.00     0.080 A 
ATOM      7  HN  UNL     1     -43.893 -55.062  14.755  1.00  0.00     0.167 HD
HETATM    8  C   UNL     1     -42.133 -55.753  16.557  1.00  0.00     0.089 C 
HETATM    9  N   UNL     1     -40.688 -54.553  15.015  1.00  0.00    -0.313 N 
HETATM   10  C   UNL     1     -40.386 -53.857  13.882  1.00  0.00     0.255 A 
HETATM   11  H   UNL     1     -39.919 -54.774  15.628  1.00  0.00     0.170 HD
HETATM   12  O   UNL     1     -39.238 -53.514  13.615  1.00  0.00    -0.268 OA
ENDBRANCH   1   2
BRANCH   1  13
HETATM   13  C   UNL     1     -41.458 -51.140  12.190  1.00  0.00     0.222 C 
HETATM   14  O   UNL     1     -41.848 -50.802  13.306  1.00  0.00    -0.273 OA
HETATM   15  N   UNL     1     -41.194 -50.233  11.182  1.00  0.00    -0.356 N 
HETATM   16  H   UNL     1     -40.847 -50.576  10.291  1.00  0.00     0.162 HD
BRANCH  15  17
HETATM   17  C   UNL     1     -41.258 -48.786  11.417  1.00  0.00     0.084 C 
HETATM   18  C   UNL     1     -41.934 -48.067  10.237  1.00  0.00     0.025 C 
HETATM   19  C   UNL     1     -42.436 -46.672  10.618  1.00  0.00     0.002 C 
HETATM   20  C   UNL     1     -41.420 -45.540  10.483  1.00  0.00     0.000 C 
HETATM   21  C   UNL     1     -39.974 -45.852  10.853  1.00  0.00     0.000 C 
HETATM   22  C   UNL     1     -39.799 -46.753  12.072  1.00  0.00     0.002 C 
HETATM   23  C   UNL     1     -39.855 -48.245  11.732  1.00  0.00     0.025 C 
ENDBRANCH  15  17
ENDBRANCH   1  13
TORSDOF 3
ENDMDL
MODEL 5
REMARK VINA RESULT:      -5.8      4.490      6.807
REMARK  3 active torsions:
REMARK  status: ('A' for Active; 'I' for Inactive)
REMARK    1  A    between atoms: C_7  and  C_8 
REMARK    2  A    between atoms: C_8  and  C_9 
REMARK       I    between atoms: C_9  and  N_11 
REMARK    3  A    between atoms: N_11  and  C_12 
ROOT
HETATM    1  C   UNL     1     -39.141 -50.455  14.039  1.00  0.00     0.149 C 
ENDROOT
BRANCH   1   2
HETATM    2  C   UNL     1     -39.445 -49.339  13.082  1.00  0.00     0.041 A 
HETATM    3  C   UNL     1     -38.808 -49.051  11.925  1.00  0.00     0.018 A 
HETATM    4  N   UNL     1     -39.077 -47.937  11.156  1.00  0.00    -0.349 N 
HETATM    5  C   UNL     1     -37.721 -49.923  11.353  1.00  0.00     0.069 C 
HETATM    6  C   UNL     1     -39.969 -47.107  11.575  1.00  0.00     0.080 A 
ATOM      7  HN  UNL     1     -38.582 -47.776  10.279  1.00  0.00     0.167 HD
HETATM    8  C   UNL     1     -40.285 -45.863  10.799  1.00  0.00     0.089 C 
HETATM    9  N   UNL     1     -40.668 -47.287  12.732  1.00  0.00    -0.313 N 
HETATM   10  C   UNL     1     -40.495 -48.388  13.517  1.00  0.00     0.255 A 
HETATM   11  H   UNL     1     -41.367 -46.624  13.029  1.00  0.00     0.170 HD
HETATM   12  O   UNL     1     -41.154 -48.569  14.536  1.00  0.00    -0.268 OA
ENDBRANCH   1   2
BRANCH   1  13
HETATM   13  C   UNL     1     -39.884 -51.735  13.691  1.00  0.00     0.222 C 
HETATM   14  O   UNL     1     -39.283 -52.731  13.292  1.00  0.00    -0.273 OA
HETATM   15  N   UNL     1     -41.254 -51.710  13.872  1.00  0.00    -0.356 N 
HETATM   16  H   UNL     1     -41.687 -50.864  14.232  1.00  0.00     0.162 HD
BRANCH  15  17
HETATM   17  C   UNL     1     -42.072 -52.916  13.701  1.00  0.00     0.084 C 
HETATM   18  C   UNL     1     -43.461 -52.563  13.141  1.00  0.00     0.025 C 
HETATM   19  C   UNL     1     -44.162 -53.775  12.519  1.00  0.00     0.002 C 
HETATM   20  C   UNL     1     -44.975 -54.638  13.481  1.00  0.00     0.000 C 
HETATM   21  C   UNL     1     -44.411 -54.840  14.884  1.00  0.00     0.000 C 
HETATM   22  C   UNL     1     -42.899 -55.024  14.953  1.00  0.00     0.002 C 
HETATM   23  C   UNL     1     -42.133 -53.699  15.021  1.00  0.00     0.025 C 
ENDBRANCH  15  17
ENDBRANCH   1  13
TORSDOF 3
ENDMDL
MODEL 6
REMARK VINA RESULT:      -5.8      4.465      6.599
REMARK  3 active torsions:
REMARK  status: ('A' for Active; 'I' for Inactive)
REMARK    1  A    between atoms: C_7  and  C_8 
REMARK    2  A    between atoms: C_8  and  C_9 
REMARK       I    between atoms: C_9  and  N_11 
REMARK    3  A    between atoms: N_11  and  C_12 
ROOT
HETATM    1  C   UNL     1     -41.001 -48.508  13.270  1.00  0.00     0.149 C 
ENDROOT
BRANCH   1   2
HETATM    2  C   UNL     1     -41.699 -47.909  12.083  1.00  0.00     0.041 A 
HETATM    3  C   UNL     1     -42.616 -46.917  12.084  1.00  0.00     0.018 A 
HETATM    4  N   UNL     1     -43.297 -46.498  10.959  1.00  0.00    -0.349 N 
HETATM    5  C   UNL     1     -42.999 -46.159  13.329  1.00  0.00     0.069 C 
HETATM    6  C   UNL     1     -43.066 -47.105   9.845  1.00  0.00     0.080 A 
ATOM      7  HN  UNL     1     -43.965 -45.729  11.007  1.00  0.00     0.167 HD
HETATM    8  C   UNL     1     -43.796 -46.716   8.594  1.00  0.00     0.089 C 
HETATM    9  N   UNL     1     -42.172 -48.127   9.726  1.00  0.00    -0.313 N 
HETATM   10  C   UNL     1     -41.425 -48.560  10.781  1.00  0.00     0.255 A 
HETATM   11  H   UNL     1     -42.006 -48.577   8.839  1.00  0.00     0.170 HD
HETATM   12  O   UNL     1     -40.590 -49.452  10.664  1.00  0.00    -0.268 OA
ENDBRANCH   1   2
BRANCH   1  13
HETATM   13  C   UNL     1     -41.842 -49.569  13.963  1.00  0.00     0.222 C 
HETATM   14  O   UNL     1     -42.014 -49.547  15.181  1.00  0.00    -0.273 OA
HETATM   15  N   UNL     1     -42.405 -50.528  13.144  1.00  0.00    -0.356 N 
HETATM   16  H   UNL     1     -42.246 -50.473  12.142  1.00  0.00     0.162 HD
BRANCH  15  17
HETATM   17  C   UNL     1     -43.343 -51.528  13.667  1.00  0.00     0.084 C 
HETATM   18  C   UNL     1     -43.174 -52.873  12.940  1.00  0.00     0.025 C 
HETATM   19  C   UNL     1     -43.772 -54.040  13.731  1.00  0.00     0.002 C 
HETATM   20  C   UNL     1     -45.255 -54.312  13.496  1.00  0.00     0.000 C 
HETATM   21  C   UNL     1     -46.165 -53.103  13.303  1.00  0.00     0.000 C 
HETATM   22  C   UNL     1     -45.847 -51.906  14.194  1.00  0.00     0.002 C 
HETATM   23  C   UNL     1     -44.777 -50.982  13.604  1.00  0.00     0.025 C 
ENDBRANCH  15  17
ENDBRANCH   1  13
TORSDOF 3
ENDMDL
MODEL 7
REMARK VINA RESULT:      -5.7      2.563      6.575
REMARK  3 active torsions:
REMARK  status: ('A' for Active; 'I' for Inactive)
REMARK    1  A    between atoms: C_7  and  C_8 
REMARK    2  A    between atoms: C_8  and  C_9 
REMARK       I    between atoms: C_9  and  N_11 
REMARK    3  A    between atoms: N_11  and  C_12 
ROOT
HETATM    1  C   UNL     1     -42.361 -54.537  14.378  1.00  0.00     0.149 C 
ENDROOT
BRANCH   1   2
HETATM    2  C   UNL     1     -43.531 -53.638  14.654  1.00  0.00     0.041 A 
HETATM    3  C   UNL     1     -43.764 -52.910  15.769  1.00  0.00     0.018 A 
HETATM    4  N   UNL     1     -44.922 -52.194  15.993  1.00  0.00    -0.349 N 
HETATM    5  C   UNL     1     -42.772 -52.809  16.899  1.00  0.00     0.069 C 
HETATM    6  C   UNL     1     -45.850 -52.242  15.100  1.00  0.00     0.080 A 
ATOM      7  HN  UNL     1     -45.040 -51.643  16.842  1.00  0.00     0.167 HD
HETATM    8  C   UNL     1     -47.144 -51.510  15.298  1.00  0.00     0.089 C 
HETATM    9  N   UNL     1     -45.733 -52.951  13.942  1.00  0.00    -0.313 N 
HETATM   10  C   UNL     1     -44.599 -53.640  13.628  1.00  0.00     0.255 A 
HETATM   11  H   UNL     1     -46.473 -52.962  13.258  1.00  0.00     0.170 HD
HETATM   12  O   UNL     1     -44.479 -54.245  12.566  1.00  0.00    -0.268 OA
ENDBRANCH   1   2
BRANCH   1  13
HETATM   13  C   UNL     1     -41.332 -53.886  13.466  1.00  0.00     0.222 C 
HETATM   14  O   UNL     1     -40.841 -54.501  12.521  1.00  0.00    -0.273 OA
HETATM   15  N   UNL     1     -41.009 -52.574  13.755  1.00  0.00    -0.356 N 
HETATM   16  H   UNL     1     -41.472 -52.114  14.534  1.00  0.00     0.162 HD
BRANCH  15  17
HETATM   17  C   UNL     1     -40.133 -51.789  12.878  1.00  0.00     0.084 C 
HETATM   18  C   UNL     1     -38.876 -51.323  13.631  1.00  0.00     0.025 C 
HETATM   19  C   UNL     1     -37.744 -50.920  12.680  1.00  0.00     0.002 C 
HETATM   20  C   UNL     1     -37.766 -49.472  12.198  1.00  0.00     0.000 C 
HETATM   21  C   UNL     1     -39.129 -48.850  11.913  1.00  0.00     0.000 C 
HETATM   22  C   UNL     1     -40.137 -49.781  11.246  1.00  0.00     0.002 C 
HETATM   23  C   UNL     1     -40.924 -50.633  12.247  1.00  0.00     0.025 C 
ENDBRANCH  15  17
ENDBRANCH   1  13
TORSDOF 3
ENDMDL
MODEL 8
REMARK VINA RESULT:      -5.7      4.174      6.193
REMARK  3 active torsions:
REMARK  status: ('A' for Active; 'I' for Inactive)
REMARK    1  A    between atoms: C_7  and  C_8 
REMARK    2  A    between atoms: C_8  and  C_9 
REMARK       I    between atoms: C_9  and  N_11 
REMARK    3  A    between atoms: N_11  and  C_12 
ROOT
HETATM    1  C   UNL     1     -39.155 -52.928  14.085  1.00  0.00     0.149 C 
ENDROOT
BRANCH   1   2
HETATM    2  C   UNL     1     -38.597 -51.559  14.346  1.00  0.00     0.041 A 
HETATM    3  C   UNL     1     -38.769 -50.797  15.448  1.00  0.00     0.018 A 
HETATM    4  N   UNL     1     -38.316 -49.500  15.566  1.00  0.00    -0.349 N 
HETATM    5  C   UNL     1     -39.491 -51.290  16.677  1.00  0.00     0.069 C 
HETATM    6  C   UNL     1     -37.713 -48.971  14.556  1.00  0.00     0.080 A 
ATOM      7  HN  UNL     1     -38.453 -48.973  16.428  1.00  0.00     0.167 HD
HETATM    8  C   UNL     1     -37.223 -47.555  14.611  1.00  0.00     0.089 C 
HETATM    9  N   UNL     1     -37.492 -49.638  13.388  1.00  0.00    -0.313 N 
HETATM   10  C   UNL     1     -37.865 -50.938  13.217  1.00  0.00     0.255 A 
HETATM   11  H   UNL     1     -37.010 -49.200  12.619  1.00  0.00     0.170 HD
HETATM   12  O   UNL     1     -37.629 -51.551  12.180  1.00  0.00    -0.268 OA
ENDBRANCH   1   2
BRANCH   1  13
HETATM   13  C   UNL     1     -40.496 -52.881  13.369  1.00  0.00     0.222 C 
HETATM   14  O   UNL     1     -40.580 -53.099  12.162  1.00  0.00    -0.273 OA
HETATM   15  N   UNL     1     -41.596 -52.601  14.158  1.00  0.00    -0.356 N 
HETATM   16  H   UNL     1     -41.462 -52.458  15.155  1.00  0.00     0.162 HD
BRANCH  15  17
HETATM   17  C   UNL     1     -42.959 -52.655  13.619  1.00  0.00     0.084 C 
HETATM   18  C   UNL     1     -43.813 -51.499  14.166  1.00  0.00     0.025 C 
HETATM   19  C   UNL     1     -45.055 -51.237  13.308  1.00  0.00     0.002 C 
HETATM   20  C   UNL     1     -46.289 -52.065  13.656  1.00  0.00     0.000 C 
HETATM   21  C   UNL     1     -46.063 -53.514  14.076  1.00  0.00     0.000 C 
HETATM   22  C   UNL     1     -44.973 -54.248  13.302  1.00  0.00     0.002 C 
HETATM   23  C   UNL     1     -43.573 -54.038  13.885  1.00  0.00     0.025 C 
ENDBRANCH  15  17
ENDBRANCH   1  13
TORSDOF 3
ENDMDL
MODEL 9
REMARK VINA RESULT:      -5.7      4.058      6.593
REMARK  3 active torsions:
REMARK  status: ('A' for Active; 'I' for Inactive)
REMARK    1  A    between atoms: C_7  and  C_8 
REMARK    2  A    between atoms: C_8  and  C_9 
REMARK       I    between atoms: C_9  and  N_11 
REMARK    3  A    between atoms: N_11  and  C_12 
ROOT
HETATM    1  C   UNL     1     -40.527 -50.237  11.352  1.00  0.00     0.149 C 
ENDROOT
BRANCH   1   2
HETATM    2  C   UNL     1     -39.725 -49.448  12.345  1.00  0.00     0.041 A 
HETATM    3  C   UNL     1     -38.379 -49.353  12.425  1.00  0.00     0.018 A 
HETATM    4  N   UNL     1     -37.713 -48.695  13.439  1.00  0.00    -0.349 N 
HETATM    5  C   UNL     1     -37.455 -49.968  11.406  1.00  0.00     0.069 C 
HETATM    6  C   UNL     1     -38.412 -48.161  14.381  1.00  0.00     0.080 A 
ATOM      7  HN  UNL     1     -36.696 -48.633  13.443  1.00  0.00     0.167 HD
HETATM    8  C   UNL     1     -37.746 -47.459  15.527  1.00  0.00     0.089 C 
HETATM    9  N   UNL     1     -39.774 -48.203  14.413  1.00  0.00    -0.313 N 
HETATM   10  C   UNL     1     -40.502 -48.789  13.420  1.00  0.00     0.255 A 
HETATM   11  H   UNL     1     -40.294 -47.769  15.159  1.00  0.00     0.170 HD
HETATM   12  O   UNL     1     -41.730 -48.791  13.429  1.00  0.00    -0.268 OA
ENDBRANCH   1   2
BRANCH   1  13
HETATM   13  C   UNL     1     -40.972 -51.583  11.904  1.00  0.00     0.222 C 
HETATM   14  O   UNL     1     -40.156 -52.471  12.145  1.00  0.00    -0.273 OA
HETATM   15  N   UNL     1     -42.327 -51.728  12.131  1.00  0.00    -0.356 N 
HETATM   16  H   UNL     1     -42.944 -50.945  11.937  1.00  0.00     0.162 HD
BRANCH  15  17
HETATM   17  C   UNL     1     -42.871 -52.925  12.784  1.00  0.00     0.084 C 
HETATM   18  C   UNL     1     -44.392 -53.020  12.577  1.00  0.00     0.025 C 
HETATM   19  C   UNL     1     -44.923 -54.436  12.819  1.00  0.00     0.002 C 
HETATM   20  C   UNL     1     -45.287 -54.771  14.264  1.00  0.00     0.000 C 
HETATM   21  C   UNL     1     -44.395 -54.196  15.360  1.00  0.00     0.000 C 
HETATM   22  C   UNL     1     -42.904 -54.189  15.041  1.00  0.00     0.002 C 
HETATM   23  C   UNL     1     -42.459 -52.946  14.264  1.00  0.00     0.025 C 
ENDBRANCH  15  17
ENDBRANCH   1  13
TORSDOF 3
ENDMDL
