MODEL 1
REMARK VINA RESULT:      -7.0      0.000      0.000
REMARK  3 active torsions:
REMARK  status: ('A' for Active; 'I' for Inactive)
REMARK    1  A    between atoms: C_2  and  C_5 
REMARK    2  A    between atoms: C_5  and  N_11 
REMARK       I    between atoms: N_11  and  C_12 
REMARK       I    between atoms: C_12  and  N_14 
REMARK    3  A    between atoms: N_14  and  C_15 
ROOT
HETATM    1  N   UNL     1     -44.053 -51.004  12.843  1.00  0.00    -0.325 N 
HETATM    2  C   UNL     1     -42.704 -51.076  12.566  1.00  0.00     0.323 C 
HETATM    3  O   UNL     1     -42.035 -52.046  12.878  1.00  0.00    -0.247 OA
HETATM    4  N   UNL     1     -42.280 -49.962  11.886  1.00  0.00    -0.288 N 
HETATM    5  H   UNL     1     -44.410 -50.072  12.998  1.00  0.00     0.165 HD
HETATM    6  H   UNL     1     -42.934 -49.451  11.324  1.00  0.00     0.172 HD
ENDROOT
BRANCH   1   7
HETATM    7  C   UNL     1     -44.791 -52.148  13.480  1.00  0.00     0.132 C 
HETATM    8  C   UNL     1     -44.569 -53.446  12.658  1.00  0.00     0.040 C 
HETATM    9  C   UNL     1     -44.996 -54.708  13.402  1.00  0.00     0.003 C 
HETATM   10  C   UNL     1     -44.201 -54.854  14.688  1.00  0.00     0.000 C 
HETATM   11  C   UNL     1     -44.416 -53.648  15.594  1.00  0.00     0.003 C 
HETATM   12  C   UNL     1     -44.138 -52.319  14.884  1.00  0.00     0.040 C 
BRANCH   7  13
HETATM   13  C   UNL     1     -46.336 -51.848  13.618  1.00  0.00     0.412 C 
HETATM   14  F   UNL     1     -47.066 -52.942  13.928  1.00  0.00    -0.168 F 
HETATM   15  F   UNL     1     -46.851 -51.320  12.480  1.00  0.00    -0.168 F 
HETATM   16  F   UNL     1     -46.581 -50.932  14.589  1.00  0.00    -0.168 F 
ENDBRANCH   7  13
ENDBRANCH   1   7
BRANCH   4  17
HETATM   17  C   UNL     1     -40.943 -49.788  11.625  1.00  0.00     0.168 A 
HETATM   18  N   UNL     1     -40.207 -50.262  10.658  1.00  0.00    -0.279 N 
HETATM   19  N   UNL     1     -38.892 -49.846  10.756  1.00  0.00    -0.303 N 
ATOM     20  HN  UNL     1     -40.560 -50.868   9.918  1.00  0.00     0.189 HD
HETATM   21  C   UNL     1     -38.708 -49.071  11.801  1.00  0.00     0.160 A 
ATOM     22  HN  UNL     1     -38.156 -50.108  10.099  1.00  0.00     0.186 HD
HETATM   23  S   UNL     1     -40.106 -48.830  12.769  1.00  0.00    -0.046 SA
ENDBRANCH   4  17
TORSDOF 3
ENDMDL
MODEL 2
REMARK VINA RESULT:      -6.7      1.947      2.893
REMARK  3 active torsions:
REMARK  status: ('A' for Active; 'I' for Inactive)
REMARK    1  A    between atoms: C_2  and  C_5 
REMARK    2  A    between atoms: C_5  and  N_11 
REMARK       I    between atoms: N_11  and  C_12 
REMARK       I    between atoms: C_12  and  N_14 
REMARK    3  A    between atoms: N_14  and  C_15 
ROOT
HETATM    1  N   UNL     1     -42.960 -53.241  13.362  1.00  0.00    -0.325 N 
HETATM    2  C   UNL     1     -42.342 -52.087  12.930  1.00  0.00     0.323 C 
HETATM    3  O   UNL     1     -42.937 -51.027  12.861  1.00  0.00    -0.247 OA
HETATM    4  N   UNL     1     -41.017 -52.313  12.652  1.00  0.00    -0.288 N 
HETATM    5  H   UNL     1     -42.600 -54.097  12.964  1.00  0.00     0.165 HD
HETATM    6  H   UNL     1     -40.536 -53.057  13.120  1.00  0.00     0.172 HD
ENDROOT
BRANCH   1   7
HETATM    7  C   UNL     1     -44.385 -53.242  13.843  1.00  0.00     0.132 C 
HETATM    8  C   UNL     1     -44.552 -52.234  15.012  1.00  0.00     0.040 C 
HETATM    9  C   UNL     1     -46.011 -51.924  15.334  1.00  0.00     0.003 C 
HETATM   10  C   UNL     1     -46.699 -51.319  14.123  1.00  0.00     0.000 C 
HETATM   11  C   UNL     1     -46.645 -52.276  12.938  1.00  0.00     0.003 C 
HETATM   12  C   UNL     1     -45.222 -52.749  12.624  1.00  0.00     0.040 C 
BRANCH   7  13
HETATM   13  C   UNL     1     -44.854 -54.682  14.292  1.00  0.00     0.412 C 
HETATM   14  F   UNL     1     -45.702 -54.661  15.344  1.00  0.00    -0.168 F 
HETATM   15  F   UNL     1     -43.805 -55.473  14.627  1.00  0.00    -0.168 F 
HETATM   16  F   UNL     1     -45.497 -55.333  13.290  1.00  0.00    -0.168 F 
ENDBRANCH   7  13
ENDBRANCH   1   7
BRANCH   4  17
HETATM   17  C   UNL     1     -40.257 -51.316  12.091  1.00  0.00     0.168 A 
HETATM   18  N   UNL     1     -40.450 -50.624  11.003  1.00  0.00    -0.279 N 
HETATM   19  N   UNL     1     -39.439 -49.705  10.787  1.00  0.00    -0.303 N 
ATOM     20  HN  UNL     1     -41.251 -50.746  10.384  1.00  0.00     0.189 HD
HETATM   21  C   UNL     1     -38.532 -49.754  11.737  1.00  0.00     0.160 A 
ATOM     22  HN  UNL     1     -39.402 -49.068   9.991  1.00  0.00     0.186 HD
HETATM   23  S   UNL     1     -38.813 -50.952  12.934  1.00  0.00    -0.046 SA
ENDBRANCH   4  17
TORSDOF 3
ENDMDL
MODEL 3
REMARK VINA RESULT:      -6.5      4.070      6.624
REMARK  3 active torsions:
REMARK  status: ('A' for Active; 'I' for Inactive)
REMARK    1  A    between atoms: C_2  and  C_5 
REMARK    2  A    between atoms: C_5  and  N_11 
REMARK       I    between atoms: N_11  and  C_12 
REMARK       I    between atoms: C_12  and  N_14 
REMARK    3  A    between atoms: N_14  and  C_15 
ROOT
HETATM    1  N   UNL     1     -40.722 -48.285  10.938  1.00  0.00    -0.325 N 
HETATM    2  C   UNL     1     -41.230 -49.451  11.470  1.00  0.00     0.323 C 
HETATM    3  O   UNL     1     -42.294 -49.476  12.063  1.00  0.00    -0.247 OA
HETATM    4  N   UNL     1     -40.408 -50.516  11.198  1.00  0.00    -0.288 N 
HETATM    5  H   UNL     1     -39.714 -48.231  10.904  1.00  0.00     0.165 HD
HETATM    6  H   UNL     1     -39.819 -50.488  10.388  1.00  0.00     0.172 HD
ENDROOT
BRANCH   1   7
HETATM    7  C   UNL     1     -41.487 -46.991  10.994  1.00  0.00     0.132 C 
HETATM    8  C   UNL     1     -41.951 -46.712  12.448  1.00  0.00     0.040 C 
HETATM    9  C   UNL     1     -42.434 -45.280  12.660  1.00  0.00     0.003 C 
HETATM   10  C   UNL     1     -41.317 -44.298  12.353  1.00  0.00     0.000 C 
HETATM   11  C   UNL     1     -40.843 -44.454  10.913  1.00  0.00     0.003 C 
HETATM   12  C   UNL     1     -40.461 -45.897  10.570  1.00  0.00     0.040 C 
BRANCH   7  13
HETATM   13  C   UNL     1     -42.727 -46.998  10.017  1.00  0.00     0.412 C 
HETATM   14  F   UNL     1     -43.902 -47.215  10.648  1.00  0.00    -0.168 F 
HETATM   15  F   UNL     1     -42.603 -47.941   9.049  1.00  0.00    -0.168 F 
HETATM   16  F   UNL     1     -42.853 -45.816   9.361  1.00  0.00    -0.168 F 
ENDBRANCH   7  13
ENDBRANCH   1   7
BRANCH   4  17
HETATM   17  C   UNL     1     -40.678 -51.745  11.748  1.00  0.00     0.168 A 
HETATM   18  N   UNL     1     -41.416 -52.722  11.300  1.00  0.00    -0.279 N 
HETATM   19  N   UNL     1     -41.427 -53.802  12.164  1.00  0.00    -0.303 N 
ATOM     20  HN  UNL     1     -41.925 -52.693  10.417  1.00  0.00     0.189 HD
HETATM   21  C   UNL     1     -40.687 -53.577  13.226  1.00  0.00     0.160 A 
ATOM     22  HN  UNL     1     -41.946 -54.664  11.998  1.00  0.00     0.186 HD
HETATM   23  S   UNL     1     -39.962 -52.021  13.278  1.00  0.00    -0.046 SA
ENDBRANCH   4  17
TORSDOF 3
ENDMDL
MODEL 4
REMARK VINA RESULT:      -6.2      2.854      3.334
REMARK  3 active torsions:
REMARK  status: ('A' for Active; 'I' for Inactive)
REMARK    1  A    between atoms: C_2  and  C_5 
REMARK    2  A    between atoms: C_5  and  N_11 
REMARK       I    between atoms: N_11  and  C_12 
REMARK       I    between atoms: C_12  and  N_14 
REMARK    3  A    between atoms: N_14  and  C_15 
ROOT
HETATM    1  N   UNL     1     -42.515 -52.134  12.059  1.00  0.00    -0.325 N 
HETATM    2  C   UNL     1     -41.860 -50.944  12.296  1.00  0.00     0.323 C 
HETATM    3  O   UNL     1     -41.689 -50.519  13.425  1.00  0.00    -0.247 OA
HETATM    4  N   UNL     1     -41.426 -50.378  11.124  1.00  0.00    -0.288 N 
HETATM    5  H   UNL     1     -43.017 -52.181  11.184  1.00  0.00     0.165 HD
HETATM    6  H   UNL     1     -41.237 -50.967  10.335  1.00  0.00     0.172 HD
ENDROOT
BRANCH   1   7
HETATM    7  C   UNL     1     -42.990 -53.013  13.183  1.00  0.00     0.132 C 
HETATM    8  C   UNL     1     -43.610 -52.144  14.310  1.00  0.00     0.040 C 
HETATM    9  C   UNL     1     -44.411 -52.957  15.323  1.00  0.00     0.003 C 
HETATM   10  C   UNL     1     -45.557 -53.675  14.632  1.00  0.00     0.000 C 
HETATM   11  C   UNL     1     -45.033 -54.610  13.549  1.00  0.00     0.003 C 
HETATM   12  C   UNL     1     -44.106 -53.903  12.556  1.00  0.00     0.040 C 
BRANCH   7  13
HETATM   13  C   UNL     1     -41.826 -53.908  13.762  1.00  0.00     0.412 C 
HETATM   14  F   UNL     1     -42.266 -55.054  14.328  1.00  0.00    -0.168 F 
HETATM   15  F   UNL     1     -41.095 -53.246  14.693  1.00  0.00    -0.168 F 
HETATM   16  F   UNL     1     -40.944 -54.269  12.795  1.00  0.00    -0.168 F 
ENDBRANCH   7  13
ENDBRANCH   1   7
BRANCH   4  17
HETATM   17  C   UNL     1     -40.858 -49.128  11.138  1.00  0.00     0.168 A 
HETATM   18  N   UNL     1     -39.651 -48.757  11.465  1.00  0.00    -0.279 N 
HETATM   19  N   UNL     1     -39.478 -47.391  11.341  1.00  0.00    -0.303 N 
ATOM     20  HN  UNL     1     -38.922 -49.399  11.775  1.00  0.00     0.189 HD
HETATM   21  C   UNL     1     -40.574 -46.801  10.920  1.00  0.00     0.160 A 
ATOM     22  HN  UNL     1     -38.607 -46.902  11.550  1.00  0.00     0.186 HD
HETATM   23  S   UNL     1     -41.910 -47.855  10.691  1.00  0.00    -0.046 SA
ENDBRANCH   4  17
TORSDOF 3
ENDMDL
MODEL 5
REMARK VINA RESULT:      -5.9      4.386      5.608
REMARK  3 active torsions:
REMARK  status: ('A' for Active; 'I' for Inactive)
REMARK    1  A    between atoms: C_2  and  C_5 
REMARK    2  A    between atoms: C_5  and  N_11 
REMARK       I    between atoms: N_11  and  C_12 
REMARK       I    between atoms: C_12  and  N_14 
REMARK    3  A    between atoms: N_14  and  C_15 
ROOT
HETATM    1  N   UNL     1     -42.994 -53.387  15.066  1.00  0.00    -0.325 N 
HETATM    2  C   UNL     1     -42.521 -54.609  15.496  1.00  0.00     0.323 C 
HETATM    3  O   UNL     1     -43.211 -55.613  15.463  1.00  0.00    -0.247 OA
HETATM    4  N   UNL     1     -41.212 -54.517  15.900  1.00  0.00    -0.288 N 
HETATM    5  H   UNL     1     -42.598 -52.585  15.535  1.00  0.00     0.165 HD
HETATM    6  H   UNL     1     -40.627 -53.802  15.511  1.00  0.00     0.172 HD
ENDROOT
BRANCH   1   7
HETATM    7  C   UNL     1     -44.363 -53.238  14.464  1.00  0.00     0.132 C 
HETATM    8  C   UNL     1     -45.434 -53.817  15.427  1.00  0.00     0.040 C 
HETATM    9  C   UNL     1     -46.857 -53.412  15.057  1.00  0.00     0.003 C 
HETATM   10  C   UNL     1     -46.998 -51.899  15.092  1.00  0.00     0.000 C 
HETATM   11  C   UNL     1     -46.027 -51.245  14.118  1.00  0.00     0.003 C 
HETATM   12  C   UNL     1     -44.580 -51.700  14.330  1.00  0.00     0.040 C 
BRANCH   7  13
HETATM   13  C   UNL     1     -44.465 -53.937  13.051  1.00  0.00     0.412 C 
HETATM   14  F   UNL     1     -45.086 -53.177  12.124  1.00  0.00    -0.168 F 
HETATM   15  F   UNL     1     -45.125 -55.120  13.120  1.00  0.00    -0.168 F 
HETATM   16  F   UNL     1     -43.238 -54.232  12.551  1.00  0.00    -0.168 F 
ENDBRANCH   7  13
ENDBRANCH   1   7
BRANCH   4  17
HETATM   17  C   UNL     1     -40.597 -55.600  16.477  1.00  0.00     0.168 A 
HETATM   18  N   UNL     1     -41.108 -56.703  16.949  1.00  0.00    -0.279 N 
HETATM   19  N   UNL     1     -40.136 -57.551  17.450  1.00  0.00    -0.303 N 
ATOM     20  HN  UNL     1     -42.105 -56.915  16.949  1.00  0.00     0.189 HD
HETATM   21  C   UNL     1     -38.934 -57.035  17.324  1.00  0.00     0.160 A 
ATOM     22  HN  UNL     1     -40.330 -58.462  17.866  1.00  0.00     0.186 HD
HETATM   23  S   UNL     1     -38.899 -55.464  16.633  1.00  0.00    -0.046 SA
ENDBRANCH   4  17
TORSDOF 3
ENDMDL
MODEL 6
REMARK VINA RESULT:      -5.8      6.975      9.063
REMARK  3 active torsions:
REMARK  status: ('A' for Active; 'I' for Inactive)
REMARK    1  A    between atoms: C_2  and  C_5 
REMARK    2  A    between atoms: C_5  and  N_11 
REMARK       I    between atoms: N_11  and  C_12 
REMARK       I    between atoms: C_12  and  N_14 
REMARK    3  A    between atoms: N_14  and  C_15 
ROOT
HETATM    1  N   UNL     1     -42.614 -44.806  12.106  1.00  0.00    -0.325 N 
HETATM    2  C   UNL     1     -42.468 -45.450  10.895  1.00  0.00     0.323 C 
HETATM    3  O   UNL     1     -41.577 -45.158  10.116  1.00  0.00    -0.247 OA
HETATM    4  N   UNL     1     -43.409 -46.438  10.745  1.00  0.00    -0.288 N 
HETATM    5  H   UNL     1     -43.562 -44.746  12.449  1.00  0.00     0.165 HD
HETATM    6  H   UNL     1     -43.799 -46.872  11.559  1.00  0.00     0.172 HD
ENDROOT
BRANCH   1   7
HETATM    7  C   UNL     1     -41.638 -43.760  12.567  1.00  0.00     0.132 C 
HETATM    8  C   UNL     1     -41.439 -42.693  11.457  1.00  0.00     0.040 C 
HETATM    9  C   UNL     1     -40.738 -41.432  11.955  1.00  0.00     0.003 C 
HETATM   10  C   UNL     1     -41.552 -40.780  13.059  1.00  0.00     0.000 C 
HETATM   11  C   UNL     1     -41.739 -41.737  14.228  1.00  0.00     0.003 C 
HETATM   12  C   UNL     1     -42.318 -43.089  13.799  1.00  0.00     0.040 C 
BRANCH   7  13
HETATM   13  C   UNL     1     -40.248 -44.389  12.975  1.00  0.00     0.412 C 
HETATM   14  F   UNL     1     -40.329 -45.701  13.287  1.00  0.00    -0.168 F 
HETATM   15  F   UNL     1     -39.696 -43.749  14.036  1.00  0.00    -0.168 F 
HETATM   16  F   UNL     1     -39.340 -44.285  11.972  1.00  0.00    -0.168 F 
ENDBRANCH   7  13
ENDBRANCH   1   7
BRANCH   4  17
HETATM   17  C   UNL     1     -43.507 -47.112   9.553  1.00  0.00     0.168 A 
HETATM   18  N   UNL     1     -42.573 -47.582   8.774  1.00  0.00    -0.279 N 
HETATM   19  N   UNL     1     -43.095 -48.203   7.654  1.00  0.00    -0.303 N 
ATOM     20  HN  UNL     1     -41.575 -47.500   8.967  1.00  0.00     0.189 HD
HETATM   21  C   UNL     1     -44.409 -48.169   7.653  1.00  0.00     0.160 A 
ATOM     22  HN  UNL     1     -42.531 -48.633   6.921  1.00  0.00     0.186 HD
HETATM   23  S   UNL     1     -45.105 -47.339   8.984  1.00  0.00    -0.046 SA
ENDBRANCH   4  17
TORSDOF 3
ENDMDL
MODEL 7
REMARK VINA RESULT:      -5.8      5.415      6.299
REMARK  3 active torsions:
REMARK  status: ('A' for Active; 'I' for Inactive)
REMARK    1  A    between atoms: C_2  and  C_5 
REMARK    2  A    between atoms: C_5  and  N_11 
REMARK       I    between atoms: N_11  and  C_12 
REMARK       I    between atoms: C_12  and  N_14 
REMARK    3  A    between atoms: N_14  and  C_15 
ROOT
HETATM    1  N   UNL     1     -40.699 -50.068  11.655  1.00  0.00    -0.325 N 
HETATM    2  C   UNL     1     -41.115 -48.774  11.423  1.00  0.00     0.323 C 
HETATM    3  O   UNL     1     -40.704 -47.838  12.085  1.00  0.00    -0.247 OA
HETATM    4  N   UNL     1     -41.982 -48.719  10.360  1.00  0.00    -0.288 N 
HETATM    5  H   UNL     1     -41.378 -50.783  11.436  1.00  0.00     0.165 HD
HETATM    6  H   UNL     1     -41.930 -49.421   9.646  1.00  0.00     0.172 HD
ENDROOT
BRANCH   1   7
HETATM    7  C   UNL     1     -39.658 -50.389  12.691  1.00  0.00     0.132 C 
HETATM    8  C   UNL     1     -39.980 -49.647  14.016  1.00  0.00     0.040 C 
HETATM    9  C   UNL     1     -39.181 -50.168  15.207  1.00  0.00     0.003 C 
HETATM   10  C   UNL     1     -39.480 -51.640  15.436  1.00  0.00     0.000 C 
HETATM   11  C   UNL     1     -39.125 -52.460  14.203  1.00  0.00     0.003 C 
HETATM   12  C   UNL     1     -39.782 -51.925  12.927  1.00  0.00     0.040 C 
BRANCH   7  13
HETATM   13  C   UNL     1     -38.204 -50.019  12.199  1.00  0.00     0.412 C 
HETATM   14  F   UNL     1     -37.273 -50.932  12.552  1.00  0.00    -0.168 F 
HETATM   15  F   UNL     1     -37.800 -48.816  12.678  1.00  0.00    -0.168 F 
HETATM   16  F   UNL     1     -38.146 -49.912  10.847  1.00  0.00    -0.168 F 
ENDBRANCH   7  13
ENDBRANCH   1   7
BRANCH   4  17
HETATM   17  C   UNL     1     -42.604 -47.535  10.046  1.00  0.00     0.168 A 
HETATM   18  N   UNL     1     -42.684 -46.424  10.722  1.00  0.00    -0.279 N 
HETATM   19  N   UNL     1     -43.409 -45.458  10.048  1.00  0.00    -0.303 N 
ATOM     20  HN  UNL     1     -42.262 -46.283  11.640  1.00  0.00     0.189 HD
HETATM   21  C   UNL     1     -43.838 -45.899   8.887  1.00  0.00     0.160 A 
ATOM     22  HN  UNL     1     -43.589 -44.520  10.408  1.00  0.00     0.186 HD
HETATM   23  S   UNL     1     -43.435 -47.534   8.550  1.00  0.00    -0.046 SA
ENDBRANCH   4  17
TORSDOF 3
ENDMDL
MODEL 8
REMARK VINA RESULT:      -5.7      1.968      2.308
REMARK  3 active torsions:
REMARK  status: ('A' for Active; 'I' for Inactive)
REMARK    1  A    between atoms: C_2  and  C_5 
REMARK    2  A    between atoms: C_5  and  N_11 
REMARK       I    between atoms: N_11  and  C_12 
REMARK       I    between atoms: C_12  and  N_14 
REMARK    3  A    between atoms: N_14  and  C_15 
ROOT
HETATM    1  N   UNL     1     -44.049 -51.338  13.782  1.00  0.00    -0.325 N 
HETATM    2  C   UNL     1     -43.190 -50.817  12.837  1.00  0.00     0.323 C 
HETATM    3  O   UNL     1     -42.367 -51.510  12.266  1.00  0.00    -0.247 OA
HETATM    4  N   UNL     1     -43.434 -49.482  12.633  1.00  0.00    -0.288 N 
HETATM    5  H   UNL     1     -44.333 -50.694  14.506  1.00  0.00     0.165 HD
HETATM    6  H   UNL     1     -44.350 -49.117  12.810  1.00  0.00     0.172 HD
ENDROOT
BRANCH   1   7
HETATM    7  C   UNL     1     -44.070 -52.806  14.107  1.00  0.00     0.132 C 
HETATM    8  C   UNL     1     -42.619 -53.341  14.240  1.00  0.00     0.040 C 
HETATM    9  C   UNL     1     -42.544 -54.719  14.890  1.00  0.00     0.003 C 
HETATM   10  C   UNL     1     -43.131 -54.672  16.290  1.00  0.00     0.000 C 
HETATM   11  C   UNL     1     -44.585 -54.221  16.250  1.00  0.00     0.003 C 
HETATM   12  C   UNL     1     -44.775 -52.902  15.494  1.00  0.00     0.040 C 
BRANCH   7  13
HETATM   13  C   UNL     1     -44.861 -53.638  13.023  1.00  0.00     0.412 C 
HETATM   14  F   UNL     1     -45.635 -54.608  13.557  1.00  0.00    -0.168 F 
HETATM   15  F   UNL     1     -44.027 -54.225  12.130  1.00  0.00    -0.168 F 
HETATM   16  F   UNL     1     -45.685 -52.847  12.289  1.00  0.00    -0.168 F 
ENDBRANCH   7  13
ENDBRANCH   1   7
BRANCH   4  17
HETATM   17  C   UNL     1     -42.602 -48.752  11.819  1.00  0.00     0.168 A 
HETATM   18  N   UNL     1     -41.847 -49.138  10.828  1.00  0.00    -0.279 N 
HETATM   19  N   UNL     1     -41.157 -48.082  10.261  1.00  0.00    -0.303 N 
ATOM     20  HN  UNL     1     -41.773 -50.104  10.510  1.00  0.00     0.189 HD
HETATM   21  C   UNL     1     -41.437 -46.946  10.860  1.00  0.00     0.160 A 
ATOM     22  HN  UNL     1     -40.513 -48.173   9.475  1.00  0.00     0.186 HD
HETATM   23  S   UNL     1     -42.518 -47.084  12.187  1.00  0.00    -0.046 SA
ENDBRANCH   4  17
TORSDOF 3
ENDMDL
MODEL 9
REMARK VINA RESULT:      -5.4      4.961      7.070
REMARK  3 active torsions:
REMARK  status: ('A' for Active; 'I' for Inactive)
REMARK    1  A    between atoms: C_2  and  C_5 
REMARK    2  A    between atoms: C_5  and  N_11 
REMARK       I    between atoms: N_11  and  C_12 
REMARK       I    between atoms: C_12  and  N_14 
REMARK    3  A    between atoms: N_14  and  C_15 
ROOT
HETATM    1  N   UNL     1     -47.047 -51.569  15.267  1.00  0.00    -0.325 N 
HETATM    2  C   UNL     1     -47.137 -51.744  16.632  1.00  0.00     0.323 C 
HETATM    3  O   UNL     1     -46.451 -52.560  17.222  1.00  0.00    -0.247 OA
HETATM    4  N   UNL     1     -48.040 -50.869  17.182  1.00  0.00    -0.288 N 
HETATM    5  H   UNL     1     -47.899 -51.273  14.815  1.00  0.00     0.165 HD
HETATM    6  H   UNL     1     -48.224 -49.998  16.721  1.00  0.00     0.172 HD
ENDROOT
BRANCH   1   7
HETATM    7  C   UNL     1     -46.044 -52.324  14.439  1.00  0.00     0.132 C 
HETATM    8  C   UNL     1     -44.650 -52.278  15.120  1.00  0.00     0.040 C 
HETATM    9  C   UNL     1     -43.662 -53.284  14.536  1.00  0.00     0.003 C 
HETATM   10  C   UNL     1     -44.193 -54.698  14.701  1.00  0.00     0.000 C 
HETATM   11  C   UNL     1     -45.535 -54.855  13.999  1.00  0.00     0.003 C 
HETATM   12  C   UNL     1     -46.555 -53.797  14.428  1.00  0.00     0.040 C 
BRANCH   7  13
HETATM   13  C   UNL     1     -45.951 -51.759  12.967  1.00  0.00     0.412 C 
HETATM   14  F   UNL     1     -44.994 -50.817  12.818  1.00  0.00    -0.168 F 
HETATM   15  F   UNL     1     -47.126 -51.216  12.560  1.00  0.00    -0.168 F 
HETATM   16  F   UNL     1     -45.671 -52.739  12.072  1.00  0.00    -0.168 F 
ENDBRANCH   7  13
ENDBRANCH   1   7
BRANCH   4  17
HETATM   17  C   UNL     1     -48.364 -50.967  18.513  1.00  0.00     0.168 A 
HETATM   18  N   UNL     1     -48.756 -51.997  19.208  1.00  0.00    -0.279 N 
HETATM   19  N   UNL     1     -48.982 -51.673  20.534  1.00  0.00    -0.303 N 
ATOM     20  HN  UNL     1     -48.882 -52.932  18.820  1.00  0.00     0.189 HD
HETATM   21  C   UNL     1     -48.742 -50.402  20.767  1.00  0.00     0.160 A 
ATOM     22  HN  UNL     1     -49.296 -52.337  21.242  1.00  0.00     0.186 HD
HETATM   23  S   UNL     1     -48.272 -49.497  19.385  1.00  0.00    -0.046 SA
ENDBRANCH   4  17
TORSDOF 3
ENDMDL
