MODEL 1
REMARK VINA RESULT:      -5.6      0.000      0.000
REMARK  8 active torsions:
REMARK  status: ('A' for Active; 'I' for Inactive)
REMARK    1  A    between atoms: C_2  and  C_3 
REMARK    2  A    between atoms: C_3  and  N_4 
REMARK    3  A    between atoms: C_5  and  N_6 
REMARK    4  A    between atoms: C_7  and  N_8 
REMARK    5  A    between atoms: N_8  and  C_9 
REMARK       I    between atoms: N_8  and  C_13 
REMARK    6  A    between atoms: C_9  and  C_10 
REMARK    7  A    between atoms: C_10  and  O_11 
REMARK    8  A    between atoms: C_13  and  C_15 
ROOT
HETATM    1  N   UNL     1     -40.459 -50.169  12.407  1.00  0.00    -0.288 N 
HETATM    2  C   UNL     1     -40.998 -51.459  12.452  1.00  0.00     0.117 C 
HETATM    3  C   UNL     1     -41.295 -52.020  13.653  1.00  0.00     0.144 C 
HETATM    4  C   UNL     1     -41.039 -51.212  14.883  1.00  0.00     0.279 C 
HETATM    5  O   UNL     1     -41.625 -51.412  15.939  1.00  0.00    -0.265 OA
HETATM    6  N   UNL     1     -40.154 -50.191  14.725  1.00  0.00    -0.273 N 
HETATM    7  C   UNL     1     -40.024 -49.510  13.554  1.00  0.00     0.330 C 
HETATM    8  O   UNL     1     -39.574 -48.364  13.570  1.00  0.00    -0.246 OA
HETATM    9  H   UNL     1     -39.961 -49.640  15.548  1.00  0.00     0.173 HD
ENDROOT
BRANCH   3  10
HETATM   10  N   UNL     1     -41.895 -53.278  13.766  1.00  0.00    -0.308 N 
HETATM   11  C   UNL     1     -43.282 -53.436  13.974  1.00  0.00     0.228 C 
HETATM   12  O   UNL     1     -43.744 -54.513  14.372  1.00  0.00    -0.273 OA
BRANCH  10  13
HETATM   13  C   UNL     1     -41.121 -54.397  14.334  1.00  0.00     0.158 C 
BRANCH  13  14
HETATM   14  C   UNL     1     -39.640 -54.552  13.986  1.00  0.00     0.187 C 
BRANCH  14  15
HETATM   15  O   UNL     1     -38.979 -55.401  14.925  1.00  0.00    -0.394 OA
HETATM   16  C   UNL     1     -39.750 -55.540  16.115  1.00  0.00     0.201 C 
ENDBRANCH  14  15
ENDBRANCH  13  14
ENDBRANCH  10  13
BRANCH  11  17
HETATM   17  C   UNL     1     -44.230 -52.321  13.539  1.00  0.00     0.078 C 
HETATM   18  C   UNL     1     -45.046 -51.745  14.711  1.00  0.00     0.014 C 
HETATM   19  C   UNL     1     -46.447 -51.456  14.170  1.00  0.00     0.001 C 
HETATM   20  C   UNL     1     -46.425 -51.858  12.703  1.00  0.00     0.001 C 
HETATM   21  C   UNL     1     -45.306 -52.881  12.609  1.00  0.00     0.014 C 
ENDBRANCH  11  17
ENDBRANCH   3  10
BRANCH   2  22
HETATM   22  N   UNL     1     -41.241 -52.173  11.285  1.00  0.00    -0.286 NA
HETATM   23  H   UNL     1     -42.224 -52.385  11.149  1.00  0.00     0.125 HD
HETATM   24  H   UNL     1     -40.664 -53.011  11.224  1.00  0.00     0.125 HD
ENDBRANCH   2  22
BRANCH   1  25
HETATM   25  C   UNL     1     -40.289 -49.452  11.134  1.00  0.00     0.135 C 
BRANCH  25  26
HETATM   26  C   UNL     1     -41.495 -48.584  10.742  1.00  0.00     0.016 C 
HETATM   27  C   UNL     1     -41.211 -47.086  10.724  1.00  0.00     0.006 C 
ENDBRANCH  25  26
ENDBRANCH   1  25
TORSDOF 8
ENDMDL
MODEL 2
REMARK VINA RESULT:      -5.5      2.010      2.350
REMARK  8 active torsions:
REMARK  status: ('A' for Active; 'I' for Inactive)
REMARK    1  A    between atoms: C_2  and  C_3 
REMARK    2  A    between atoms: C_3  and  N_4 
REMARK    3  A    between atoms: C_5  and  N_6 
REMARK    4  A    between atoms: C_7  and  N_8 
REMARK    5  A    between atoms: N_8  and  C_9 
REMARK       I    between atoms: N_8  and  C_13 
REMARK    6  A    between atoms: C_9  and  C_10 
REMARK    7  A    between atoms: C_10  and  O_11 
REMARK    8  A    between atoms: C_13  and  C_15 
ROOT
HETATM    1  N   UNL     1     -41.663 -48.265  11.952  1.00  0.00    -0.288 N 
HETATM    2  C   UNL     1     -41.706 -49.588  12.400  1.00  0.00     0.117 C 
HETATM    3  C   UNL     1     -41.735 -49.845  13.734  1.00  0.00     0.144 C 
HETATM    4  C   UNL     1     -41.731 -48.680  14.668  1.00  0.00     0.279 C 
HETATM    5  O   UNL     1     -42.162 -48.747  15.812  1.00  0.00    -0.265 OA
HETATM    6  N   UNL     1     -41.273 -47.516  14.132  1.00  0.00    -0.273 N 
HETATM    7  C   UNL     1     -41.442 -47.198  12.820  1.00  0.00     0.330 C 
HETATM    8  O   UNL     1     -41.428 -46.015  12.479  1.00  0.00    -0.246 OA
HETATM    9  H   UNL     1     -41.253 -46.720  14.752  1.00  0.00     0.173 HD
ENDROOT
BRANCH   3  10
HETATM   10  N   UNL     1     -41.844 -51.141  14.248  1.00  0.00    -0.308 N 
HETATM   11  C   UNL     1     -43.059 -51.653  14.750  1.00  0.00     0.228 C 
HETATM   12  O   UNL     1     -43.073 -52.661  15.467  1.00  0.00    -0.273 OA
BRANCH  10  13
HETATM   13  C   UNL     1     -40.673 -51.759  14.898  1.00  0.00     0.158 C 
BRANCH  13  14
HETATM   14  C   UNL     1     -39.576 -52.395  14.044  1.00  0.00     0.187 C 
BRANCH  14  15
HETATM   15  O   UNL     1     -40.111 -52.903  12.821  1.00  0.00    -0.394 OA
HETATM   16  C   UNL     1     -40.728 -54.170  13.022  1.00  0.00     0.201 C 
ENDBRANCH  14  15
ENDBRANCH  13  14
ENDBRANCH  10  13
BRANCH  11  17
HETATM   17  C   UNL     1     -44.376 -51.054  14.261  1.00  0.00     0.078 C 
HETATM   18  C   UNL     1     -45.480 -51.092  15.334  1.00  0.00     0.014 C 
HETATM   19  C   UNL     1     -46.787 -51.411  14.608  1.00  0.00     0.001 C 
HETATM   20  C   UNL     1     -46.430 -51.547  13.135  1.00  0.00     0.001 C 
HETATM   21  C   UNL     1     -44.956 -51.911  13.136  1.00  0.00     0.014 C 
ENDBRANCH  11  17
ENDBRANCH   3  10
BRANCH   2  22
HETATM   22  N   UNL     1     -41.729 -50.648  11.500  1.00  0.00    -0.286 NA
HETATM   23  H   UNL     1     -40.853 -51.158  11.468  1.00  0.00     0.125 HD
HETATM   24  H   UNL     1     -42.026 -50.352  10.572  1.00  0.00     0.125 HD
ENDBRANCH   2  22
BRANCH   1  25
HETATM   25  C   UNL     1     -41.812 -47.931  10.528  1.00  0.00     0.135 C 
BRANCH  25  26
HETATM   26  C   UNL     1     -43.261 -47.645  10.102  1.00  0.00     0.016 C 
HETATM   27  C   UNL     1     -43.471 -47.578   8.594  1.00  0.00     0.006 C 
ENDBRANCH  25  26
ENDBRANCH   1  25
TORSDOF 8
ENDMDL
MODEL 3
REMARK VINA RESULT:      -5.4      2.054      5.289
REMARK  8 active torsions:
REMARK  status: ('A' for Active; 'I' for Inactive)
REMARK    1  A    between atoms: C_2  and  C_3 
REMARK    2  A    between atoms: C_3  and  N_4 
REMARK    3  A    between atoms: C_5  and  N_6 
REMARK    4  A    between atoms: C_7  and  N_8 
REMARK    5  A    between atoms: N_8  and  C_9 
REMARK       I    between atoms: N_8  and  C_13 
REMARK    6  A    between atoms: C_9  and  C_10 
REMARK    7  A    between atoms: C_10  and  O_11 
REMARK    8  A    between atoms: C_13  and  C_15 
ROOT
HETATM    1  N   UNL     1     -44.313 -52.601  13.862  1.00  0.00    -0.288 N 
HETATM    2  C   UNL     1     -43.368 -51.622  14.185  1.00  0.00     0.117 C 
HETATM    3  C   UNL     1     -42.200 -51.563  13.495  1.00  0.00     0.144 C 
HETATM    4  C   UNL     1     -41.986 -52.555  12.399  1.00  0.00     0.279 C 
HETATM    5  O   UNL     1     -41.215 -52.358  11.469  1.00  0.00    -0.265 OA
HETATM    6  N   UNL     1     -42.763 -53.670  12.475  1.00  0.00    -0.273 N 
HETATM    7  C   UNL     1     -44.021 -53.651  12.994  1.00  0.00     0.330 C 
HETATM    8  O   UNL     1     -44.827 -54.517  12.654  1.00  0.00    -0.246 OA
HETATM    9  H   UNL     1     -42.626 -54.356  11.748  1.00  0.00     0.173 HD
ENDROOT
BRANCH   3  10
HETATM   10  N   UNL     1     -41.242 -50.570  13.723  1.00  0.00    -0.308 N 
HETATM   11  C   UNL     1     -40.992 -49.535  12.797  1.00  0.00     0.228 C 
HETATM   12  O   UNL     1     -39.957 -48.861  12.864  1.00  0.00    -0.273 OA
BRANCH  10  13
HETATM   13  C   UNL     1     -40.047 -50.893  14.525  1.00  0.00     0.158 C 
BRANCH  13  14
HETATM   14  C   UNL     1     -39.225 -52.140  14.200  1.00  0.00     0.187 C 
BRANCH  14  15
HETATM   15  O   UNL     1     -38.450 -51.947  13.016  1.00  0.00    -0.394 OA
HETATM   16  C   UNL     1     -37.381 -51.038  13.251  1.00  0.00     0.201 C 
ENDBRANCH  14  15
ENDBRANCH  13  14
ENDBRANCH  10  13
BRANCH  11  17
HETATM   17  C   UNL     1     -42.091 -49.140  11.812  1.00  0.00     0.078 C 
HETATM   18  C   UNL     1     -41.531 -48.564  10.498  1.00  0.00     0.014 C 
HETATM   19  C   UNL     1     -42.467 -47.428  10.083  1.00  0.00     0.001 C 
HETATM   20  C   UNL     1     -43.551 -47.363  11.148  1.00  0.00     0.001 C 
HETATM   21  C   UNL     1     -42.909 -47.979  12.378  1.00  0.00     0.014 C 
ENDBRANCH  11  17
ENDBRANCH   3  10
BRANCH   2  22
HETATM   22  N   UNL     1     -43.610 -50.702  15.199  1.00  0.00    -0.286 NA
HETATM   23  H   UNL     1     -42.931 -50.754  15.950  1.00  0.00     0.125 HD
HETATM   24  H   UNL     1     -44.565 -50.765  15.550  1.00  0.00     0.125 HD
ENDBRANCH   2  22
BRANCH   1  25
HETATM   25  C   UNL     1     -45.658 -52.595  14.454  1.00  0.00     0.135 C 
BRANCH  25  26
HETATM   26  C   UNL     1     -46.596 -51.532  13.859  1.00  0.00     0.016 C 
HETATM   27  C   UNL     1     -46.710 -51.576  12.340  1.00  0.00     0.006 C 
ENDBRANCH  25  26
ENDBRANCH   1  25
TORSDOF 8
ENDMDL
MODEL 4
REMARK VINA RESULT:      -5.1      2.400      6.765
REMARK  8 active torsions:
REMARK  status: ('A' for Active; 'I' for Inactive)
REMARK    1  A    between atoms: C_2  and  C_3 
REMARK    2  A    between atoms: C_3  and  N_4 
REMARK    3  A    between atoms: C_5  and  N_6 
REMARK    4  A    between atoms: C_7  and  N_8 
REMARK    5  A    between atoms: N_8  and  C_9 
REMARK       I    between atoms: N_8  and  C_13 
REMARK    6  A    between atoms: C_9  and  C_10 
REMARK    7  A    between atoms: C_10  and  O_11 
REMARK    8  A    between atoms: C_13  and  C_15 
ROOT
HETATM    1  N   UNL     1     -42.557 -52.015  13.016  1.00  0.00    -0.288 N 
HETATM    2  C   UNL     1     -41.818 -51.180  12.173  1.00  0.00     0.117 C 
HETATM    3  C   UNL     1     -41.984 -49.834  12.247  1.00  0.00     0.144 C 
HETATM    4  C   UNL     1     -42.954 -49.306  13.252  1.00  0.00     0.279 C 
HETATM    5  O   UNL     1     -42.891 -48.168  13.698  1.00  0.00    -0.265 OA
HETATM    6  N   UNL     1     -43.877 -50.206  13.687  1.00  0.00    -0.273 N 
HETATM    7  C   UNL     1     -43.609 -51.536  13.793  1.00  0.00     0.330 C 
HETATM    8  O   UNL     1     -44.267 -52.223  14.573  1.00  0.00    -0.246 OA
HETATM    9  H   UNL     1     -44.548 -49.864  14.358  1.00  0.00     0.173 HD
ENDROOT
BRANCH   3  10
HETATM   10  N   UNL     1     -41.230 -48.940  11.479  1.00  0.00    -0.308 N 
HETATM   11  C   UNL     1     -40.175 -48.179  12.026  1.00  0.00     0.228 C 
HETATM   12  O   UNL     1     -39.731 -47.191  11.429  1.00  0.00    -0.273 OA
BRANCH  10  13
HETATM   13  C   UNL     1     -41.865 -48.261  10.334  1.00  0.00     0.158 C 
BRANCH  13  14
HETATM   14  C   UNL     1     -42.941 -47.204  10.578  1.00  0.00     0.187 C 
BRANCH  14  15
HETATM   15  O   UNL     1     -44.190 -47.604  10.012  1.00  0.00    -0.394 OA
HETATM   16  C   UNL     1     -44.151 -47.529   8.591  1.00  0.00     0.201 C 
ENDBRANCH  14  15
ENDBRANCH  13  14
ENDBRANCH  10  13
BRANCH  11  17
HETATM   17  C   UNL     1     -39.470 -48.684  13.283  1.00  0.00     0.078 C 
HETATM   18  C   UNL     1     -38.726 -47.565  14.036  1.00  0.00     0.014 C 
HETATM   19  C   UNL     1     -37.427 -48.178  14.561  1.00  0.00     0.001 C 
HETATM   20  C   UNL     1     -37.435 -49.633  14.115  1.00  0.00     0.001 C 
HETATM   21  C   UNL     1     -38.348 -49.650  12.902  1.00  0.00     0.014 C 
ENDBRANCH  11  17
ENDBRANCH   3  10
BRANCH   2  22
HETATM   22  N   UNL     1     -40.908 -51.707  11.263  1.00  0.00    -0.286 NA
HETATM   23  H   UNL     1     -39.980 -51.307  11.354  1.00  0.00     0.125 HD
HETATM   24  H   UNL     1     -41.250 -51.648  10.305  1.00  0.00     0.125 HD
ENDBRANCH   2  22
BRANCH   1  25
HETATM   25  C   UNL     1     -42.284 -53.458  13.100  1.00  0.00     0.135 C 
BRANCH  25  26
HETATM   26  C   UNL     1     -41.297 -53.842  14.214  1.00  0.00     0.016 C 
HETATM   27  C   UNL     1     -39.908 -54.225  13.718  1.00  0.00     0.006 C 
ENDBRANCH  25  26
ENDBRANCH   1  25
TORSDOF 8
ENDMDL
MODEL 5
REMARK VINA RESULT:      -5.1      2.159      5.199
REMARK  8 active torsions:
REMARK  status: ('A' for Active; 'I' for Inactive)
REMARK    1  A    between atoms: C_2  and  C_3 
REMARK    2  A    between atoms: C_3  and  N_4 
REMARK    3  A    between atoms: C_5  and  N_6 
REMARK    4  A    between atoms: C_7  and  N_8 
REMARK    5  A    between atoms: N_8  and  C_9 
REMARK       I    between atoms: N_8  and  C_13 
REMARK    6  A    between atoms: C_9  and  C_10 
REMARK    7  A    between atoms: C_10  and  O_11 
REMARK    8  A    between atoms: C_13  and  C_15 
ROOT
HETATM    1  N   UNL     1     -43.972 -53.184  14.086  1.00  0.00    -0.288 N 
HETATM    2  C   UNL     1     -42.677 -53.183  14.612  1.00  0.00     0.117 C 
HETATM    3  C   UNL     1     -41.621 -52.932  13.795  1.00  0.00     0.144 C 
HETATM    4  C   UNL     1     -41.903 -52.652  12.355  1.00  0.00     0.279 C 
HETATM    5  O   UNL     1     -41.134 -52.024  11.640  1.00  0.00    -0.265 OA
HETATM    6  N   UNL     1     -43.114 -53.089  11.913  1.00  0.00    -0.273 N 
HETATM    7  C   UNL     1     -44.213 -53.137  12.714  1.00  0.00     0.330 C 
HETATM    8  O   UNL     1     -45.332 -53.102  12.205  1.00  0.00    -0.246 OA
HETATM    9  H   UNL     1     -43.318 -52.918  10.940  1.00  0.00     0.173 HD
ENDROOT
BRANCH   3  10
HETATM   10  N   UNL     1     -40.307 -52.852  14.268  1.00  0.00    -0.308 N 
HETATM   11  C   UNL     1     -39.642 -51.621  14.445  1.00  0.00     0.228 C 
HETATM   12  O   UNL     1     -38.412 -51.576  14.565  1.00  0.00    -0.273 OA
BRANCH  10  13
HETATM   13  C   UNL     1     -39.367 -53.950  13.972  1.00  0.00     0.158 C 
BRANCH  13  14
HETATM   14  C   UNL     1     -38.975 -54.934  15.074  1.00  0.00     0.187 C 
BRANCH  14  15
HETATM   15  O   UNL     1     -40.129 -55.410  15.769  1.00  0.00    -0.394 OA
HETATM   16  C   UNL     1     -39.759 -56.279  16.834  1.00  0.00     0.201 C 
ENDBRANCH  14  15
ENDBRANCH  13  14
ENDBRANCH  10  13
BRANCH  11  17
HETATM   17  C   UNL     1     -40.469 -50.355  14.660  1.00  0.00     0.078 C 
HETATM   18  C   UNL     1     -40.165 -49.262  13.618  1.00  0.00     0.014 C 
HETATM   19  C   UNL     1     -40.206 -47.926  14.360  1.00  0.00     0.001 C 
HETATM   20  C   UNL     1     -40.536 -48.255  15.807  1.00  0.00     0.001 C 
HETATM   21  C   UNL     1     -40.079 -49.692  15.981  1.00  0.00     0.014 C 
ENDBRANCH  11  17
ENDBRANCH   3  10
BRANCH   2  22
HETATM   22  N   UNL     1     -42.453 -53.429  15.962  1.00  0.00    -0.286 NA
HETATM   23  H   UNL     1     -41.939 -54.287  16.128  1.00  0.00     0.125 HD
HETATM   24  H   UNL     1     -43.316 -53.397  16.502  1.00  0.00     0.125 HD
ENDBRANCH   2  22
BRANCH   1  25
HETATM   25  C   UNL     1     -45.154 -53.271  14.956  1.00  0.00     0.135 C 
BRANCH  25  26
HETATM   26  C   UNL     1     -45.626 -51.915  15.505  1.00  0.00     0.016 C 
HETATM   27  C   UNL     1     -46.933 -51.414  14.903  1.00  0.00     0.006 C 
ENDBRANCH  25  26
ENDBRANCH   1  25
TORSDOF 8
ENDMDL
MODEL 6
REMARK VINA RESULT:      -5.1      1.992      4.589
REMARK  8 active torsions:
REMARK  status: ('A' for Active; 'I' for Inactive)
REMARK    1  A    between atoms: C_2  and  C_3 
REMARK    2  A    between atoms: C_3  and  N_4 
REMARK    3  A    between atoms: C_5  and  N_6 
REMARK    4  A    between atoms: C_7  and  N_8 
REMARK    5  A    between atoms: N_8  and  C_9 
REMARK       I    between atoms: N_8  and  C_13 
REMARK    6  A    between atoms: C_9  and  C_10 
REMARK    7  A    between atoms: C_10  and  O_11 
REMARK    8  A    between atoms: C_13  and  C_15 
ROOT
HETATM    1  N   UNL     1     -41.795 -49.869  12.834  1.00  0.00    -0.288 N 
HETATM    2  C   UNL     1     -42.493 -50.904  13.463  1.00  0.00     0.117 C 
HETATM    3  C   UNL     1     -42.235 -52.193  13.120  1.00  0.00     0.144 C 
HETATM    4  C   UNL     1     -41.193 -52.443  12.080  1.00  0.00     0.279 C 
HETATM    5  O   UNL     1     -40.590 -53.504  11.989  1.00  0.00    -0.265 OA
HETATM    6  N   UNL     1     -40.914 -51.378  11.280  1.00  0.00    -0.273 N 
HETATM    7  C   UNL     1     -40.988 -50.093  11.720  1.00  0.00     0.330 C 
HETATM    8  O   UNL     1     -40.330 -49.222  11.152  1.00  0.00    -0.246 OA
HETATM    9  H   UNL     1     -40.220 -51.531  10.564  1.00  0.00     0.173 HD
ENDROOT
BRANCH   3  10
HETATM   10  N   UNL     1     -42.849 -53.277  13.756  1.00  0.00    -0.308 N 
HETATM   11  C   UNL     1     -42.177 -54.073  14.708  1.00  0.00     0.228 C 
HETATM   12  O   UNL     1     -42.614 -55.186  15.025  1.00  0.00    -0.273 OA
BRANCH  10  13
HETATM   13  C   UNL     1     -43.893 -54.035  13.041  1.00  0.00     0.158 C 
BRANCH  13  14
HETATM   14  C   UNL     1     -45.364 -53.661  13.222  1.00  0.00     0.187 C 
BRANCH  14  15
HETATM   15  O   UNL     1     -45.828 -52.865  12.131  1.00  0.00    -0.394 OA
HETATM   16  C   UNL     1     -46.463 -51.680  12.599  1.00  0.00     0.201 C 
ENDBRANCH  14  15
ENDBRANCH  13  14
ENDBRANCH  10  13
BRANCH  11  17
HETATM   17  C   UNL     1     -40.996 -53.478  15.472  1.00  0.00     0.078 C 
HETATM   18  C   UNL     1     -39.721 -54.334  15.354  1.00  0.00     0.014 C 
HETATM   19  C   UNL     1     -39.032 -54.284  16.718  1.00  0.00     0.001 C 
HETATM   20  C   UNL     1     -39.904 -53.405  17.601  1.00  0.00     0.001 C 
HETATM   21  C   UNL     1     -41.284 -53.490  16.973  1.00  0.00     0.014 C 
ENDBRANCH  11  17
ENDBRANCH   3  10
BRANCH   2  22
HETATM   22  N   UNL     1     -43.442 -50.635  14.442  1.00  0.00    -0.286 NA
HETATM   23  H   UNL     1     -43.031 -50.436  15.348  1.00  0.00     0.125 HD
HETATM   24  H   UNL     1     -44.146 -51.369  14.503  1.00  0.00     0.125 HD
ENDBRANCH   2  22
BRANCH   1  25
HETATM   25  C   UNL     1     -41.907 -48.477  13.293  1.00  0.00     0.135 C 
BRANCH  25  26
HETATM   26  C   UNL     1     -43.012 -47.674  12.587  1.00  0.00     0.016 C 
HETATM   27  C   UNL     1     -42.513 -46.445  11.838  1.00  0.00     0.006 C 
ENDBRANCH  25  26
ENDBRANCH   1  25
TORSDOF 8
ENDMDL
MODEL 7
REMARK VINA RESULT:      -5.0      2.371      5.836
REMARK  8 active torsions:
REMARK  status: ('A' for Active; 'I' for Inactive)
REMARK    1  A    between atoms: C_2  and  C_3 
REMARK    2  A    between atoms: C_3  and  N_4 
REMARK    3  A    between atoms: C_5  and  N_6 
REMARK    4  A    between atoms: C_7  and  N_8 
REMARK    5  A    between atoms: N_8  and  C_9 
REMARK       I    between atoms: N_8  and  C_13 
REMARK    6  A    between atoms: C_9  and  C_10 
REMARK    7  A    between atoms: C_10  and  O_11 
REMARK    8  A    between atoms: C_13  and  C_15 
ROOT
HETATM    1  N   UNL     1     -43.710 -53.115  14.215  1.00  0.00    -0.288 N 
HETATM    2  C   UNL     1     -42.550 -52.681  14.864  1.00  0.00     0.117 C 
HETATM    3  C   UNL     1     -41.347 -52.811  14.246  1.00  0.00     0.144 C 
HETATM    4  C   UNL     1     -41.326 -53.410  12.878  1.00  0.00     0.279 C 
HETATM    5  O   UNL     1     -40.422 -53.205  12.080  1.00  0.00    -0.265 OA
HETATM    6  N   UNL     1     -42.423 -54.149  12.559  1.00  0.00    -0.273 N 
HETATM    7  C   UNL     1     -43.664 -53.865  13.042  1.00  0.00     0.330 C 
HETATM    8  O   UNL     1     -44.655 -54.241  12.417  1.00  0.00    -0.246 OA
HETATM    9  H   UNL     1     -42.423 -54.570  11.642  1.00  0.00     0.173 HD
ENDROOT
BRANCH   3  10
HETATM   10  N   UNL     1     -40.157 -52.339  14.811  1.00  0.00    -0.308 N 
HETATM   11  C   UNL     1     -39.511 -53.004  15.874  1.00  0.00     0.228 C 
HETATM   12  O   UNL     1     -38.652 -52.427  16.553  1.00  0.00    -0.273 OA
BRANCH  10  13
HETATM   13  C   UNL     1     -39.892 -50.888  14.824  1.00  0.00     0.158 C 
BRANCH  13  14
HETATM   14  C   UNL     1     -39.112 -50.247  13.676  1.00  0.00     0.187 C 
BRANCH  14  15
HETATM   15  O   UNL     1     -38.105 -51.133  13.185  1.00  0.00    -0.394 OA
HETATM   16  C   UNL     1     -37.475 -50.596  12.027  1.00  0.00     0.201 C 
ENDBRANCH  14  15
ENDBRANCH  13  14
ENDBRANCH  10  13
BRANCH  11  17
HETATM   17  C   UNL     1     -39.756 -54.498  16.074  1.00  0.00     0.078 C 
HETATM   18  C   UNL     1     -40.514 -54.806  17.379  1.00  0.00     0.014 C 
HETATM   19  C   UNL     1     -39.909 -56.091  17.945  1.00  0.00     0.001 C 
HETATM   20  C   UNL     1     -38.822 -56.513  16.968  1.00  0.00     0.001 C 
HETATM   21  C   UNL     1     -38.426 -55.226  16.266  1.00  0.00     0.014 C 
ENDBRANCH  11  17
ENDBRANCH   3  10
BRANCH   2  22
HETATM   22  N   UNL     1     -42.609 -52.109  16.130  1.00  0.00    -0.286 NA
HETATM   23  H   UNL     1     -42.330 -51.135  16.137  1.00  0.00     0.125 HD
HETATM   24  H   UNL     1     -42.092 -52.654  16.818  1.00  0.00     0.125 HD
ENDBRANCH   2  22
BRANCH   1  25
HETATM   25  C   UNL     1     -45.046 -52.834  14.761  1.00  0.00     0.135 C 
BRANCH  25  26
HETATM   26  C   UNL     1     -45.608 -51.461  14.357  1.00  0.00     0.016 C 
HETATM   27  C   UNL     1     -46.628 -51.509  13.226  1.00  0.00     0.006 C 
ENDBRANCH  25  26
ENDBRANCH   1  25
TORSDOF 8
ENDMDL
MODEL 8
REMARK VINA RESULT:      -4.9      2.163      5.465
REMARK  8 active torsions:
REMARK  status: ('A' for Active; 'I' for Inactive)
REMARK    1  A    between atoms: C_2  and  C_3 
REMARK    2  A    between atoms: C_3  and  N_4 
REMARK    3  A    between atoms: C_5  and  N_6 
REMARK    4  A    between atoms: C_7  and  N_8 
REMARK    5  A    between atoms: N_8  and  C_9 
REMARK       I    between atoms: N_8  and  C_13 
REMARK    6  A    between atoms: C_9  and  C_10 
REMARK    7  A    between atoms: C_10  and  O_11 
REMARK    8  A    between atoms: C_13  and  C_15 
ROOT
HETATM    1  N   UNL     1     -43.926 -52.034  13.458  1.00  0.00    -0.288 N 
HETATM    2  C   UNL     1     -42.850 -51.742  14.301  1.00  0.00     0.117 C 
HETATM    3  C   UNL     1     -41.745 -52.531  14.278  1.00  0.00     0.144 C 
HETATM    4  C   UNL     1     -41.731 -53.683  13.327  1.00  0.00     0.279 C 
HETATM    5  O   UNL     1     -40.694 -54.189  12.916  1.00  0.00    -0.265 OA
HETATM    6  N   UNL     1     -42.956 -54.086  12.895  1.00  0.00    -0.273 N 
HETATM    7  C   UNL     1     -43.997 -53.223  12.735  1.00  0.00     0.330 C 
HETATM    8  O   UNL     1     -44.905 -53.510  11.956  1.00  0.00    -0.246 OA
HETATM    9  H   UNL     1     -42.967 -54.869  12.260  1.00  0.00     0.173 HD
ENDROOT
BRANCH   3  10
HETATM   10  N   UNL     1     -40.609 -52.258  15.047  1.00  0.00    -0.308 N 
HETATM   11  C   UNL     1     -39.455 -51.658  14.502  1.00  0.00     0.228 C 
HETATM   12  O   UNL     1     -38.374 -51.704  15.102  1.00  0.00    -0.273 OA
BRANCH  10  13
HETATM   13  C   UNL     1     -40.290 -53.128  16.195  1.00  0.00     0.158 C 
BRANCH  13  14
HETATM   14  C   UNL     1     -41.400 -53.564  17.151  1.00  0.00     0.187 C 
BRANCH  14  15
HETATM   15  O   UNL     1     -42.070 -52.432  17.706  1.00  0.00    -0.394 OA
HETATM   16  C   UNL     1     -43.426 -52.742  18.012  1.00  0.00     0.201 C 
ENDBRANCH  14  15
ENDBRANCH  13  14
ENDBRANCH  10  13
BRANCH  11  17
HETATM   17  C   UNL     1     -39.586 -50.803  13.244  1.00  0.00     0.078 C 
HETATM   18  C   UNL     1     -38.304 -50.800  12.391  1.00  0.00     0.014 C 
HETATM   19  C   UNL     1     -38.147 -49.382  11.839  1.00  0.00     0.001 C 
HETATM   20  C   UNL     1     -39.331 -48.589  12.369  1.00  0.00     0.001 C 
HETATM   21  C   UNL     1     -39.752 -49.332  13.625  1.00  0.00     0.014 C 
ENDBRANCH  11  17
ENDBRANCH   3  10
BRANCH   2  22
HETATM   22  N   UNL     1     -42.891 -50.649  15.160  1.00  0.00    -0.286 NA
HETATM   23  H   UNL     1     -42.163 -50.674  15.866  1.00  0.00     0.125 HD
HETATM   24  H   UNL     1     -43.813 -50.525  15.575  1.00  0.00     0.125 HD
ENDBRANCH   2  22
BRANCH   1  25
HETATM   25  C   UNL     1     -45.063 -51.112  13.317  1.00  0.00     0.135 C 
BRANCH  25  26
HETATM   26  C   UNL     1     -46.345 -51.592  14.017  1.00  0.00     0.016 C 
HETATM   27  C   UNL     1     -46.400 -51.280  15.508  1.00  0.00     0.006 C 
ENDBRANCH  25  26
ENDBRANCH   1  25
TORSDOF 8
ENDMDL
MODEL 9
REMARK VINA RESULT:      -4.7      2.419      5.498
REMARK  8 active torsions:
REMARK  status: ('A' for Active; 'I' for Inactive)
REMARK    1  A    between atoms: C_2  and  C_3 
REMARK    2  A    between atoms: C_3  and  N_4 
REMARK    3  A    between atoms: C_5  and  N_6 
REMARK    4  A    between atoms: C_7  and  N_8 
REMARK    5  A    between atoms: N_8  and  C_9 
REMARK       I    between atoms: N_8  and  C_13 
REMARK    6  A    between atoms: C_9  and  C_10 
REMARK    7  A    between atoms: C_10  and  O_11 
REMARK    8  A    between atoms: C_13  and  C_15 
ROOT
HETATM    1  N   UNL     1     -39.676 -54.546  16.340  1.00  0.00    -0.288 N 
HETATM    2  C   UNL     1     -40.493 -53.437  16.098  1.00  0.00     0.117 C 
HETATM    3  C   UNL     1     -40.636 -52.972  14.830  1.00  0.00     0.144 C 
HETATM    4  C   UNL     1     -39.911 -53.689  13.738  1.00  0.00     0.279 C 
HETATM    5  O   UNL     1     -40.268 -53.648  12.568  1.00  0.00    -0.265 OA
HETATM    6  N   UNL     1     -38.861 -54.450  14.150  1.00  0.00    -0.273 N 
HETATM    7  C   UNL     1     -38.838 -55.074  15.359  1.00  0.00     0.330 C 
HETATM    8  O   UNL     1     -38.127 -56.066  15.513  1.00  0.00    -0.246 OA
HETATM    9  H   UNL     1     -38.352 -54.934  13.425  1.00  0.00     0.173 HD
ENDROOT
BRANCH   3  10
HETATM   10  N   UNL     1     -41.487 -51.910  14.510  1.00  0.00    -0.308 N 
HETATM   11  C   UNL     1     -42.811 -52.111  14.067  1.00  0.00     0.228 C 
HETATM   12  O   UNL     1     -43.437 -51.203  13.506  1.00  0.00    -0.273 OA
BRANCH  10  13
HETATM   13  C   UNL     1     -40.911 -50.660  13.979  1.00  0.00     0.158 C 
BRANCH  13  14
HETATM   14  C   UNL     1     -39.729 -50.004  14.693  1.00  0.00     0.187 C 
BRANCH  14  15
HETATM   15  O   UNL     1     -38.501 -50.303  14.028  1.00  0.00    -0.394 OA
HETATM   16  C   UNL     1     -37.386 -49.851  14.789  1.00  0.00     0.201 C 
ENDBRANCH  14  15
ENDBRANCH  13  14
ENDBRANCH  10  13
BRANCH  11  17
HETATM   17  C   UNL     1     -43.530 -53.406  14.438  1.00  0.00     0.078 C 
HETATM   18  C   UNL     1     -44.039 -54.177  13.206  1.00  0.00     0.014 C 
HETATM   19  C   UNL     1     -45.395 -54.771  13.590  1.00  0.00     0.001 C 
HETATM   20  C   UNL     1     -45.651 -54.347  15.028  1.00  0.00     0.001 C 
HETATM   21  C   UNL     1     -44.814 -53.092  15.206  1.00  0.00     0.014 C 
ENDBRANCH  11  17
ENDBRANCH   3  10
BRANCH   2  22
HETATM   22  N   UNL     1     -41.168 -52.807  17.137  1.00  0.00    -0.286 NA
HETATM   23  H   UNL     1     -41.388 -51.837  16.935  1.00  0.00     0.125 HD
HETATM   24  H   UNL     1     -40.678 -52.904  18.024  1.00  0.00     0.125 HD
ENDBRANCH   2  22
BRANCH   1  25
HETATM   25  C   UNL     1     -39.631 -55.193  17.659  1.00  0.00     0.135 C 
BRANCH  25  26
HETATM   26  C   UNL     1     -40.502 -56.456  17.764  1.00  0.00     0.016 C 
HETATM   27  C   UNL     1     -41.966 -56.184  18.086  1.00  0.00     0.006 C 
ENDBRANCH  25  26
ENDBRANCH   1  25
TORSDOF 8
ENDMDL
