MODEL 1
REMARK VINA RESULT:      -6.4      0.000      0.000
REMARK  5 active torsions:
REMARK  status: ('A' for Active; 'I' for Inactive)
REMARK    1  A    between atoms: C_2  and  O_3 
REMARK    2  A    between atoms: O_3  and  C_4 
REMARK    3  A    between atoms: C_6  and  N_7 
REMARK       I    between atoms: N_7  and  C_8 
REMARK    4  A    between atoms: C_8  and  C_10 
REMARK    5  A    between atoms: C_10  and  N_11 
ROOT
HETATM    1  N   UNL     1     -42.024 -51.473  11.835  1.00  0.00    -0.354 N 
HETATM    2  C   UNL     1     -41.999 -50.138  12.186  1.00  0.00     0.237 C 
HETATM    3  O   UNL     1     -42.672 -49.646  13.087  1.00  0.00    -0.272 OA
HETATM    4  H   UNL     1     -41.409 -51.695  11.051  1.00  0.00     0.162 HD
ENDROOT
BRANCH   1   5
HETATM    5  C   UNL     1     -42.935 -52.511  12.322  1.00  0.00     0.098 C 
HETATM    6  C   UNL     1     -44.240 -52.158  13.070  1.00  0.00     0.059 C 
HETATM    7  C   UNL     1     -44.064 -53.520  13.811  1.00  0.00     0.133 C 
HETATM    8  C   UNL     1     -42.511 -53.301  13.615  1.00  0.00     0.006 C 
HETATM    9  C   UNL     1     -41.564 -54.470  13.351  1.00  0.00     0.014 C 
HETATM   10  C   UNL     1     -41.857 -52.566  14.792  1.00  0.00     0.014 C 
HETATM   11  C   UNL     1     -40.173 -53.957  13.742  1.00  0.00     0.001 C 
HETATM   12  C   UNL     1     -40.372 -52.635  14.476  1.00  0.00     0.001 C 
BRANCH   7  13
HETATM   13  O   UNL     1     -44.677 -54.632  13.113  1.00  0.00    -0.385 OA
BRANCH  13  14
HETATM   14  C   UNL     1     -45.647 -55.390  13.824  1.00  0.00     0.163 C 
HETATM   15  C   UNL     1     -46.310 -54.480  14.839  1.00  0.00     0.033 C 
ENDBRANCH  13  14
ENDBRANCH   7  13
ENDBRANCH   1   5
BRANCH   2  16
HETATM   16  C   UNL     1     -40.897 -49.354  11.480  1.00  0.00     0.255 C 
BRANCH  16  17
HETATM   17  N   UNL     1     -41.434 -48.141  10.869  1.00  0.00    -0.249 N 
HETATM   18  N   UNL     1     -42.603 -48.260  10.139  1.00  0.00    -0.300 N 
HETATM   19  C   UNL     1     -43.057 -47.187   9.567  1.00  0.00     0.022 A 
ATOM     20  HN  UNL     1     -43.088 -49.154  10.053  1.00  0.00     0.187 HD
HETATM   21  C   UNL     1     -44.318 -47.276   8.748  1.00  0.00     0.069 C 
HETATM   22  C   UNL     1     -42.417 -45.857   9.647  1.00  0.00     0.031 A 
HETATM   23  C   UNL     1     -41.316 -45.761  10.391  1.00  0.00     0.078 A 
HETATM   24  C   UNL     1     -40.760 -46.943  11.069  1.00  0.00     0.262 A 
HETATM   25  O   UNL     1     -39.744 -46.812  11.746  1.00  0.00    -0.267 OA
ENDBRANCH  16  17
ENDBRANCH   2  16
TORSDOF 5
ENDMDL
MODEL 2
REMARK VINA RESULT:      -6.4      3.537      6.652
REMARK  5 active torsions:
REMARK  status: ('A' for Active; 'I' for Inactive)
REMARK    1  A    between atoms: C_2  and  O_3 
REMARK    2  A    between atoms: O_3  and  C_4 
REMARK    3  A    between atoms: C_6  and  N_7 
REMARK       I    between atoms: N_7  and  C_8 
REMARK    4  A    between atoms: C_8  and  C_10 
REMARK    5  A    between atoms: C_10  and  N_11 
ROOT
HETATM    1  N   UNL     1     -42.084 -53.607  13.674  1.00  0.00    -0.354 N 
HETATM    2  C   UNL     1     -42.606 -54.105  14.850  1.00  0.00     0.237 C 
HETATM    3  O   UNL     1     -42.062 -54.006  15.946  1.00  0.00    -0.272 OA
HETATM    4  H   UNL     1     -42.669 -53.799  12.860  1.00  0.00     0.162 HD
ENDROOT
BRANCH   1   5
HETATM    5  C   UNL     1     -40.757 -53.027  13.456  1.00  0.00     0.098 C 
HETATM    6  C   UNL     1     -39.636 -53.148  14.513  1.00  0.00     0.059 C 
HETATM    7  C   UNL     1     -39.105 -51.790  13.957  1.00  0.00     0.133 C 
HETATM    8  C   UNL     1     -40.612 -51.467  13.611  1.00  0.00     0.006 C 
HETATM    9  C   UNL     1     -40.995 -50.677  12.361  1.00  0.00     0.014 C 
HETATM   10  C   UNL     1     -41.341 -50.729  14.741  1.00  0.00     0.014 C 
HETATM   11  C   UNL     1     -42.400 -50.132  12.644  1.00  0.00     0.001 C 
HETATM   12  C   UNL     1     -42.683 -50.367  14.124  1.00  0.00     0.001 C 
BRANCH   7  13
HETATM   13  O   UNL     1     -38.181 -51.949  12.852  1.00  0.00    -0.385 OA
BRANCH  13  14
HETATM   14  C   UNL     1     -37.157 -50.973  12.716  1.00  0.00     0.163 C 
HETATM   15  C   UNL     1     -37.470 -50.119  11.505  1.00  0.00     0.033 C 
ENDBRANCH  13  14
ENDBRANCH   7  13
ENDBRANCH   1   5
BRANCH   2  16
HETATM   16  C   UNL     1     -44.033 -54.623  14.700  1.00  0.00     0.255 C 
BRANCH  16  17
HETATM   17  N   UNL     1     -44.965 -53.521  14.484  1.00  0.00    -0.249 N 
HETATM   18  N   UNL     1     -45.424 -52.845  15.601  1.00  0.00    -0.300 N 
HETATM   19  C   UNL     1     -46.281 -51.890  15.407  1.00  0.00     0.022 A 
ATOM     20  HN  UNL     1     -45.103 -53.089  16.538  1.00  0.00     0.187 HD
HETATM   21  C   UNL     1     -46.818 -51.141  16.598  1.00  0.00     0.069 C 
HETATM   22  C   UNL     1     -46.791 -51.475  14.082  1.00  0.00     0.031 A 
HETATM   23  C   UNL     1     -46.300 -52.112  13.020  1.00  0.00     0.078 A 
HETATM   24  C   UNL     1     -45.321 -53.199  13.179  1.00  0.00     0.262 A 
HETATM   25  O   UNL     1     -44.894 -53.761  12.175  1.00  0.00    -0.267 OA
ENDBRANCH  16  17
ENDBRANCH   2  16
TORSDOF 5
ENDMDL
MODEL 3
REMARK VINA RESULT:      -6.3      2.104      7.104
REMARK  5 active torsions:
REMARK  status: ('A' for Active; 'I' for Inactive)
REMARK    1  A    between atoms: C_2  and  O_3 
REMARK    2  A    between atoms: O_3  and  C_4 
REMARK    3  A    between atoms: C_6  and  N_7 
REMARK       I    between atoms: N_7  and  C_8 
REMARK    4  A    between atoms: C_8  and  C_10 
REMARK    5  A    between atoms: C_10  and  N_11 
ROOT
HETATM    1  N   UNL     1     -41.124 -50.554  12.169  1.00  0.00    -0.354 N 
HETATM    2  C   UNL     1     -41.553 -51.348  13.214  1.00  0.00     0.237 C 
HETATM    3  O   UNL     1     -41.876 -50.923  14.319  1.00  0.00    -0.272 OA
HETATM    4  H   UNL     1     -40.883 -51.085  11.332  1.00  0.00     0.162 HD
ENDROOT
BRANCH   1   5
HETATM    5  C   UNL     1     -40.815 -49.122  12.199  1.00  0.00     0.098 C 
HETATM    6  C   UNL     1     -40.898 -48.250  10.927  1.00  0.00     0.059 C 
HETATM    7  C   UNL     1     -39.778 -47.377  11.575  1.00  0.00     0.133 C 
HETATM    8  C   UNL     1     -39.298 -48.709  12.276  1.00  0.00     0.006 C 
HETATM    9  C   UNL     1     -38.723 -48.707  13.691  1.00  0.00     0.014 C 
HETATM   10  C   UNL     1     -38.245 -49.469  11.460  1.00  0.00     0.014 C 
HETATM   11  C   UNL     1     -37.919 -50.007  13.800  1.00  0.00     0.001 C 
HETATM   12  C   UNL     1     -37.807 -50.586  12.394  1.00  0.00     0.001 C 
BRANCH   7  13
HETATM   13  O   UNL     1     -40.297 -46.322  12.423  1.00  0.00    -0.385 OA
BRANCH  13  14
HETATM   14  C   UNL     1     -39.753 -45.021  12.247  1.00  0.00     0.163 C 
HETATM   15  C   UNL     1     -39.692 -44.728  10.762  1.00  0.00     0.033 C 
ENDBRANCH  13  14
ENDBRANCH   7  13
ENDBRANCH   1   5
BRANCH   2  16
HETATM   16  C   UNL     1     -41.785 -52.799  12.806  1.00  0.00     0.255 C 
BRANCH  16  17
HETATM   17  N   UNL     1     -43.152 -53.212  13.110  1.00  0.00    -0.249 N 
HETATM   18  N   UNL     1     -44.178 -52.513  12.500  1.00  0.00    -0.300 N 
HETATM   19  C   UNL     1     -45.393 -52.859  12.800  1.00  0.00     0.022 A 
ATOM     20  HN  UNL     1     -43.989 -51.758  11.841  1.00  0.00     0.187 HD
HETATM   21  C   UNL     1     -46.539 -52.112  12.171  1.00  0.00     0.069 C 
HETATM   22  C   UNL     1     -45.750 -53.944  13.739  1.00  0.00     0.031 A 
HETATM   23  C   UNL     1     -44.743 -54.629  14.280  1.00  0.00     0.078 A 
HETATM   24  C   UNL     1     -43.346 -54.286  13.970  1.00  0.00     0.262 A 
HETATM   25  O   UNL     1     -42.447 -54.942  14.490  1.00  0.00    -0.267 OA
ENDBRANCH  16  17
ENDBRANCH   2  16
TORSDOF 5
ENDMDL
MODEL 4
REMARK VINA RESULT:      -6.3      2.102      7.285
REMARK  5 active torsions:
REMARK  status: ('A' for Active; 'I' for Inactive)
REMARK    1  A    between atoms: C_2  and  O_3 
REMARK    2  A    between atoms: O_3  and  C_4 
REMARK    3  A    between atoms: C_6  and  N_7 
REMARK       I    between atoms: N_7  and  C_8 
REMARK    4  A    between atoms: C_8  and  C_10 
REMARK    5  A    between atoms: C_10  and  N_11 
ROOT
HETATM    1  N   UNL     1     -41.774 -50.162  11.523  1.00  0.00    -0.354 N 
HETATM    2  C   UNL     1     -42.127 -51.071  12.500  1.00  0.00     0.237 C 
HETATM    3  O   UNL     1     -42.801 -50.798  13.489  1.00  0.00    -0.272 OA
HETATM    4  H   UNL     1     -41.197 -50.567  10.785  1.00  0.00     0.162 HD
ENDROOT
BRANCH   1   5
HETATM    5  C   UNL     1     -41.974 -48.711  11.533  1.00  0.00     0.098 C 
HETATM    6  C   UNL     1     -41.854 -47.868  10.244  1.00  0.00     0.059 C 
HETATM    7  C   UNL     1     -41.398 -46.699  11.172  1.00  0.00     0.133 C 
HETATM    8  C   UNL     1     -40.813 -47.823  12.116  1.00  0.00     0.006 C 
HETATM    9  C   UNL     1     -40.838 -47.684  13.637  1.00  0.00     0.014 C 
HETATM   10  C   UNL     1     -39.349 -48.161  11.809  1.00  0.00     0.014 C 
HETATM   11  C   UNL     1     -39.761 -48.648  14.147  1.00  0.00     0.001 C 
HETATM   12  C   UNL     1     -38.957 -49.104  12.935  1.00  0.00     0.001 C 
BRANCH   7  13
HETATM   13  O   UNL     1     -42.503 -45.908  11.675  1.00  0.00    -0.385 OA
BRANCH  13  14
HETATM   14  C   UNL     1     -42.309 -44.502  11.761  1.00  0.00     0.163 C 
HETATM   15  C   UNL     1     -40.942 -44.176  11.194  1.00  0.00     0.033 C 
ENDBRANCH  13  14
ENDBRANCH   7  13
ENDBRANCH   1   5
BRANCH   2  16
HETATM   16  C   UNL     1     -41.768 -52.509  12.138  1.00  0.00     0.255 C 
BRANCH  16  17
HETATM   17  N   UNL     1     -42.289 -53.440  13.135  1.00  0.00    -0.249 N 
HETATM   18  N   UNL     1     -43.622 -53.798  13.038  1.00  0.00    -0.300 N 
HETATM   19  C   UNL     1     -44.090 -54.597  13.947  1.00  0.00     0.022 A 
ATOM     20  HN  UNL     1     -44.212 -53.447  12.283  1.00  0.00     0.187 HD
HETATM   21  C   UNL     1     -45.540 -54.997  13.887  1.00  0.00     0.069 C 
HETATM   22  C   UNL     1     -43.299 -55.150  15.067  1.00  0.00     0.031 A 
HETATM   23  C   UNL     1     -42.008 -54.825  15.113  1.00  0.00     0.078 A 
HETATM   24  C   UNL     1     -41.421 -53.928  14.105  1.00  0.00     0.262 A 
HETATM   25  O   UNL     1     -40.227 -53.653  14.183  1.00  0.00    -0.267 OA
ENDBRANCH  16  17
ENDBRANCH   2  16
TORSDOF 5
ENDMDL
MODEL 5
REMARK VINA RESULT:      -6.2      2.582      7.809
REMARK  5 active torsions:
REMARK  status: ('A' for Active; 'I' for Inactive)
REMARK    1  A    between atoms: C_2  and  O_3 
REMARK    2  A    between atoms: O_3  and  C_4 
REMARK    3  A    between atoms: C_6  and  N_7 
REMARK       I    between atoms: N_7  and  C_8 
REMARK    4  A    between atoms: C_8  and  C_10 
REMARK    5  A    between atoms: C_10  and  N_11 
ROOT
HETATM    1  N   UNL     1     -40.243 -47.421  10.889  1.00  0.00    -0.354 N 
HETATM    2  C   UNL     1     -41.091 -48.489  11.103  1.00  0.00     0.237 C 
HETATM    3  O   UNL     1     -42.315 -48.407  11.131  1.00  0.00    -0.272 OA
HETATM    4  H   UNL     1     -39.256 -47.679  10.917  1.00  0.00     0.162 HD
ENDROOT
BRANCH   1   5
HETATM    5  C   UNL     1     -40.590 -46.000  10.819  1.00  0.00     0.098 C 
HETATM    6  C   UNL     1     -39.630 -44.962  10.197  1.00  0.00     0.059 C 
HETATM    7  C   UNL     1     -40.267 -43.933  11.182  1.00  0.00     0.133 C 
HETATM    8  C   UNL     1     -40.493 -45.163  12.148  1.00  0.00     0.006 C 
HETATM    9  C   UNL     1     -41.728 -45.264  13.041  1.00  0.00     0.014 C 
HETATM   10  C   UNL     1     -39.327 -45.383  13.120  1.00  0.00     0.014 C 
HETATM   11  C   UNL     1     -41.342 -46.247  14.152  1.00  0.00     0.001 C 
HETATM   12  C   UNL     1     -39.837 -46.471  14.049  1.00  0.00     0.001 C 
BRANCH   7  13
HETATM   13  O   UNL     1     -41.443 -43.280  10.641  1.00  0.00    -0.385 OA
BRANCH  13  14
HETATM   14  C   UNL     1     -41.729 -41.968  11.108  1.00  0.00     0.163 C 
HETATM   15  C   UNL     1     -40.604 -41.534  12.025  1.00  0.00     0.033 C 
ENDBRANCH  13  14
ENDBRANCH   7  13
ENDBRANCH   1   5
BRANCH   2  16
HETATM   16  C   UNL     1     -40.371 -49.835  11.104  1.00  0.00     0.255 C 
BRANCH  16  17
HETATM   17  N   UNL     1     -40.912 -50.712  12.138  1.00  0.00    -0.249 N 
HETATM   18  N   UNL     1     -41.997 -51.501  11.801  1.00  0.00    -0.300 N 
HETATM   19  C   UNL     1     -42.497 -52.252  12.734  1.00  0.00     0.022 A 
ATOM     20  HN  UNL     1     -42.388 -51.492  10.859  1.00  0.00     0.187 HD
HETATM   21  C   UNL     1     -43.690 -53.113  12.414  1.00  0.00     0.069 C 
HETATM   22  C   UNL     1     -41.986 -52.324  14.119  1.00  0.00     0.031 A 
HETATM   23  C   UNL     1     -40.914 -51.587  14.406  1.00  0.00     0.078 A 
HETATM   24  C   UNL     1     -40.300 -50.722  13.386  1.00  0.00     0.262 A 
HETATM   25  O   UNL     1     -39.313 -50.058  13.691  1.00  0.00    -0.267 OA
ENDBRANCH  16  17
ENDBRANCH   2  16
TORSDOF 5
ENDMDL
MODEL 6
REMARK VINA RESULT:      -6.2      2.064      7.522
REMARK  5 active torsions:
REMARK  status: ('A' for Active; 'I' for Inactive)
REMARK    1  A    between atoms: C_2  and  O_3 
REMARK    2  A    between atoms: O_3  and  C_4 
REMARK    3  A    between atoms: C_6  and  N_7 
REMARK       I    between atoms: N_7  and  C_8 
REMARK    4  A    between atoms: C_8  and  C_10 
REMARK    5  A    between atoms: C_10  and  N_11 
ROOT
HETATM    1  N   UNL     1     -41.662 -50.255  11.692  1.00  0.00    -0.354 N 
HETATM    2  C   UNL     1     -42.153 -51.139  12.631  1.00  0.00     0.237 C 
HETATM    3  O   UNL     1     -42.504 -50.821  13.764  1.00  0.00    -0.272 OA
HETATM    4  H   UNL     1     -41.406 -50.704  10.812  1.00  0.00     0.162 HD
ENDROOT
BRANCH   1   5
HETATM    5  C   UNL     1     -41.311 -48.846  11.883  1.00  0.00     0.098 C 
HETATM    6  C   UNL     1     -41.143 -47.884  10.686  1.00  0.00     0.059 C 
HETATM    7  C   UNL     1     -40.120 -47.114  11.579  1.00  0.00     0.133 C 
HETATM    8  C   UNL     1     -39.816 -48.514  12.246  1.00  0.00     0.006 C 
HETATM    9  C   UNL     1     -39.493 -48.638  13.734  1.00  0.00     0.014 C 
HETATM   10  C   UNL     1     -38.666 -49.265  11.564  1.00  0.00     0.014 C 
HETATM   11  C   UNL     1     -38.767 -49.980  13.877  1.00  0.00     0.001 C 
HETATM   12  C   UNL     1     -38.436 -50.464  12.469  1.00  0.00     0.001 C 
BRANCH   7  13
HETATM   13  O   UNL     1     -40.739 -46.097  12.405  1.00  0.00    -0.385 OA
BRANCH  13  14
HETATM   14  C   UNL     1     -40.104 -44.826  12.455  1.00  0.00     0.163 C 
HETATM   15  C   UNL     1     -38.963 -44.905  13.449  1.00  0.00     0.033 C 
ENDBRANCH  13  14
ENDBRANCH   7  13
ENDBRANCH   1   5
BRANCH   2  16
HETATM   16  C   UNL     1     -42.414 -52.532  12.066  1.00  0.00     0.255 C 
BRANCH  16  17
HETATM   17  N   UNL     1     -42.731 -53.475  13.134  1.00  0.00    -0.249 N 
HETATM   18  N   UNL     1     -41.727 -53.776  14.037  1.00  0.00    -0.300 N 
HETATM   19  C   UNL     1     -42.003 -54.642  14.964  1.00  0.00     0.022 A 
ATOM     20  HN  UNL     1     -40.809 -53.336  13.977  1.00  0.00     0.187 HD
HETATM   21  C   UNL     1     -40.932 -55.011  15.956  1.00  0.00     0.069 C 
HETATM   22  C   UNL     1     -43.308 -55.319  15.120  1.00  0.00     0.031 A 
HETATM   23  C   UNL     1     -44.270 -54.979  14.264  1.00  0.00     0.078 A 
HETATM   24  C   UNL     1     -44.018 -53.997  13.197  1.00  0.00     0.262 A 
HETATM   25  O   UNL     1     -44.931 -53.711  12.429  1.00  0.00    -0.267 OA
ENDBRANCH  16  17
ENDBRANCH   2  16
TORSDOF 5
ENDMDL
MODEL 7
REMARK VINA RESULT:      -6.1      2.760      4.446
REMARK  5 active torsions:
REMARK  status: ('A' for Active; 'I' for Inactive)
REMARK    1  A    between atoms: C_2  and  O_3 
REMARK    2  A    between atoms: O_3  and  C_4 
REMARK    3  A    between atoms: C_6  and  N_7 
REMARK       I    between atoms: N_7  and  C_8 
REMARK    4  A    between atoms: C_8  and  C_10 
REMARK    5  A    between atoms: C_10  and  N_11 
ROOT
HETATM    1  N   UNL     1     -43.084 -52.148  14.044  1.00  0.00    -0.354 N 
HETATM    2  C   UNL     1     -42.784 -51.141  13.149  1.00  0.00     0.237 C 
HETATM    3  O   UNL     1     -43.204 -49.991  13.233  1.00  0.00    -0.272 OA
HETATM    4  H   UNL     1     -42.657 -53.043  13.803  1.00  0.00     0.162 HD
ENDROOT
BRANCH   1   5
HETATM    5  C   UNL     1     -44.053 -52.113  15.142  1.00  0.00     0.098 C 
HETATM    6  C   UNL     1     -44.108 -53.228  16.210  1.00  0.00     0.059 C 
HETATM    7  C   UNL     1     -45.630 -52.901  16.327  1.00  0.00     0.133 C 
HETATM    8  C   UNL     1     -45.544 -52.485  14.805  1.00  0.00     0.006 C 
HETATM    9  C   UNL     1     -46.366 -51.325  14.244  1.00  0.00     0.014 C 
HETATM   10  C   UNL     1     -45.858 -53.642  13.849  1.00  0.00     0.014 C 
HETATM   11  C   UNL     1     -46.427 -51.568  12.732  1.00  0.00     0.001 C 
HETATM   12  C   UNL     1     -45.899 -52.977  12.483  1.00  0.00     0.001 C 
BRANCH   7  13
HETATM   13  O   UNL     1     -45.916 -51.859  17.292  1.00  0.00    -0.385 OA
BRANCH  13  14
HETATM   14  C   UNL     1     -47.130 -51.968  18.023  1.00  0.00     0.163 C 
HETATM   15  C   UNL     1     -48.130 -50.995  17.431  1.00  0.00     0.033 C 
ENDBRANCH  13  14
ENDBRANCH   7  13
ENDBRANCH   1   5
BRANCH   2  16
HETATM   16  C   UNL     1     -41.708 -51.537  12.142  1.00  0.00     0.255 C 
BRANCH  16  17
HETATM   17  N   UNL     1     -40.557 -50.644  12.234  1.00  0.00    -0.249 N 
HETATM   18  N   UNL     1     -40.742 -49.324  11.863  1.00  0.00    -0.300 N 
HETATM   19  C   UNL     1     -39.707 -48.542  11.912  1.00  0.00     0.022 A 
ATOM     20  HN  UNL     1     -41.655 -48.980  11.563  1.00  0.00     0.187 HD
HETATM   21  C   UNL     1     -39.863 -47.103  11.500  1.00  0.00     0.069 C 
HETATM   22  C   UNL     1     -38.356 -48.963  12.340  1.00  0.00     0.031 A 
HETATM   23  C   UNL     1     -38.214 -50.228  12.734  1.00  0.00     0.078 A 
HETATM   24  C   UNL     1     -39.355 -51.158  12.706  1.00  0.00     0.262 A 
HETATM   25  O   UNL     1     -39.182 -52.315  13.077  1.00  0.00    -0.267 OA
ENDBRANCH  16  17
ENDBRANCH   2  16
TORSDOF 5
ENDMDL
MODEL 8
REMARK VINA RESULT:      -6.1      2.780      3.756
REMARK  5 active torsions:
REMARK  status: ('A' for Active; 'I' for Inactive)
REMARK    1  A    between atoms: C_2  and  O_3 
REMARK    2  A    between atoms: O_3  and  C_4 
REMARK    3  A    between atoms: C_6  and  N_7 
REMARK       I    between atoms: N_7  and  C_8 
REMARK    4  A    between atoms: C_8  and  C_10 
REMARK    5  A    between atoms: C_10  and  N_11 
ROOT
HETATM    1  N   UNL     1     -41.352 -49.337  12.715  1.00  0.00    -0.354 N 
HETATM    2  C   UNL     1     -42.673 -48.955  12.598  1.00  0.00     0.237 C 
HETATM    3  O   UNL     1     -43.630 -49.685  12.840  1.00  0.00    -0.272 OA
HETATM    4  H   UNL     1     -40.695 -48.601  12.454  1.00  0.00     0.162 HD
ENDROOT
BRANCH   1   5
HETATM    5  C   UNL     1     -40.826 -50.678  12.980  1.00  0.00     0.098 C 
HETATM    6  C   UNL     1     -41.181 -51.447  14.272  1.00  0.00     0.059 C 
HETATM    7  C   UNL     1     -39.787 -52.133  14.126  1.00  0.00     0.133 C 
HETATM    8  C   UNL     1     -39.323 -50.792  13.431  1.00  0.00     0.006 C 
HETATM    9  C   UNL     1     -38.322 -50.794  12.276  1.00  0.00     0.014 C 
HETATM   10  C   UNL     1     -38.730 -49.779  14.418  1.00  0.00     0.014 C 
HETATM   11  C   UNL     1     -37.745 -49.374  12.242  1.00  0.00     0.001 C 
HETATM   12  C   UNL     1     -38.195 -48.676  13.521  1.00  0.00     0.001 C 
BRANCH   7  13
HETATM   13  O   UNL     1     -39.824 -53.332  13.313  1.00  0.00    -0.385 OA
BRANCH  13  14
HETATM   14  C   UNL     1     -39.260 -54.512  13.871  1.00  0.00     0.163 C 
HETATM   15  C   UNL     1     -39.200 -54.345  15.376  1.00  0.00     0.033 C 
ENDBRANCH  13  14
ENDBRANCH   7  13
ENDBRANCH   1   5
BRANCH   2  16
HETATM   16  C   UNL     1     -42.843 -47.463  12.328  1.00  0.00     0.255 C 
BRANCH  16  17
HETATM   17  N   UNL     1     -43.346 -47.234  10.976  1.00  0.00    -0.249 N 
HETATM   18  N   UNL     1     -44.590 -47.752  10.664  1.00  0.00    -0.300 N 
HETATM   19  C   UNL     1     -45.018 -47.577   9.450  1.00  0.00     0.022 A 
ATOM     20  HN  UNL     1     -45.148 -48.250  11.357  1.00  0.00     0.187 HD
HETATM   21  C   UNL     1     -46.360 -48.141   9.064  1.00  0.00     0.069 C 
HETATM   22  C   UNL     1     -44.273 -46.864   8.391  1.00  0.00     0.031 A 
HETATM   23  C   UNL     1     -43.097 -46.338   8.731  1.00  0.00     0.078 A 
HETATM   24  C   UNL     1     -42.565 -46.498  10.093  1.00  0.00     0.262 A 
HETATM   25  O   UNL     1     -41.477 -45.998  10.366  1.00  0.00    -0.267 OA
ENDBRANCH  16  17
ENDBRANCH   2  16
TORSDOF 5
ENDMDL
MODEL 9
REMARK VINA RESULT:      -6.1      3.411      6.779
REMARK  5 active torsions:
REMARK  status: ('A' for Active; 'I' for Inactive)
REMARK    1  A    between atoms: C_2  and  O_3 
REMARK    2  A    between atoms: O_3  and  C_4 
REMARK    3  A    between atoms: C_6  and  N_7 
REMARK       I    between atoms: N_7  and  C_8 
REMARK    4  A    between atoms: C_8  and  C_10 
REMARK    5  A    between atoms: C_10  and  N_11 
ROOT
HETATM    1  N   UNL     1     -40.451 -51.034  13.607  1.00  0.00    -0.354 N 
HETATM    2  C   UNL     1     -40.776 -52.149  12.861  1.00  0.00     0.237 C 
HETATM    3  O   UNL     1     -40.226 -53.241  12.971  1.00  0.00    -0.272 OA
HETATM    4  H   UNL     1     -41.004 -50.212  13.364  1.00  0.00     0.162 HD
ENDROOT
BRANCH   1   5
HETATM    5  C   UNL     1     -39.325 -50.869  14.529  1.00  0.00     0.098 C 
HETATM    6  C   UNL     1     -39.367 -49.843  15.683  1.00  0.00     0.059 C 
HETATM    7  C   UNL     1     -37.817 -49.754  15.526  1.00  0.00     0.133 C 
HETATM    8  C   UNL     1     -38.063 -50.091  14.002  1.00  0.00     0.006 C 
HETATM    9  C   UNL     1     -37.086 -50.952  13.204  1.00  0.00     0.014 C 
HETATM   10  C   UNL     1     -38.232 -48.839  13.132  1.00  0.00     0.014 C 
HETATM   11  C   UNL     1     -37.360 -50.617  11.734  1.00  0.00     0.001 C 
HETATM   12  C   UNL     1     -38.266 -49.390  11.716  1.00  0.00     0.001 C 
BRANCH   7  13
HETATM   13  O   UNL     1     -37.107 -50.734  16.323  1.00  0.00    -0.385 OA
BRANCH  13  14
HETATM   14  C   UNL     1     -35.880 -50.324  16.913  1.00  0.00     0.163 C 
HETATM   15  C   UNL     1     -35.622 -48.883  16.521  1.00  0.00     0.033 C 
ENDBRANCH  13  14
ENDBRANCH   7  13
ENDBRANCH   1   5
BRANCH   2  16
HETATM   16  C   UNL     1     -42.030 -51.958  12.014  1.00  0.00     0.255 C 
BRANCH  16  17
HETATM   17  N   UNL     1     -43.233 -52.188  12.808  1.00  0.00    -0.249 N 
HETATM   18  N   UNL     1     -43.642 -53.498  12.982  1.00  0.00    -0.300 N 
HETATM   19  C   UNL     1     -44.732 -53.695  13.658  1.00  0.00     0.022 A 
ATOM     20  HN  UNL     1     -43.109 -54.276  12.593  1.00  0.00     0.187 HD
HETATM   21  C   UNL     1     -45.221 -55.106  13.855  1.00  0.00     0.069 C 
HETATM   22  C   UNL     1     -45.556 -52.623  14.256  1.00  0.00     0.031 A 
HETATM   23  C   UNL     1     -45.117 -51.373  14.111  1.00  0.00     0.078 A 
HETATM   24  C   UNL     1     -43.883 -51.090  13.360  1.00  0.00     0.262 A 
HETATM   25  O   UNL     1     -43.513 -49.925  13.250  1.00  0.00    -0.267 OA
ENDBRANCH  16  17
ENDBRANCH   2  16
TORSDOF 5
ENDMDL
