MODEL 1
REMARK VINA RESULT:      -5.8      0.000      0.000
REMARK  5 active torsions:
REMARK  status: ('A' for Active; 'I' for Inactive)
REMARK       I    between atoms: C_2  and  N_3 
REMARK    1  A    between atoms: C_2  and  C_12 
REMARK    2  A    between atoms: N_3  and  C_4 
REMARK    3  A    between atoms: C_4  and  C_5 
REMARK    4  A    between atoms: C_5  and  N_6 
REMARK    5  A    between atoms: N_14  and  C_15 
ROOT
HETATM    1  O   UNL     1     -40.600 -53.686  12.429  1.00  0.00    -0.273 OA
HETATM    2  C   UNL     1     -41.518 -53.335  13.165  1.00  0.00     0.223 C 
HETATM    3  N   UNL     1     -41.385 -52.280  14.042  1.00  0.00    -0.359 N 
HETATM    4  H   UNL     1     -42.067 -52.165  14.784  1.00  0.00     0.162 HD
ENDROOT
BRANCH   2   5
HETATM    5  C   UNL     1     -42.852 -54.044  13.209  1.00  0.00     0.104 C 
HETATM    6  C   UNL     1     -43.975 -53.108  12.777  1.00  0.00     0.141 C 
HETATM    7  N   UNL     1     -45.132 -53.574  13.496  1.00  0.00    -0.347 N 
HETATM    8  C   UNL     1     -44.762 -54.322  14.613  1.00  0.00     0.221 C 
HETATM    9  O   UNL     1     -45.494 -54.730  15.502  1.00  0.00    -0.273 OA
HETATM   10  C   UNL     1     -43.263 -54.469  14.614  1.00  0.00     0.118 C 
BRANCH   7  11
HETATM   11  C   UNL     1     -46.359 -52.834  13.481  1.00  0.00     0.087 A 
HETATM   12  C   UNL     1     -46.484 -51.579  12.665  1.00  0.00     0.027 A 
HETATM   13  C   UNL     1     -46.531 -51.504  14.162  1.00  0.00     0.027 A 
ENDBRANCH   7  11
ENDBRANCH   2   5
BRANCH   3  14
HETATM   14  C   UNL     1     -40.130 -51.545  14.143  1.00  0.00     0.143 C 
BRANCH  14  15
HETATM   15  C   UNL     1     -40.306 -50.036  13.959  1.00  0.00     0.148 C 
BRANCH  15  16
HETATM   16  N   UNL     1     -40.548 -49.671  12.580  1.00  0.00    -0.350 N 
HETATM   17  C   UNL     1     -41.348 -48.656  12.138  1.00  0.00     0.108 A 
HETATM   18  C   UNL     1     -41.293 -48.736  10.766  1.00  0.00     0.106 A 
HETATM   19  N   UNL     1     -40.482 -49.769  10.370  1.00  0.00    -0.361 N 
HETATM   20  C   UNL     1     -40.056 -50.321  11.484  1.00  0.00     0.182 A 
ATOM     21  HN  UNL     1     -40.257 -50.050   9.416  1.00  0.00     0.166 HD
ENDBRANCH  15  16
ENDBRANCH  14  15
ENDBRANCH   3  14
TORSDOF 5
ENDMDL
MODEL 2
REMARK VINA RESULT:      -5.8      1.292      1.554
REMARK  5 active torsions:
REMARK  status: ('A' for Active; 'I' for Inactive)
REMARK       I    between atoms: C_2  and  N_3 
REMARK    1  A    between atoms: C_2  and  C_12 
REMARK    2  A    between atoms: N_3  and  C_4 
REMARK    3  A    between atoms: C_4  and  C_5 
REMARK    4  A    between atoms: C_5  and  N_6 
REMARK    5  A    between atoms: N_14  and  C_15 
ROOT
HETATM    1  O   UNL     1     -40.313 -53.337  12.871  1.00  0.00    -0.273 OA
HETATM    2  C   UNL     1     -41.440 -52.969  12.556  1.00  0.00     0.223 C 
HETATM    3  N   UNL     1     -41.668 -51.743  11.966  1.00  0.00    -0.359 N 
HETATM    4  H   UNL     1     -42.614 -51.379  11.931  1.00  0.00     0.162 HD
ENDROOT
BRANCH   2   5
HETATM    5  C   UNL     1     -42.677 -53.795  12.820  1.00  0.00     0.104 C 
HETATM    6  C   UNL     1     -43.938 -52.986  12.532  1.00  0.00     0.141 C 
HETATM    7  N   UNL     1     -44.926 -53.524  13.429  1.00  0.00    -0.347 N 
HETATM    8  C   UNL     1     -44.327 -54.185  14.501  1.00  0.00     0.221 C 
HETATM    9  O   UNL     1     -44.878 -54.618  15.501  1.00  0.00    -0.273 OA
HETATM   10  C   UNL     1     -42.836 -54.193  14.283  1.00  0.00     0.118 C 
BRANCH   7  11
HETATM   11  C   UNL     1     -46.209 -52.902  13.575  1.00  0.00     0.087 A 
HETATM   12  C   UNL     1     -46.552 -51.668  12.790  1.00  0.00     0.027 A 
HETATM   13  C   UNL     1     -46.417 -51.590  14.281  1.00  0.00     0.027 A 
ENDBRANCH   7  11
ENDBRANCH   2   5
BRANCH   3  14
HETATM   14  C   UNL     1     -40.567 -50.822  11.709  1.00  0.00     0.143 C 
BRANCH  14  15
HETATM   15  C   UNL     1     -40.653 -49.543  12.545  1.00  0.00     0.148 C 
BRANCH  15  16
HETATM   16  N   UNL     1     -40.644 -48.347  11.731  1.00  0.00    -0.350 N 
HETATM   17  C   UNL     1     -39.861 -47.243  11.918  1.00  0.00     0.108 A 
HETATM   18  C   UNL     1     -40.245 -46.368  10.929  1.00  0.00     0.106 A 
HETATM   19  N   UNL     1     -41.236 -46.913  10.152  1.00  0.00    -0.361 N 
HETATM   20  C   UNL     1     -41.463 -48.102  10.666  1.00  0.00     0.182 A 
ATOM     21  HN  UNL     1     -41.697 -46.488   9.349  1.00  0.00     0.166 HD
ENDBRANCH  15  16
ENDBRANCH  14  15
ENDBRANCH   3  14
TORSDOF 5
ENDMDL
MODEL 3
REMARK VINA RESULT:      -5.7      1.573      1.938
REMARK  5 active torsions:
REMARK  status: ('A' for Active; 'I' for Inactive)
REMARK       I    between atoms: C_2  and  N_3 
REMARK    1  A    between atoms: C_2  and  C_12 
REMARK    2  A    between atoms: N_3  and  C_4 
REMARK    3  A    between atoms: C_4  and  C_5 
REMARK    4  A    between atoms: C_5  and  N_6 
REMARK    5  A    between atoms: N_14  and  C_15 
ROOT
HETATM    1  O   UNL     1     -41.547 -53.478  15.598  1.00  0.00    -0.273 OA
HETATM    2  C   UNL     1     -41.570 -53.659  14.384  1.00  0.00     0.223 C 
HETATM    3  N   UNL     1     -40.482 -53.378  13.585  1.00  0.00    -0.359 N 
HETATM    4  H   UNL     1     -40.608 -53.320  12.581  1.00  0.00     0.162 HD
ENDROOT
BRANCH   2   5
HETATM    5  C   UNL     1     -42.794 -54.160  13.652  1.00  0.00     0.104 C 
HETATM    6  C   UNL     1     -43.713 -53.002  13.281  1.00  0.00     0.141 C 
HETATM    7  N   UNL     1     -45.034 -53.574  13.278  1.00  0.00    -0.347 N 
HETATM    8  C   UNL     1     -45.077 -54.745  14.032  1.00  0.00     0.221 C 
HETATM    9  O   UNL     1     -46.069 -55.383  14.347  1.00  0.00    -0.273 OA
HETATM   10  C   UNL     1     -43.681 -55.060  14.505  1.00  0.00     0.118 C 
BRANCH   7  11
HETATM   11  C   UNL     1     -46.196 -52.748  13.137  1.00  0.00     0.087 A 
HETATM   12  C   UNL     1     -46.060 -51.283  12.829  1.00  0.00     0.027 A 
HETATM   13  C   UNL     1     -46.609 -51.720  14.155  1.00  0.00     0.027 A 
ENDBRANCH   7  11
ENDBRANCH   2   5
BRANCH   3  14
HETATM   14  C   UNL     1     -39.257 -52.833  14.157  1.00  0.00     0.143 C 
BRANCH  14  15
HETATM   15  C   UNL     1     -39.211 -51.303  14.120  1.00  0.00     0.148 C 
BRANCH  15  16
HETATM   16  N   UNL     1     -38.692 -50.794  12.869  1.00  0.00    -0.350 N 
HETATM   17  C   UNL     1     -37.387 -50.809  12.467  1.00  0.00     0.108 A 
HETATM   18  C   UNL     1     -37.390 -50.179  11.243  1.00  0.00     0.106 A 
HETATM   19  N   UNL     1     -38.659 -49.788  10.899  1.00  0.00    -0.361 N 
HETATM   20  C   UNL     1     -39.421 -50.162  11.903  1.00  0.00     0.182 A 
ATOM     21  HN  UNL     1     -38.949 -49.308  10.047  1.00  0.00     0.166 HD
ENDBRANCH  15  16
ENDBRANCH  14  15
ENDBRANCH   3  14
TORSDOF 5
ENDMDL
MODEL 4
REMARK VINA RESULT:      -5.4      1.860      2.503
REMARK  5 active torsions:
REMARK  status: ('A' for Active; 'I' for Inactive)
REMARK       I    between atoms: C_2  and  N_3 
REMARK    1  A    between atoms: C_2  and  C_12 
REMARK    2  A    between atoms: N_3  and  C_4 
REMARK    3  A    between atoms: C_4  and  C_5 
REMARK    4  A    between atoms: C_5  and  N_6 
REMARK    5  A    between atoms: N_14  and  C_15 
ROOT
HETATM    1  O   UNL     1     -38.658 -53.157  13.584  1.00  0.00    -0.273 OA
HETATM    2  C   UNL     1     -39.723 -53.109  14.192  1.00  0.00     0.223 C 
HETATM    3  N   UNL     1     -40.045 -52.050  15.015  1.00  0.00    -0.359 N 
HETATM    4  H   UNL     1     -40.813 -52.148  15.669  1.00  0.00     0.162 HD
ENDROOT
BRANCH   2   5
HETATM    5  C   UNL     1     -40.753 -54.213  14.132  1.00  0.00     0.104 C 
HETATM    6  C   UNL     1     -42.116 -53.658  13.732  1.00  0.00     0.141 C 
HETATM    7  N   UNL     1     -43.065 -54.533  14.370  1.00  0.00    -0.347 N 
HETATM    8  C   UNL     1     -42.484 -55.212  15.439  1.00  0.00     0.221 C 
HETATM    9  O   UNL     1     -43.052 -55.907  16.267  1.00  0.00    -0.273 OA
HETATM   10  C   UNL     1     -41.019 -54.865  15.485  1.00  0.00     0.118 C 
BRANCH   7  11
HETATM   11  C   UNL     1     -44.466 -54.232  14.365  1.00  0.00     0.087 A 
HETATM   12  C   UNL     1     -45.460 -55.231  13.843  1.00  0.00     0.027 A 
HETATM   13  C   UNL     1     -45.245 -53.939  13.112  1.00  0.00     0.027 A 
ENDBRANCH   7  11
ENDBRANCH   2   5
BRANCH   3  14
HETATM   14  C   UNL     1     -39.114 -50.945  15.208  1.00  0.00     0.143 C 
BRANCH  14  15
HETATM   15  C   UNL     1     -39.460 -49.718  14.360  1.00  0.00     0.148 C 
BRANCH  15  16
HETATM   16  N   UNL     1     -38.941 -49.812  13.012  1.00  0.00    -0.350 N 
HETATM   17  C   UNL     1     -37.631 -49.709  12.638  1.00  0.00     0.108 A 
HETATM   18  C   UNL     1     -37.648 -49.818  11.267  1.00  0.00     0.106 A 
HETATM   19  N   UNL     1     -38.929 -49.984  10.806  1.00  0.00    -0.361 N 
HETATM   20  C   UNL     1     -39.688 -49.966  11.879  1.00  0.00     0.182 A 
ATOM     21  HN  UNL     1     -39.229 -50.097   9.838  1.00  0.00     0.166 HD
ENDBRANCH  15  16
ENDBRANCH  14  15
ENDBRANCH   3  14
TORSDOF 5
ENDMDL
MODEL 5
REMARK VINA RESULT:      -5.2      1.501      2.374
REMARK  5 active torsions:
REMARK  status: ('A' for Active; 'I' for Inactive)
REMARK       I    between atoms: C_2  and  N_3 
REMARK    1  A    between atoms: C_2  and  C_12 
REMARK    2  A    between atoms: N_3  and  C_4 
REMARK    3  A    between atoms: C_4  and  C_5 
REMARK    4  A    between atoms: C_5  and  N_6 
REMARK    5  A    between atoms: N_14  and  C_15 
ROOT
HETATM    1  O   UNL     1     -40.336 -53.040  12.526  1.00  0.00    -0.273 OA
HETATM    2  C   UNL     1     -41.504 -52.701  12.366  1.00  0.00     0.223 C 
HETATM    3  N   UNL     1     -41.842 -51.451  11.893  1.00  0.00    -0.359 N 
HETATM    4  H   UNL     1     -42.798 -51.127  11.989  1.00  0.00     0.162 HD
ENDROOT
BRANCH   2   5
HETATM    5  C   UNL     1     -42.673 -53.596  12.709  1.00  0.00     0.104 C 
HETATM    6  C   UNL     1     -43.992 -52.852  12.532  1.00  0.00     0.141 C 
HETATM    7  N   UNL     1     -44.880 -53.454  13.492  1.00  0.00    -0.347 N 
HETATM    8  C   UNL     1     -44.166 -54.096  14.504  1.00  0.00     0.221 C 
HETATM    9  O   UNL     1     -44.615 -54.571  15.535  1.00  0.00    -0.273 OA
HETATM   10  C   UNL     1     -42.698 -54.021  14.173  1.00  0.00     0.118 C 
BRANCH   7  11
HETATM   11  C   UNL     1     -46.177 -52.903  13.746  1.00  0.00     0.087 A 
HETATM   12  C   UNL     1     -46.635 -51.664  13.028  1.00  0.00     0.027 A 
HETATM   13  C   UNL     1     -46.400 -51.626  14.509  1.00  0.00     0.027 A 
ENDBRANCH   7  11
ENDBRANCH   2   5
BRANCH   3  14
HETATM   14  C   UNL     1     -40.812 -50.468  11.578  1.00  0.00     0.143 C 
BRANCH  14  15
HETATM   15  C   UNL     1     -40.578 -49.467  12.712  1.00  0.00     0.148 C 
BRANCH  15  16
HETATM   16  N   UNL     1     -39.426 -49.804  13.520  1.00  0.00    -0.350 N 
HETATM   17  C   UNL     1     -38.202 -50.201  13.062  1.00  0.00     0.108 A 
HETATM   18  C   UNL     1     -37.465 -50.448  14.197  1.00  0.00     0.106 A 
HETATM   19  N   UNL     1     -38.210 -50.209  15.324  1.00  0.00    -0.361 N 
HETATM   20  C   UNL     1     -39.391 -49.833  14.885  1.00  0.00     0.182 A 
ATOM     21  HN  UNL     1     -37.913 -50.304  16.295  1.00  0.00     0.166 HD
ENDBRANCH  15  16
ENDBRANCH  14  15
ENDBRANCH   3  14
TORSDOF 5
ENDMDL
MODEL 6
REMARK VINA RESULT:      -5.2      2.045      2.880
REMARK  5 active torsions:
REMARK  status: ('A' for Active; 'I' for Inactive)
REMARK       I    between atoms: C_2  and  N_3 
REMARK    1  A    between atoms: C_2  and  C_12 
REMARK    2  A    between atoms: N_3  and  C_4 
REMARK    3  A    between atoms: C_4  and  C_5 
REMARK    4  A    between atoms: C_5  and  N_6 
REMARK    5  A    between atoms: N_14  and  C_15 
ROOT
HETATM    1  O   UNL     1     -39.296 -51.827  12.845  1.00  0.00    -0.273 OA
HETATM    2  C   UNL     1     -40.382 -52.032  12.311  1.00  0.00     0.223 C 
HETATM    3  N   UNL     1     -40.957 -51.116  11.456  1.00  0.00    -0.359 N 
HETATM    4  H   UNL     1     -41.938 -51.209  11.218  1.00  0.00     0.162 HD
ENDROOT
BRANCH   2   5
HETATM    5  C   UNL     1     -41.203 -53.274  12.569  1.00  0.00     0.104 C 
HETATM    6  C   UNL     1     -42.676 -52.921  12.738  1.00  0.00     0.141 C 
HETATM    7  N   UNL     1     -43.191 -53.930  13.627  1.00  0.00    -0.347 N 
HETATM    8  C   UNL     1     -42.165 -54.526  14.360  1.00  0.00     0.221 C 
HETATM    9  O   UNL     1     -42.283 -55.304  15.294  1.00  0.00    -0.273 OA
HETATM   10  C   UNL     1     -40.851 -53.969  13.880  1.00  0.00     0.118 C 
BRANCH   7  11
HETATM   11  C   UNL     1     -44.517 -53.837  14.162  1.00  0.00     0.087 A 
HETATM   12  C   UNL     1     -45.516 -54.934  13.922  1.00  0.00     0.027 A 
HETATM   13  C   UNL     1     -45.734 -53.579  13.317  1.00  0.00     0.027 A 
ENDBRANCH   7  11
ENDBRANCH   2   5
BRANCH   3  14
HETATM   14  C   UNL     1     -40.297 -49.848  11.166  1.00  0.00     0.143 C 
BRANCH  14  15
HETATM   15  C   UNL     1     -41.285 -48.708  10.905  1.00  0.00     0.148 C 
BRANCH  15  16
HETATM   16  N   UNL     1     -40.768 -47.422  11.318  1.00  0.00    -0.350 N 
HETATM   17  C   UNL     1     -40.938 -46.232  10.668  1.00  0.00     0.108 A 
HETATM   18  C   UNL     1     -40.230 -45.319  11.414  1.00  0.00     0.106 A 
HETATM   19  N   UNL     1     -39.640 -45.925  12.494  1.00  0.00    -0.361 N 
HETATM   20  C   UNL     1     -39.972 -47.193  12.404  1.00  0.00     0.182 A 
ATOM     21  HN  UNL     1     -39.066 -45.485  13.213  1.00  0.00     0.166 HD
ENDBRANCH  15  16
ENDBRANCH  14  15
ENDBRANCH   3  14
TORSDOF 5
ENDMDL
MODEL 7
REMARK VINA RESULT:      -5.1      3.471      7.636
REMARK  5 active torsions:
REMARK  status: ('A' for Active; 'I' for Inactive)
REMARK       I    between atoms: C_2  and  N_3 
REMARK    1  A    between atoms: C_2  and  C_12 
REMARK    2  A    between atoms: N_3  and  C_4 
REMARK    3  A    between atoms: C_4  and  C_5 
REMARK    4  A    between atoms: C_5  and  N_6 
REMARK    5  A    between atoms: N_14  and  C_15 
ROOT
HETATM    1  O   UNL     1     -43.116 -48.310  13.567  1.00  0.00    -0.273 OA
HETATM    2  C   UNL     1     -43.045 -48.949  12.521  1.00  0.00     0.223 C 
HETATM    3  N   UNL     1     -43.434 -50.270  12.447  1.00  0.00    -0.359 N 
HETATM    4  H   UNL     1     -43.153 -50.824  11.646  1.00  0.00     0.162 HD
ENDROOT
BRANCH   2   5
HETATM    5  C   UNL     1     -42.491 -48.369  11.241  1.00  0.00     0.104 C 
HETATM    6  C   UNL     1     -41.329 -47.426  11.534  1.00  0.00     0.141 C 
HETATM    7  N   UNL     1     -41.368 -46.460  10.468  1.00  0.00    -0.347 N 
HETATM    8  C   UNL     1     -42.628 -46.416   9.874  1.00  0.00     0.221 C 
HETATM    9  O   UNL     1     -43.027 -45.608   9.050  1.00  0.00    -0.273 OA
HETATM   10  C   UNL     1     -43.487 -47.485  10.498  1.00  0.00     0.118 C 
BRANCH   7  11
HETATM   11  C   UNL     1     -40.526 -45.301  10.489  1.00  0.00     0.087 A 
HETATM   12  C   UNL     1     -39.704 -44.977  11.705  1.00  0.00     0.027 A 
HETATM   13  C   UNL     1     -40.830 -44.072  11.302  1.00  0.00     0.027 A 
ENDBRANCH   7  11
ENDBRANCH   2   5
BRANCH   3  14
HETATM   14  C   UNL     1     -43.933 -50.968  13.626  1.00  0.00     0.143 C 
BRANCH  14  15
HETATM   15  C   UNL     1     -45.433 -51.265  13.553  1.00  0.00     0.148 C 
BRANCH  15  16
HETATM   16  N   UNL     1     -45.738 -52.651  13.834  1.00  0.00    -0.350 N 
HETATM   17  C   UNL     1     -46.517 -53.120  14.854  1.00  0.00     0.108 A 
HETATM   18  C   UNL     1     -46.469 -54.489  14.732  1.00  0.00     0.106 A 
HETATM   19  N   UNL     1     -45.684 -54.857  13.669  1.00  0.00    -0.361 N 
HETATM   20  C   UNL     1     -45.249 -53.729  13.153  1.00  0.00     0.182 A 
ATOM     21  HN  UNL     1     -45.482 -55.803  13.347  1.00  0.00     0.166 HD
ENDBRANCH  15  16
ENDBRANCH  14  15
ENDBRANCH   3  14
TORSDOF 5
ENDMDL
MODEL 8
REMARK VINA RESULT:      -4.9      3.482      5.734
REMARK  5 active torsions:
REMARK  status: ('A' for Active; 'I' for Inactive)
REMARK       I    between atoms: C_2  and  N_3 
REMARK    1  A    between atoms: C_2  and  C_12 
REMARK    2  A    between atoms: N_3  and  C_4 
REMARK    3  A    between atoms: C_4  and  C_5 
REMARK    4  A    between atoms: C_5  and  N_6 
REMARK    5  A    between atoms: N_14  and  C_15 
ROOT
HETATM    1  O   UNL     1     -41.948 -48.194  12.636  1.00  0.00    -0.273 OA
HETATM    2  C   UNL     1     -41.828 -48.852  11.607  1.00  0.00     0.223 C 
HETATM    3  N   UNL     1     -42.474 -48.502  10.440  1.00  0.00    -0.359 N 
HETATM    4  H   UNL     1     -42.539 -49.179   9.689  1.00  0.00     0.162 HD
ENDROOT
BRANCH   2   5
HETATM    5  C   UNL     1     -41.007 -50.118  11.533  1.00  0.00     0.104 C 
HETATM    6  C   UNL     1     -41.557 -51.174  12.485  1.00  0.00     0.141 C 
HETATM    7  N   UNL     1     -40.409 -51.956  12.863  1.00  0.00    -0.347 N 
HETATM    8  C   UNL     1     -39.227 -51.245  12.656  1.00  0.00     0.221 C 
HETATM    9  O   UNL     1     -38.103 -51.566  13.010  1.00  0.00    -0.273 OA
HETATM   10  C   UNL     1     -39.568 -49.932  12.003  1.00  0.00     0.118 C 
BRANCH   7  11
HETATM   11  C   UNL     1     -40.497 -52.951  13.889  1.00  0.00     0.087 A 
HETATM   12  C   UNL     1     -39.863 -54.301  13.702  1.00  0.00     0.027 A 
HETATM   13  C   UNL     1     -41.357 -54.181  13.778  1.00  0.00     0.027 A 
ENDBRANCH   7  11
ENDBRANCH   2   5
BRANCH   3  14
HETATM   14  C   UNL     1     -43.346 -47.334  10.390  1.00  0.00     0.143 C 
BRANCH  14  15
HETATM   15  C   UNL     1     -42.694 -46.133   9.701  1.00  0.00     0.148 C 
BRANCH  15  16
HETATM   16  N   UNL     1     -41.764 -45.437  10.563  1.00  0.00    -0.350 N 
HETATM   17  C   UNL     1     -40.401 -45.477  10.486  1.00  0.00     0.108 A 
HETATM   18  C   UNL     1     -39.966 -44.700  11.535  1.00  0.00     0.106 A 
HETATM   19  N   UNL     1     -41.029 -44.193  12.239  1.00  0.00    -0.361 N 
HETATM   20  C   UNL     1     -42.099 -44.662  11.637  1.00  0.00     0.182 A 
ATOM     21  HN  UNL     1     -40.996 -43.582  13.055  1.00  0.00     0.166 HD
ENDBRANCH  15  16
ENDBRANCH  14  15
ENDBRANCH   3  14
TORSDOF 5
ENDMDL
MODEL 9
REMARK VINA RESULT:      -4.9      3.249      6.652
REMARK  5 active torsions:
REMARK  status: ('A' for Active; 'I' for Inactive)
REMARK       I    between atoms: C_2  and  N_3 
REMARK    1  A    between atoms: C_2  and  C_12 
REMARK    2  A    between atoms: N_3  and  C_4 
REMARK    3  A    between atoms: C_4  and  C_5 
REMARK    4  A    between atoms: C_5  and  N_6 
REMARK    5  A    between atoms: N_14  and  C_15 
ROOT
HETATM    1  O   UNL     1     -41.638 -49.437  13.961  1.00  0.00    -0.273 OA
HETATM    2  C   UNL     1     -41.989 -49.233  12.803  1.00  0.00     0.223 C 
HETATM    3  N   UNL     1     -41.992 -50.236  11.856  1.00  0.00    -0.359 N 
HETATM    4  H   UNL     1     -42.063 -49.989  10.876  1.00  0.00     0.162 HD
ENDROOT
BRANCH   2   5
HETATM    5  C   UNL     1     -42.404 -47.871  12.299  1.00  0.00     0.104 C 
HETATM    6  C   UNL     1     -43.400 -48.001  11.152  1.00  0.00     0.141 C 
HETATM    7  N   UNL     1     -43.173 -46.834  10.340  1.00  0.00    -0.347 N 
HETATM    8  C   UNL     1     -41.907 -46.298  10.573  1.00  0.00     0.221 C 
HETATM    9  O   UNL     1     -41.358 -45.406   9.944  1.00  0.00    -0.273 OA
HETATM   10  C   UNL     1     -41.255 -47.079  11.684  1.00  0.00     0.118 C 
BRANCH   7  11
HETATM   11  C   UNL     1     -43.811 -46.685   9.066  1.00  0.00     0.087 A 
HETATM   12  C   UNL     1     -44.908 -47.623   8.646  1.00  0.00     0.027 A 
HETATM   13  C   UNL     1     -43.597 -47.633   7.917  1.00  0.00     0.027 A 
ENDBRANCH   7  11
ENDBRANCH   2   5
BRANCH   3  14
HETATM   14  C   UNL     1     -41.558 -51.586  12.196  1.00  0.00     0.143 C 
BRANCH  14  15
HETATM   15  C   UNL     1     -42.717 -52.582  12.278  1.00  0.00     0.148 C 
BRANCH  15  16
HETATM   16  N   UNL     1     -42.608 -53.467  13.417  1.00  0.00    -0.350 N 
HETATM   17  C   UNL     1     -41.459 -53.805  14.074  1.00  0.00     0.108 A 
HETATM   18  C   UNL     1     -41.859 -54.696  15.044  1.00  0.00     0.106 A 
HETATM   19  N   UNL     1     -43.214 -54.902  14.988  1.00  0.00    -0.361 N 
HETATM   20  C   UNL     1     -43.637 -54.157  13.992  1.00  0.00     0.182 A 
ATOM     21  HN  UNL     1     -43.773 -55.505  15.591  1.00  0.00     0.166 HD
ENDBRANCH  15  16
ENDBRANCH  14  15
ENDBRANCH   3  14
TORSDOF 5
ENDMDL
