MODEL 1
REMARK VINA RESULT:      -5.6      0.000      0.000
REMARK  3 active torsions:
REMARK  status: ('A' for Active; 'I' for Inactive)
REMARK    1  A    between atoms: C_7  and  N_8 
REMARK       I    between atoms: N_8  and  C_9 
REMARK       I    between atoms: C_9  and  N_11 
REMARK    2  A    between atoms: N_11  and  C_12 
REMARK    3  A    between atoms: C_12  and  C_13 
ROOT
HETATM    1  N   UNL     1     -43.682 -54.187  12.582  1.00  0.00    -0.295 N 
HETATM    2  C   UNL     1     -44.680 -54.330  13.501  1.00  0.00     0.321 C 
HETATM    3  O   UNL     1     -45.567 -55.159  13.309  1.00  0.00    -0.247 OA
HETATM    4  N   UNL     1     -44.657 -53.481  14.560  1.00  0.00    -0.342 N 
HETATM    5  H   UNL     1     -43.817 -54.753  11.761  1.00  0.00     0.172 HD
HETATM    6  H   UNL     1     -43.777 -52.989  14.705  1.00  0.00     0.164 HD
ENDROOT
BRANCH   1   7
HETATM    7  C   UNL     1     -42.562 -53.350  12.643  1.00  0.00     0.109 A 
HETATM    8  N   UNL     1     -42.588 -52.151  12.020  1.00  0.00    -0.352 N 
HETATM    9  C   UNL     1     -41.488 -51.371  12.116  1.00  0.00     0.090 A 
ATOM     10  HN  UNL     1     -43.408 -51.844  11.496  1.00  0.00     0.166 HD
HETATM   11  C   UNL     1     -40.343 -51.743  12.794  1.00  0.00     0.024 A 
HETATM   12  C   UNL     1     -40.316 -52.985  13.426  1.00  0.00    -0.057 A 
HETATM   13  C   UNL     1     -39.089 -53.460  14.142  1.00  0.00     0.048 C 
HETATM   14  C   UNL     1     -41.455 -53.796  13.357  1.00  0.00     0.055 A 
ENDBRANCH   1   7
BRANCH   4  15
HETATM   15  C   UNL     1     -45.645 -53.468  15.602  1.00  0.00     0.129 C 
BRANCH  15  16
HETATM   16  C   UNL     1     -46.848 -52.703  15.152  1.00  0.00     0.003 A 
HETATM   17  C   UNL     1     -46.661 -51.368  14.480  1.00  0.00     0.007 A 
HETATM   18  C   UNL     1     -47.278 -51.436  15.849  1.00  0.00     0.007 A 
ENDBRANCH  15  16
ENDBRANCH   4  15
TORSDOF 3
ENDMDL
MODEL 2
REMARK VINA RESULT:      -5.5      1.399      1.823
REMARK  3 active torsions:
REMARK  status: ('A' for Active; 'I' for Inactive)
REMARK    1  A    between atoms: C_7  and  N_8 
REMARK       I    between atoms: N_8  and  C_9 
REMARK       I    between atoms: C_9  and  N_11 
REMARK    2  A    between atoms: N_11  and  C_12 
REMARK    3  A    between atoms: C_12  and  C_13 
ROOT
HETATM    1  N   UNL     1     -42.473 -53.278  12.160  1.00  0.00    -0.295 N 
HETATM    2  C   UNL     1     -43.793 -53.089  12.450  1.00  0.00     0.321 C 
HETATM    3  O   UNL     1     -44.587 -54.013  12.288  1.00  0.00    -0.247 OA
HETATM    4  N   UNL     1     -44.156 -51.843  12.847  1.00  0.00    -0.342 N 
HETATM    5  H   UNL     1     -42.283 -54.179  11.754  1.00  0.00     0.172 HD
HETATM    6  H   UNL     1     -43.389 -51.236  13.131  1.00  0.00     0.164 HD
ENDROOT
BRANCH   1   7
HETATM    7  C   UNL     1     -41.413 -52.380  12.329  1.00  0.00     0.109 A 
HETATM    8  N   UNL     1     -41.160 -51.456  11.375  1.00  0.00    -0.352 N 
HETATM    9  C   UNL     1     -40.134 -50.603  11.586  1.00  0.00     0.090 A 
ATOM     10  HN  UNL     1     -41.724 -51.404  10.526  1.00  0.00     0.166 HD
HETATM   11  C   UNL     1     -39.325 -50.640  12.705  1.00  0.00     0.024 A 
HETATM   12  C   UNL     1     -39.581 -51.602  13.681  1.00  0.00    -0.057 A 
HETATM   13  C   UNL     1     -38.714 -51.719  14.897  1.00  0.00     0.048 C 
HETATM   14  C   UNL     1     -40.655 -52.480  13.491  1.00  0.00     0.055 A 
ENDBRANCH   1   7
BRANCH   4  15
HETATM   15  C   UNL     1     -45.503 -51.458  13.159  1.00  0.00     0.129 C 
BRANCH  15  16
HETATM   16  C   UNL     1     -45.719 -51.513  14.637  1.00  0.00     0.003 A 
HETATM   17  C   UNL     1     -46.392 -52.721  15.237  1.00  0.00     0.007 A 
HETATM   18  C   UNL     1     -47.100 -51.395  15.232  1.00  0.00     0.007 A 
ENDBRANCH  15  16
ENDBRANCH   4  15
TORSDOF 3
ENDMDL
MODEL 3
REMARK VINA RESULT:      -5.4      3.265      4.491
REMARK  3 active torsions:
REMARK  status: ('A' for Active; 'I' for Inactive)
REMARK    1  A    between atoms: C_7  and  N_8 
REMARK       I    between atoms: N_8  and  C_9 
REMARK       I    between atoms: C_9  and  N_11 
REMARK    2  A    between atoms: N_11  and  C_12 
REMARK    3  A    between atoms: C_12  and  C_13 
ROOT
HETATM    1  N   UNL     1     -40.665 -50.844  11.396  1.00  0.00    -0.295 N 
HETATM    2  C   UNL     1     -41.537 -51.712  11.983  1.00  0.00     0.321 C 
HETATM    3  O   UNL     1     -41.300 -52.918  11.962  1.00  0.00    -0.247 OA
HETATM    4  N   UNL     1     -42.668 -51.175  12.509  1.00  0.00    -0.342 N 
HETATM    5  H   UNL     1     -39.911 -51.306  10.916  1.00  0.00     0.172 HD
HETATM    6  H   UNL     1     -42.650 -50.166  12.641  1.00  0.00     0.164 HD
ENDROOT
BRANCH   1   7
HETATM    7  C   UNL     1     -40.725 -49.446  11.363  1.00  0.00     0.109 A 
HETATM    8  N   UNL     1     -41.432 -48.829  10.390  1.00  0.00    -0.352 N 
HETATM    9  C   UNL     1     -41.472 -47.479  10.405  1.00  0.00     0.090 A 
ATOM     10  HN  UNL     1     -41.919 -49.363   9.670  1.00  0.00     0.166 HD
HETATM   11  C   UNL     1     -40.816 -46.703  11.342  1.00  0.00     0.024 A 
HETATM   12  C   UNL     1     -40.078 -47.343  12.336  1.00  0.00    -0.057 A 
HETATM   13  C   UNL     1     -39.312 -46.556  13.356  1.00  0.00     0.048 C 
HETATM   14  C   UNL     1     -40.045 -48.742  12.352  1.00  0.00     0.055 A 
ENDBRANCH   1   7
BRANCH   4  15
HETATM   15  C   UNL     1     -43.708 -51.943  13.133  1.00  0.00     0.129 C 
BRANCH  15  16
HETATM   16  C   UNL     1     -44.935 -51.103  13.292  1.00  0.00     0.003 A 
HETATM   17  C   UNL     1     -45.959 -51.488  14.329  1.00  0.00     0.007 A 
HETATM   18  C   UNL     1     -46.292 -51.608  12.868  1.00  0.00     0.007 A 
ENDBRANCH  15  16
ENDBRANCH   4  15
TORSDOF 3
ENDMDL
MODEL 4
REMARK VINA RESULT:      -5.3      3.782      6.274
REMARK  3 active torsions:
REMARK  status: ('A' for Active; 'I' for Inactive)
REMARK    1  A    between atoms: C_7  and  N_8 
REMARK       I    between atoms: N_8  and  C_9 
REMARK       I    between atoms: C_9  and  N_11 
REMARK    2  A    between atoms: N_11  and  C_12 
REMARK    3  A    between atoms: C_12  and  C_13 
ROOT
HETATM    1  N   UNL     1     -42.960 -50.813  12.804  1.00  0.00    -0.295 N 
HETATM    2  C   UNL     1     -42.523 -49.778  12.029  1.00  0.00     0.321 C 
HETATM    3  O   UNL     1     -41.362 -49.769  11.628  1.00  0.00    -0.247 OA
HETATM    4  N   UNL     1     -43.409 -48.774  11.802  1.00  0.00    -0.342 N 
HETATM    5  H   UNL     1     -42.229 -51.463  13.041  1.00  0.00     0.172 HD
HETATM    6  H   UNL     1     -44.380 -48.994  12.014  1.00  0.00     0.164 HD
ENDROOT
BRANCH   1   7
HETATM    7  C   UNL     1     -44.246 -51.036  13.306  1.00  0.00     0.109 A 
HETATM    8  N   UNL     1     -45.236 -51.415  12.467  1.00  0.00    -0.352 N 
HETATM    9  C   UNL     1     -46.460 -51.629  12.999  1.00  0.00     0.090 A 
ATOM     10  HN  UNL     1     -45.066 -51.535  11.468  1.00  0.00     0.166 HD
HETATM   11  C   UNL     1     -46.753 -51.462  14.339  1.00  0.00     0.024 A 
HETATM   12  C   UNL     1     -45.732 -51.059  15.198  1.00  0.00    -0.057 A 
HETATM   13  C   UNL     1     -45.998 -50.822  16.654  1.00  0.00     0.048 C 
HETATM   14  C   UNL     1     -44.452 -50.856  14.670  1.00  0.00     0.055 A 
ENDBRANCH   1   7
BRANCH   4  15
HETATM   15  C   UNL     1     -43.109 -47.595  11.040  1.00  0.00     0.129 C 
BRANCH  15  16
HETATM   16  C   UNL     1     -44.083 -47.456   9.913  1.00  0.00     0.003 A 
HETATM   17  C   UNL     1     -43.580 -47.527   8.495  1.00  0.00     0.007 A 
HETATM   18  C   UNL     1     -44.101 -46.226   9.040  1.00  0.00     0.007 A 
ENDBRANCH  15  16
ENDBRANCH   4  15
TORSDOF 3
ENDMDL
MODEL 5
REMARK VINA RESULT:      -5.3      5.541      7.156
REMARK  3 active torsions:
REMARK  status: ('A' for Active; 'I' for Inactive)
REMARK    1  A    between atoms: C_7  and  N_8 
REMARK       I    between atoms: N_8  and  C_9 
REMARK       I    between atoms: C_9  and  N_11 
REMARK    2  A    between atoms: N_11  and  C_12 
REMARK    3  A    between atoms: C_12  and  C_13 
ROOT
HETATM    1  N   UNL     1     -40.814 -49.540  10.599  1.00  0.00    -0.295 N 
HETATM    2  C   UNL     1     -41.399 -48.309  10.659  1.00  0.00     0.321 C 
HETATM    3  O   UNL     1     -42.426 -48.094  10.019  1.00  0.00    -0.247 OA
HETATM    4  N   UNL     1     -40.753 -47.364  11.389  1.00  0.00    -0.342 N 
HETATM    5  H   UNL     1     -41.266 -50.160   9.948  1.00  0.00     0.172 HD
HETATM    6  H   UNL     1     -40.037 -47.717  12.022  1.00  0.00     0.164 HD
ENDROOT
BRANCH   1   7
HETATM    7  C   UNL     1     -39.687 -49.997  11.290  1.00  0.00     0.109 A 
HETATM    8  N   UNL     1     -38.454 -49.767  10.786  1.00  0.00    -0.352 N 
HETATM    9  C   UNL     1     -37.394 -50.217  11.494  1.00  0.00     0.090 A 
ATOM     10  HN  UNL     1     -38.327 -49.272   9.903  1.00  0.00     0.166 HD
HETATM   11  C   UNL     1     -37.506 -50.911  12.683  1.00  0.00     0.024 A 
HETATM   12  C   UNL     1     -38.780 -51.156  13.194  1.00  0.00    -0.057 A 
HETATM   13  C   UNL     1     -38.967 -51.939  14.458  1.00  0.00     0.048 C 
HETATM   14  C   UNL     1     -39.889 -50.677  12.487  1.00  0.00     0.055 A 
ENDBRANCH   1   7
BRANCH   4  15
HETATM   15  C   UNL     1     -41.206 -46.010  11.532  1.00  0.00     0.129 C 
BRANCH  15  16
HETATM   16  C   UNL     1     -40.108 -45.064  11.162  1.00  0.00     0.003 A 
HETATM   17  C   UNL     1     -39.532 -44.158  12.219  1.00  0.00     0.007 A 
HETATM   18  C   UNL     1     -40.344 -43.576  11.096  1.00  0.00     0.007 A 
ENDBRANCH  15  16
ENDBRANCH   4  15
TORSDOF 3
ENDMDL
MODEL 6
REMARK VINA RESULT:      -5.2      2.319      5.686
REMARK  3 active torsions:
REMARK  status: ('A' for Active; 'I' for Inactive)
REMARK    1  A    between atoms: C_7  and  N_8 
REMARK       I    between atoms: N_8  and  C_9 
REMARK       I    between atoms: C_9  and  N_11 
REMARK    2  A    between atoms: N_11  and  C_12 
REMARK    3  A    between atoms: C_12  and  C_13 
ROOT
HETATM    1  N   UNL     1     -43.149 -50.753  12.613  1.00  0.00    -0.295 N 
HETATM    2  C   UNL     1     -42.085 -51.596  12.478  1.00  0.00     0.321 C 
HETATM    3  O   UNL     1     -41.067 -51.202  11.914  1.00  0.00    -0.247 OA
HETATM    4  N   UNL     1     -42.254 -52.865  12.932  1.00  0.00    -0.342 N 
HETATM    5  H   UNL     1     -43.013 -49.870  12.151  1.00  0.00     0.172 HD
HETATM    6  H   UNL     1     -43.052 -53.004  13.548  1.00  0.00     0.164 HD
ENDROOT
BRANCH   1   7
HETATM    7  C   UNL     1     -44.363 -50.989  13.267  1.00  0.00     0.109 A 
HETATM    8  N   UNL     1     -45.435 -51.406  12.557  1.00  0.00    -0.352 N 
HETATM    9  C   UNL     1     -46.584 -51.633  13.232  1.00  0.00     0.090 A 
ATOM     10  HN  UNL     1     -45.380 -51.545  11.548  1.00  0.00     0.166 HD
HETATM   11  C   UNL     1     -46.722 -51.442  14.594  1.00  0.00     0.024 A 
HETATM   12  C   UNL     1     -45.617 -51.000  15.320  1.00  0.00    -0.057 A 
HETATM   13  C   UNL     1     -45.717 -50.736  16.791  1.00  0.00     0.048 C 
HETATM   14  C   UNL     1     -44.412 -50.783  14.642  1.00  0.00     0.055 A 
ENDBRANCH   1   7
BRANCH   4  15
HETATM   15  C   UNL     1     -41.255 -53.892  12.839  1.00  0.00     0.129 C 
BRANCH  15  16
HETATM   16  C   UNL     1     -40.492 -53.976  14.122  1.00  0.00     0.003 A 
HETATM   17  C   UNL     1     -39.219 -53.183  14.273  1.00  0.00     0.007 A 
HETATM   18  C   UNL     1     -39.161 -54.683  14.198  1.00  0.00     0.007 A 
ENDBRANCH  15  16
ENDBRANCH   4  15
TORSDOF 3
ENDMDL
MODEL 7
REMARK VINA RESULT:      -5.1      2.539      5.717
REMARK  3 active torsions:
REMARK  status: ('A' for Active; 'I' for Inactive)
REMARK    1  A    between atoms: C_7  and  N_8 
REMARK       I    between atoms: N_8  and  C_9 
REMARK       I    between atoms: C_9  and  N_11 
REMARK    2  A    between atoms: N_11  and  C_12 
REMARK    3  A    between atoms: C_12  and  C_13 
ROOT
HETATM    1  N   UNL     1     -42.772 -52.997  12.785  1.00  0.00    -0.295 N 
HETATM    2  C   UNL     1     -41.740 -52.340  12.180  1.00  0.00     0.321 C 
HETATM    3  O   UNL     1     -40.691 -52.939  11.952  1.00  0.00    -0.247 OA
HETATM    4  N   UNL     1     -41.926 -51.020  11.923  1.00  0.00    -0.342 N 
HETATM    5  H   UNL     1     -42.534 -53.934  13.062  1.00  0.00     0.172 HD
HETATM    6  H   UNL     1     -42.891 -50.699  11.973  1.00  0.00     0.164 HD
ENDROOT
BRANCH   1   7
HETATM    7  C   UNL     1     -44.052 -52.514  13.075  1.00  0.00     0.109 A 
HETATM    8  N   UNL     1     -45.013 -52.549  12.124  1.00  0.00    -0.352 N 
HETATM    9  C   UNL     1     -46.237 -52.083  12.453  1.00  0.00     0.090 A 
ATOM     10  HN  UNL     1     -44.820 -52.915  11.191  1.00  0.00     0.166 HD
HETATM   11  C   UNL     1     -46.549 -51.558  13.692  1.00  0.00     0.024 A 
HETATM   12  C   UNL     1     -45.554 -51.513  14.666  1.00  0.00    -0.057 A 
HETATM   13  C   UNL     1     -45.820 -50.918  16.015  1.00  0.00     0.048 C 
HETATM   14  C   UNL     1     -44.285 -52.013  14.352  1.00  0.00     0.055 A 
ENDBRANCH   1   7
BRANCH   4  15
HETATM   15  C   UNL     1     -40.937 -50.169  11.325  1.00  0.00     0.129 C 
BRANCH  15  16
HETATM   16  C   UNL     1     -40.934 -48.837  12.003  1.00  0.00     0.003 A 
HETATM   17  C   UNL     1     -41.097 -47.590  11.172  1.00  0.00     0.007 A 
HETATM   18  C   UNL     1     -39.782 -47.877  11.841  1.00  0.00     0.007 A 
ENDBRANCH  15  16
ENDBRANCH   4  15
TORSDOF 3
ENDMDL
MODEL 8
REMARK VINA RESULT:      -4.9      1.713      2.574
REMARK  3 active torsions:
REMARK  status: ('A' for Active; 'I' for Inactive)
REMARK    1  A    between atoms: C_7  and  N_8 
REMARK       I    between atoms: N_8  and  C_9 
REMARK       I    between atoms: C_9  and  N_11 
REMARK    2  A    between atoms: N_11  and  C_12 
REMARK    3  A    between atoms: C_12  and  C_13 
ROOT
HETATM    1  N   UNL     1     -43.976 -54.168  12.953  1.00  0.00    -0.295 N 
HETATM    2  C   UNL     1     -44.951 -53.217  13.022  1.00  0.00     0.321 C 
HETATM    3  O   UNL     1     -45.784 -53.137  12.122  1.00  0.00    -0.247 OA
HETATM    4  N   UNL     1     -44.893 -52.362  14.075  1.00  0.00    -0.342 N 
HETATM    5  H   UNL     1     -43.994 -54.691  12.094  1.00  0.00     0.172 HD
HETATM    6  H   UNL     1     -44.289 -52.655  14.841  1.00  0.00     0.164 HD
ENDROOT
BRANCH   1   7
HETATM    7  C   UNL     1     -42.980 -54.456  13.894  1.00  0.00     0.109 A 
HETATM    8  N   UNL     1     -43.308 -55.086  15.044  1.00  0.00    -0.352 N 
HETATM    9  C   UNL     1     -42.312 -55.354  15.917  1.00  0.00     0.090 A 
ATOM     10  HN  UNL     1     -44.272 -55.350  15.246  1.00  0.00     0.166 HD
HETATM   11  C   UNL     1     -40.993 -55.001  15.706  1.00  0.00     0.024 A 
HETATM   12  C   UNL     1     -40.661 -54.341  14.524  1.00  0.00    -0.057 A 
HETATM   13  C   UNL     1     -39.255 -53.897  14.257  1.00  0.00     0.048 C 
HETATM   14  C   UNL     1     -41.675 -54.076  13.596  1.00  0.00     0.055 A 
ENDBRANCH   1   7
BRANCH   4  15
HETATM   15  C   UNL     1     -45.815 -51.282  14.286  1.00  0.00     0.129 C 
BRANCH  15  16
HETATM   16  C   UNL     1     -46.156 -51.180  15.738  1.00  0.00     0.003 A 
HETATM   17  C   UNL     1     -46.484 -52.435  16.506  1.00  0.00     0.007 A 
HETATM   18  C   UNL     1     -47.561 -51.421  16.233  1.00  0.00     0.007 A 
ENDBRANCH  15  16
ENDBRANCH   4  15
TORSDOF 3
ENDMDL
MODEL 9
REMARK VINA RESULT:      -4.8     16.591     17.539
REMARK  3 active torsions:
REMARK  status: ('A' for Active; 'I' for Inactive)
REMARK    1  A    between atoms: C_7  and  N_8 
REMARK       I    between atoms: N_8  and  C_9 
REMARK       I    between atoms: C_9  and  N_11 
REMARK    2  A    between atoms: N_11  and  C_12 
REMARK    3  A    between atoms: C_12  and  C_13 
ROOT
HETATM    1  N   UNL     1     -48.461 -55.072  -1.956  1.00  0.00    -0.295 N 
HETATM    2  C   UNL     1     -49.345 -55.882  -2.607  1.00  0.00     0.321 C 
HETATM    3  O   UNL     1     -49.209 -57.102  -2.545  1.00  0.00    -0.247 OA
HETATM    4  N   UNL     1     -50.300 -55.266  -3.350  1.00  0.00    -0.342 N 
HETATM    5  H   UNL     1     -47.705 -55.579  -1.526  1.00  0.00     0.172 HD
HETATM    6  H   UNL     1     -50.427 -54.274  -3.160  1.00  0.00     0.164 HD
ENDROOT
BRANCH   1   7
HETATM    7  C   UNL     1     -48.477 -53.677  -1.858  1.00  0.00     0.109 A 
HETATM    8  N   UNL     1     -47.610 -52.944  -2.592  1.00  0.00    -0.352 N 
HETATM    9  C   UNL     1     -47.669 -51.599  -2.474  1.00  0.00     0.090 A 
ATOM     10  HN  UNL     1     -46.935 -53.390  -3.214  1.00  0.00     0.166 HD
HETATM   11  C   UNL     1     -48.547 -50.943  -1.633  1.00  0.00     0.024 A 
HETATM   12  C   UNL     1     -49.431 -51.702  -0.868  1.00  0.00    -0.057 A 
HETATM   13  C   UNL     1     -50.378 -51.049   0.092  1.00  0.00     0.048 C 
HETATM   14  C   UNL     1     -49.401 -53.096  -0.995  1.00  0.00     0.055 A 
ENDBRANCH   1   7
BRANCH   4  15
HETATM   15  C   UNL     1     -51.288 -55.961  -4.126  1.00  0.00     0.129 C 
BRANCH  15  16
HETATM   16  C   UNL     1     -52.658 -55.548  -3.693  1.00  0.00     0.003 A 
HETATM   17  C   UNL     1     -52.896 -55.192  -2.249  1.00  0.00     0.007 A 
HETATM   18  C   UNL     1     -53.507 -56.440  -2.822  1.00  0.00     0.007 A 
ENDBRANCH  15  16
ENDBRANCH   4  15
TORSDOF 3
ENDMDL
