MODEL 1
REMARK VINA RESULT:      -7.1      0.000      0.000
REMARK  6 active torsions:
REMARK  status: ('A' for Active; 'I' for Inactive)
REMARK    1  A    between atoms: O_1  and  C_2 
REMARK    2  A    between atoms: C_2  and  C_3 
REMARK    3  A    between atoms: C_2  and  C_21 
REMARK       I    between atoms: N_6  and  C_9 
REMARK       I    between atoms: C_9  and  N_11 
REMARK    4  A    between atoms: N_11  and  C_12 
REMARK    5  A    between atoms: C_12  and  C_13 
REMARK    6  A    between atoms: C_13  and  C_14 
ROOT
HETATM    1  C   UNL     1     -43.926 -53.643  14.678  1.00  0.00     0.026 C 
HETATM    2  C   UNL     1     -44.127 -52.144  14.380  1.00  0.00     0.027 C 
HETATM    3  C   UNL     1     -43.699 -51.718  12.976  1.00  0.00     0.128 C 
HETATM    4  N   UNL     1     -42.336 -52.153  12.678  1.00  0.00    -0.334 N 
HETATM    5  C   UNL     1     -42.055 -53.566  12.897  1.00  0.00     0.128 C 
HETATM    6  C   UNL     1     -42.489 -54.039  14.285  1.00  0.00     0.027 C 
HETATM    7  C   UNL     1     -41.364 -51.385  12.056  1.00  0.00     0.318 C 
HETATM    8  O   UNL     1     -40.215 -51.780  11.875  1.00  0.00    -0.247 OA
HETATM    9  N   UNL     1     -41.766 -50.133  11.658  1.00  0.00    -0.343 N 
HETATM   10  H   UNL     1     -42.709 -50.106  11.303  1.00  0.00     0.164 HD
ENDROOT
BRANCH   9  11
HETATM   11  C   UNL     1     -40.814 -49.267  10.979  1.00  0.00     0.130 C 
BRANCH  11  12
HETATM   12  C   UNL     1     -41.338 -47.839  10.845  1.00  0.00     0.076 C 
BRANCH  12  13
HETATM   13  C   UNL     1     -42.605 -47.749  10.033  1.00  0.00     0.010 A 
HETATM   14  C   UNL     1     -43.836 -47.515  10.646  1.00  0.00     0.025 A 
HETATM   15  C   UNL     1     -44.984 -47.479   9.859  1.00  0.00     0.003 A 
HETATM   16  C   UNL     1     -44.879 -47.686   8.490  1.00  0.00     0.017 A 
HETATM   17  C   UNL     1     -43.622 -47.913   7.960  1.00  0.00     0.088 A 
HETATM   18  N   UNL     1     -42.489 -47.946   8.698  1.00  0.00    -0.369 N 
ATOM     19  HN  UNL     1     -41.580 -48.114   8.265  1.00  0.00     0.165 HD
ENDBRANCH  12  13
ENDBRANCH  11  12
ENDBRANCH   9  11
BRANCH   1  20
HETATM   20  C   UNL     1     -45.001 -54.568  14.051  1.00  0.00     0.229 C 
BRANCH  20  21
HETATM   21  O   UNL     1     -45.085 -54.364  12.637  1.00  0.00    -0.386 OA
HETATM   22  H   UNL     1     -45.650 -55.062  12.263  1.00  0.00     0.210 HD
ENDBRANCH  20  21
BRANCH  20  23
HETATM   23  C   UNL     1     -46.383 -54.463  14.758  1.00  0.00     0.413 C 
HETATM   24  F   UNL     1     -46.259 -54.366  16.101  1.00  0.00    -0.168 F 
HETATM   25  F   UNL     1     -47.033 -53.348  14.340  1.00  0.00    -0.168 F 
HETATM   26  F   UNL     1     -47.196 -55.509  14.499  1.00  0.00    -0.168 F 
ENDBRANCH  20  23
ENDBRANCH   1  20
TORSDOF 6
ENDMDL
MODEL 2
REMARK VINA RESULT:      -6.6      5.265      7.973
REMARK  6 active torsions:
REMARK  status: ('A' for Active; 'I' for Inactive)
REMARK    1  A    between atoms: O_1  and  C_2 
REMARK    2  A    between atoms: C_2  and  C_3 
REMARK    3  A    between atoms: C_2  and  C_21 
REMARK       I    between atoms: N_6  and  C_9 
REMARK       I    between atoms: C_9  and  N_11 
REMARK    4  A    between atoms: N_11  and  C_12 
REMARK    5  A    between atoms: C_12  and  C_13 
REMARK    6  A    between atoms: C_13  and  C_14 
ROOT
HETATM    1  C   UNL     1     -41.136 -45.981  10.667  1.00  0.00     0.026 C 
HETATM    2  C   UNL     1     -42.232 -47.029  10.386  1.00  0.00     0.027 C 
HETATM    3  C   UNL     1     -42.352 -48.114  11.455  1.00  0.00     0.128 C 
HETATM    4  N   UNL     1     -41.060 -48.740  11.730  1.00  0.00    -0.334 N 
HETATM    5  C   UNL     1     -39.965 -47.830  12.041  1.00  0.00     0.128 C 
HETATM    6  C   UNL     1     -39.823 -46.714  11.005  1.00  0.00     0.027 C 
HETATM    7  C   UNL     1     -40.841 -50.100  11.885  1.00  0.00     0.318 C 
HETATM    8  O   UNL     1     -39.725 -50.580  12.065  1.00  0.00    -0.247 OA
HETATM    9  N   UNL     1     -41.963 -50.891  11.816  1.00  0.00    -0.343 N 
HETATM   10  H   UNL     1     -42.775 -50.477  12.245  1.00  0.00     0.164 HD
ENDROOT
BRANCH   9  11
HETATM   11  C   UNL     1     -41.826 -52.329  11.989  1.00  0.00     0.130 C 
BRANCH  11  12
HETATM   12  C   UNL     1     -42.546 -52.823  13.241  1.00  0.00     0.076 C 
BRANCH  12  13
HETATM   13  C   UNL     1     -43.978 -52.357  13.322  1.00  0.00     0.010 A 
HETATM   14  C   UNL     1     -44.423 -51.585  14.394  1.00  0.00     0.025 A 
HETATM   15  C   UNL     1     -45.763 -51.211  14.444  1.00  0.00     0.003 A 
HETATM   16  C   UNL     1     -46.625 -51.622  13.435  1.00  0.00     0.017 A 
HETATM   17  C   UNL     1     -46.104 -52.387  12.407  1.00  0.00     0.088 A 
HETATM   18  N   UNL     1     -44.806 -52.759  12.328  1.00  0.00    -0.369 N 
ATOM     19  HN  UNL     1     -44.464 -53.322  11.548  1.00  0.00     0.165 HD
ENDBRANCH  12  13
ENDBRANCH  11  12
ENDBRANCH   9  11
BRANCH   1  20
HETATM   20  C   UNL     1     -41.526 -44.918  11.727  1.00  0.00     0.229 C 
BRANCH  20  21
HETATM   21  O   UNL     1     -42.903 -44.550  11.594  1.00  0.00    -0.386 OA
HETATM   22  H   UNL     1     -42.958 -43.810  10.964  1.00  0.00     0.210 HD
ENDBRANCH  20  21
BRANCH  20  23
HETATM   23  C   UNL     1     -40.572 -43.690  11.739  1.00  0.00     0.413 C 
HETATM   24  F   UNL     1     -40.104 -43.399  10.504  1.00  0.00    -0.168 F 
HETATM   25  F   UNL     1     -41.236 -42.592  12.177  1.00  0.00    -0.168 F 
HETATM   26  F   UNL     1     -39.504 -43.851  12.550  1.00  0.00    -0.168 F 
ENDBRANCH  20  23
ENDBRANCH   1  20
TORSDOF 6
ENDMDL
MODEL 3
REMARK VINA RESULT:      -6.5      2.287      2.740
REMARK  6 active torsions:
REMARK  status: ('A' for Active; 'I' for Inactive)
REMARK    1  A    between atoms: O_1  and  C_2 
REMARK    2  A    between atoms: C_2  and  C_3 
REMARK    3  A    between atoms: C_2  and  C_21 
REMARK       I    between atoms: N_6  and  C_9 
REMARK       I    between atoms: C_9  and  N_11 
REMARK    4  A    between atoms: N_11  and  C_12 
REMARK    5  A    between atoms: C_12  and  C_13 
REMARK    6  A    between atoms: C_13  and  C_14 
ROOT
HETATM    1  C   UNL     1     -43.930 -53.746  14.762  1.00  0.00     0.026 C 
HETATM    2  C   UNL     1     -44.014 -52.246  14.415  1.00  0.00     0.027 C 
HETATM    3  C   UNL     1     -43.493 -51.892  13.023  1.00  0.00     0.128 C 
HETATM    4  N   UNL     1     -42.150 -52.425  12.804  1.00  0.00    -0.334 N 
HETATM    5  C   UNL     1     -41.977 -53.847  13.073  1.00  0.00     0.128 C 
HETATM    6  C   UNL     1     -42.507 -54.249  14.450  1.00  0.00     0.027 C 
HETATM    7  C   UNL     1     -41.100 -51.743  12.210  1.00  0.00     0.318 C 
HETATM    8  O   UNL     1     -39.973 -52.219  12.095  1.00  0.00    -0.247 OA
HETATM    9  N   UNL     1     -41.396 -50.479  11.759  1.00  0.00    -0.343 N 
HETATM   10  H   UNL     1     -42.317 -50.400  11.358  1.00  0.00     0.164 HD
ENDROOT
BRANCH   9  11
HETATM   11  C   UNL     1     -40.357 -49.699  11.105  1.00  0.00     0.130 C 
BRANCH  11  12
HETATM   12  C   UNL     1     -39.554 -48.870  12.104  1.00  0.00     0.076 C 
BRANCH  12  13
HETATM   13  C   UNL     1     -39.732 -47.384  11.915  1.00  0.00     0.010 A 
HETATM   14  C   UNL     1     -39.585 -46.502  12.984  1.00  0.00     0.025 A 
HETATM   15  C   UNL     1     -39.797 -45.142  12.770  1.00  0.00     0.003 A 
HETATM   16  C   UNL     1     -40.159 -44.700  11.504  1.00  0.00     0.017 A 
HETATM   17  C   UNL     1     -40.286 -45.640  10.498  1.00  0.00     0.088 A 
HETATM   18  N   UNL     1     -40.079 -46.965  10.674  1.00  0.00    -0.369 N 
ATOM     19  HN  UNL     1     -40.180 -47.624   9.902  1.00  0.00     0.165 HD
ENDBRANCH  12  13
ENDBRANCH  11  12
ENDBRANCH   9  11
BRANCH   1  20
HETATM   20  C   UNL     1     -45.036 -54.616  14.107  1.00  0.00     0.229 C 
BRANCH  20  21
HETATM   21  O   UNL     1     -45.088 -54.392  12.695  1.00  0.00    -0.386 OA
HETATM   22  H   UNL     1     -44.642 -55.136  12.254  1.00  0.00     0.210 HD
ENDBRANCH  20  21
BRANCH  20  23
HETATM   23  C   UNL     1     -46.422 -54.457  14.795  1.00  0.00     0.413 C 
HETATM   24  F   UNL     1     -47.076 -53.353  14.369  1.00  0.00    -0.168 F 
HETATM   25  F   UNL     1     -47.210 -55.521  14.498  1.00  0.00    -0.168 F 
HETATM   26  F   UNL     1     -46.346 -54.390  16.141  1.00  0.00    -0.168 F 
ENDBRANCH  20  23
ENDBRANCH   1  20
TORSDOF 6
ENDMDL
MODEL 4
REMARK VINA RESULT:      -6.5      5.156      8.086
REMARK  6 active torsions:
REMARK  status: ('A' for Active; 'I' for Inactive)
REMARK    1  A    between atoms: O_1  and  C_2 
REMARK    2  A    between atoms: C_2  and  C_3 
REMARK    3  A    between atoms: C_2  and  C_21 
REMARK       I    between atoms: N_6  and  C_9 
REMARK       I    between atoms: C_9  and  N_11 
REMARK    4  A    between atoms: N_11  and  C_12 
REMARK    5  A    between atoms: C_12  and  C_13 
REMARK    6  A    between atoms: C_13  and  C_14 
ROOT
HETATM    1  C   UNL     1     -40.948 -46.633  10.717  1.00  0.00     0.026 C 
HETATM    2  C   UNL     1     -42.049 -47.616  10.271  1.00  0.00     0.027 C 
HETATM    3  C   UNL     1     -42.586 -48.509  11.389  1.00  0.00     0.128 C 
HETATM    4  N   UNL     1     -41.503 -49.190  12.095  1.00  0.00    -0.334 N 
HETATM    5  C   UNL     1     -40.428 -48.338  12.587  1.00  0.00     0.128 C 
HETATM    6  C   UNL     1     -39.875 -47.411  11.503  1.00  0.00     0.027 C 
HETATM    7  C   UNL     1     -41.503 -50.523  12.476  1.00  0.00     0.318 C 
HETATM    8  O   UNL     1     -40.544 -51.062  13.024  1.00  0.00    -0.247 OA
HETATM    9  N   UNL     1     -42.653 -51.218  12.192  1.00  0.00    -0.343 N 
HETATM   10  H   UNL     1     -43.494 -50.676  12.316  1.00  0.00     0.164 HD
ENDROOT
BRANCH   9  11
HETATM   11  C   UNL     1     -42.747 -52.618  12.575  1.00  0.00     0.130 C 
BRANCH  11  12
HETATM   12  C   UNL     1     -44.141 -53.187  12.321  1.00  0.00     0.076 C 
BRANCH  12  13
HETATM   13  C   UNL     1     -45.133 -52.820  13.396  1.00  0.00     0.010 A 
HETATM   14  C   UNL     1     -45.953 -51.701  13.265  1.00  0.00     0.025 A 
HETATM   15  C   UNL     1     -46.826 -51.380  14.301  1.00  0.00     0.003 A 
HETATM   16  C   UNL     1     -46.851 -52.172  15.442  1.00  0.00     0.017 A 
HETATM   17  C   UNL     1     -46.004 -53.264  15.494  1.00  0.00     0.088 A 
HETATM   18  N   UNL     1     -45.151 -53.605  14.501  1.00  0.00    -0.369 N 
ATOM     19  HN  UNL     1     -44.545 -54.422  14.580  1.00  0.00     0.165 HD
ENDBRANCH  12  13
ENDBRANCH  11  12
ENDBRANCH   9  11
BRANCH   1  20
HETATM   20  C   UNL     1     -41.475 -45.389  11.481  1.00  0.00     0.229 C 
BRANCH  20  21
HETATM   21  O   UNL     1     -42.847 -45.139  11.159  1.00  0.00    -0.386 OA
HETATM   22  H   UNL     1     -42.908 -44.251  10.767  1.00  0.00     0.210 HD
ENDBRANCH  20  21
BRANCH  20  23
HETATM   23  C   UNL     1     -40.574 -44.135  11.297  1.00  0.00     0.413 C 
HETATM   24  F   UNL     1     -39.750 -43.942  12.352  1.00  0.00    -0.168 F 
HETATM   25  F   UNL     1     -39.786 -44.288  10.204  1.00  0.00    -0.168 F 
HETATM   26  F   UNL     1     -41.276 -42.995  11.116  1.00  0.00    -0.168 F 
ENDBRANCH  20  23
ENDBRANCH   1  20
TORSDOF 6
ENDMDL
MODEL 5
REMARK VINA RESULT:      -6.4      3.179      4.826
REMARK  6 active torsions:
REMARK  status: ('A' for Active; 'I' for Inactive)
REMARK    1  A    between atoms: O_1  and  C_2 
REMARK    2  A    between atoms: C_2  and  C_3 
REMARK    3  A    between atoms: C_2  and  C_21 
REMARK       I    between atoms: N_6  and  C_9 
REMARK       I    between atoms: C_9  and  N_11 
REMARK    4  A    between atoms: N_11  and  C_12 
REMARK    5  A    between atoms: C_12  and  C_13 
REMARK    6  A    between atoms: C_13  and  C_14 
ROOT
HETATM    1  C   UNL     1     -43.924 -52.797  13.999  1.00  0.00     0.026 C 
HETATM    2  C   UNL     1     -43.495 -51.610  13.112  1.00  0.00     0.027 C 
HETATM    3  C   UNL     1     -42.249 -51.874  12.269  1.00  0.00     0.128 C 
HETATM    4  N   UNL     1     -41.143 -52.367  13.088  1.00  0.00    -0.334 N 
HETATM    5  C   UNL     1     -41.442 -53.513  13.938  1.00  0.00     0.128 C 
HETATM    6  C   UNL     1     -42.697 -53.299  14.785  1.00  0.00     0.027 C 
HETATM    7  C   UNL     1     -39.824 -51.954  12.992  1.00  0.00     0.318 C 
HETATM    8  O   UNL     1     -38.940 -52.363  13.741  1.00  0.00    -0.247 OA
HETATM    9  N   UNL     1     -39.562 -51.038  12.002  1.00  0.00    -0.343 N 
HETATM   10  H   UNL     1     -40.083 -51.199  11.155  1.00  0.00     0.164 HD
ENDROOT
BRANCH   9  11
HETATM   11  C   UNL     1     -38.198 -50.564  11.819  1.00  0.00     0.130 C 
BRANCH  11  12
HETATM   12  C   UNL     1     -38.051 -49.092  12.195  1.00  0.00     0.076 C 
BRANCH  12  13
HETATM   13  C   UNL     1     -37.774 -48.882  13.662  1.00  0.00     0.010 A 
HETATM   14  C   UNL     1     -38.022 -47.653  14.272  1.00  0.00     0.025 A 
HETATM   15  C   UNL     1     -37.713 -47.495  15.621  1.00  0.00     0.003 A 
HETATM   16  C   UNL     1     -37.157 -48.557  16.322  1.00  0.00     0.017 A 
HETATM   17  C   UNL     1     -36.941 -49.743  15.643  1.00  0.00     0.088 A 
HETATM   18  N   UNL     1     -37.238 -49.928  14.337  1.00  0.00    -0.369 N 
ATOM     19  HN  UNL     1     -37.064 -50.822  13.876  1.00  0.00     0.165 HD
ENDBRANCH  12  13
ENDBRANCH  11  12
ENDBRANCH   9  11
BRANCH   1  20
HETATM   20  C   UNL     1     -44.659 -53.930  13.236  1.00  0.00     0.229 C 
BRANCH  20  21
HETATM   21  O   UNL     1     -45.741 -53.403  12.462  1.00  0.00    -0.386 OA
HETATM   22  H   UNL     1     -46.287 -52.848  13.045  1.00  0.00     0.210 HD
ENDBRANCH  20  21
BRANCH  20  23
HETATM   23  C   UNL     1     -45.094 -55.104  14.160  1.00  0.00     0.413 C 
HETATM   24  F   UNL     1     -45.729 -54.666  15.271  1.00  0.00    -0.168 F 
HETATM   25  F   UNL     1     -45.962 -55.912  13.502  1.00  0.00    -0.168 F 
HETATM   26  F   UNL     1     -44.063 -55.879  14.559  1.00  0.00    -0.168 F 
ENDBRANCH  20  23
ENDBRANCH   1  20
TORSDOF 6
ENDMDL
MODEL 6
REMARK VINA RESULT:      -6.4      4.889      7.686
REMARK  6 active torsions:
REMARK  status: ('A' for Active; 'I' for Inactive)
REMARK    1  A    between atoms: O_1  and  C_2 
REMARK    2  A    between atoms: C_2  and  C_3 
REMARK    3  A    between atoms: C_2  and  C_21 
REMARK       I    between atoms: N_6  and  C_9 
REMARK       I    between atoms: C_9  and  N_11 
REMARK    4  A    between atoms: N_11  and  C_12 
REMARK    5  A    between atoms: C_12  and  C_13 
REMARK    6  A    between atoms: C_13  and  C_14 
ROOT
HETATM    1  C   UNL     1     -39.157 -51.151  13.529  1.00  0.00     0.026 C 
HETATM    2  C   UNL     1     -39.654 -52.582  13.814  1.00  0.00     0.027 C 
HETATM    3  C   UNL     1     -40.780 -53.051  12.894  1.00  0.00     0.128 C 
HETATM    4  N   UNL     1     -41.881 -52.090  12.862  1.00  0.00    -0.334 N 
HETATM    5  C   UNL     1     -41.513 -50.710  12.566  1.00  0.00     0.128 C 
HETATM    6  C   UNL     1     -40.373 -50.207  13.452  1.00  0.00     0.027 C 
HETATM    7  C   UNL     1     -43.229 -52.407  12.917  1.00  0.00     0.318 C 
HETATM    8  O   UNL     1     -44.115 -51.556  12.940  1.00  0.00    -0.247 OA
HETATM    9  N   UNL     1     -43.518 -53.749  12.957  1.00  0.00    -0.343 N 
HETATM   10  H   UNL     1     -42.910 -54.310  12.382  1.00  0.00     0.164 HD
ENDROOT
BRANCH   9  11
HETATM   11  C   UNL     1     -44.910 -54.172  12.996  1.00  0.00     0.130 C 
BRANCH  11  12
HETATM   12  C   UNL     1     -45.302 -54.715  14.368  1.00  0.00     0.076 C 
BRANCH  12  13
HETATM   13  C   UNL     1     -45.944 -53.676  15.252  1.00  0.00     0.010 A 
HETATM   14  C   UNL     1     -46.734 -52.662  14.712  1.00  0.00     0.025 A 
HETATM   15  C   UNL     1     -47.274 -51.703  15.565  1.00  0.00     0.003 A 
HETATM   16  C   UNL     1     -47.007 -51.771  16.926  1.00  0.00     0.017 A 
HETATM   17  C   UNL     1     -46.213 -52.808  17.381  1.00  0.00     0.088 A 
HETATM   18  N   UNL     1     -45.681 -53.758  16.579  1.00  0.00    -0.369 N 
ATOM     19  HN  UNL     1     -45.102 -54.508  16.959  1.00  0.00     0.165 HD
ENDBRANCH  12  13
ENDBRANCH  11  12
ENDBRANCH   9  11
BRANCH   1  20
HETATM   20  C   UNL     1     -38.221 -51.034  12.296  1.00  0.00     0.229 C 
BRANCH  20  21
HETATM   21  O   UNL     1     -37.087 -51.895  12.437  1.00  0.00    -0.386 OA
HETATM   22  H   UNL     1     -37.023 -52.444  11.636  1.00  0.00     0.210 HD
ENDBRANCH  20  21
BRANCH  20  23
HETATM   23  C   UNL     1     -37.827 -49.565  11.968  1.00  0.00     0.413 C 
HETATM   24  F   UNL     1     -36.833 -49.498  11.055  1.00  0.00    -0.168 F 
HETATM   25  F   UNL     1     -38.890 -48.907  11.442  1.00  0.00    -0.168 F 
HETATM   26  F   UNL     1     -37.431 -48.864  13.052  1.00  0.00    -0.168 F 
ENDBRANCH  20  23
ENDBRANCH   1  20
TORSDOF 6
ENDMDL
MODEL 7
REMARK VINA RESULT:      -6.4      2.660      3.433
REMARK  6 active torsions:
REMARK  status: ('A' for Active; 'I' for Inactive)
REMARK    1  A    between atoms: O_1  and  C_2 
REMARK    2  A    between atoms: C_2  and  C_3 
REMARK    3  A    between atoms: C_2  and  C_21 
REMARK       I    between atoms: N_6  and  C_9 
REMARK       I    between atoms: C_9  and  N_11 
REMARK    4  A    between atoms: N_11  and  C_12 
REMARK    5  A    between atoms: C_12  and  C_13 
REMARK    6  A    between atoms: C_13  and  C_14 
ROOT
HETATM    1  C   UNL     1     -43.516 -54.342  13.559  1.00  0.00     0.026 C 
HETATM    2  C   UNL     1     -42.003 -54.434  13.843  1.00  0.00     0.027 C 
HETATM    3  C   UNL     1     -41.328 -53.087  14.095  1.00  0.00     0.128 C 
HETATM    4  N   UNL     1     -41.623 -52.132  13.028  1.00  0.00    -0.334 N 
HETATM    5  C   UNL     1     -43.033 -51.950  12.709  1.00  0.00     0.128 C 
HETATM    6  C   UNL     1     -43.753 -53.278  12.469  1.00  0.00     0.027 C 
HETATM    7  C   UNL     1     -40.705 -51.281  12.432  1.00  0.00     0.318 C 
HETATM    8  O   UNL     1     -40.994 -50.533  11.502  1.00  0.00    -0.247 OA
HETATM    9  N   UNL     1     -39.432 -51.333  12.946  1.00  0.00    -0.343 N 
HETATM   10  H   UNL     1     -39.405 -51.455  13.946  1.00  0.00     0.164 HD
ENDROOT
BRANCH   9  11
HETATM   11  C   UNL     1     -38.410 -50.458  12.392  1.00  0.00     0.130 C 
BRANCH  11  12
HETATM   12  C   UNL     1     -38.146 -49.251  13.289  1.00  0.00     0.076 C 
BRANCH  12  13
HETATM   13  C   UNL     1     -38.892 -48.016  12.851  1.00  0.00     0.010 A 
HETATM   14  C   UNL     1     -39.078 -46.943  13.720  1.00  0.00     0.025 A 
HETATM   15  C   UNL     1     -39.807 -45.839  13.283  1.00  0.00     0.003 A 
HETATM   16  C   UNL     1     -40.339 -45.839  12.000  1.00  0.00     0.017 A 
HETATM   17  C   UNL     1     -40.111 -46.944  11.201  1.00  0.00     0.088 A 
HETATM   18  N   UNL     1     -39.401 -48.025  11.595  1.00  0.00    -0.369 N 
ATOM     19  HN  UNL     1     -39.254 -48.818  10.970  1.00  0.00     0.165 HD
ENDBRANCH  12  13
ENDBRANCH  11  12
ENDBRANCH   9  11
BRANCH   1  20
HETATM   20  C   UNL     1     -44.390 -54.121  14.822  1.00  0.00     0.229 C 
BRANCH  20  21
HETATM   21  O   UNL     1     -43.834 -54.804  15.950  1.00  0.00    -0.386 OA
HETATM   22  H   UNL     1     -44.309 -54.509  16.746  1.00  0.00     0.210 HD
ENDBRANCH  20  21
BRANCH  20  23
HETATM   23  C   UNL     1     -45.890 -54.459  14.591  1.00  0.00     0.413 C 
HETATM   24  F   UNL     1     -46.546 -53.457  13.962  1.00  0.00    -0.168 F 
HETATM   25  F   UNL     1     -46.001 -55.558  13.803  1.00  0.00    -0.168 F 
HETATM   26  F   UNL     1     -46.559 -54.728  15.733  1.00  0.00    -0.168 F 
ENDBRANCH  20  23
ENDBRANCH   1  20
TORSDOF 6
ENDMDL
MODEL 8
REMARK VINA RESULT:      -6.3      5.328      8.434
REMARK  6 active torsions:
REMARK  status: ('A' for Active; 'I' for Inactive)
REMARK    1  A    between atoms: O_1  and  C_2 
REMARK    2  A    between atoms: C_2  and  C_3 
REMARK    3  A    between atoms: C_2  and  C_21 
REMARK       I    between atoms: N_6  and  C_9 
REMARK       I    between atoms: C_9  and  N_11 
REMARK    4  A    between atoms: N_11  and  C_12 
REMARK    5  A    between atoms: C_12  and  C_13 
REMARK    6  A    between atoms: C_13  and  C_14 
ROOT
HETATM    1  C   UNL     1     -40.764 -47.063  10.895  1.00  0.00     0.026 C 
HETATM    2  C   UNL     1     -41.819 -48.014  10.296  1.00  0.00     0.027 C 
HETATM    3  C   UNL     1     -42.963 -48.363  11.246  1.00  0.00     0.128 C 
HETATM    4  N   UNL     1     -42.462 -48.848  12.531  1.00  0.00    -0.334 N 
HETATM    5  C   UNL     1     -41.482 -47.998  13.195  1.00  0.00     0.128 C 
HETATM    6  C   UNL     1     -40.328 -47.607  12.270  1.00  0.00     0.027 C 
HETATM    7  C   UNL     1     -42.961 -49.935  13.231  1.00  0.00     0.318 C 
HETATM    8  O   UNL     1     -42.470 -50.334  14.284  1.00  0.00    -0.247 OA
HETATM    9  N   UNL     1     -44.048 -50.555  12.663  1.00  0.00    -0.343 N 
HETATM   10  H   UNL     1     -44.696 -49.916  12.230  1.00  0.00     0.164 HD
ENDROOT
BRANCH   9  11
HETATM   11  C   UNL     1     -44.648 -51.693  13.342  1.00  0.00     0.130 C 
BRANCH  11  12
HETATM   12  C   UNL     1     -46.102 -51.427  13.725  1.00  0.00     0.076 C 
BRANCH  12  13
HETATM   13  C   UNL     1     -46.294 -51.220  15.206  1.00  0.00     0.010 A 
HETATM   14  C   UNL     1     -47.523 -51.474  15.813  1.00  0.00     0.025 A 
HETATM   15  C   UNL     1     -47.664 -51.232  17.177  1.00  0.00     0.003 A 
HETATM   16  C   UNL     1     -46.585 -50.734  17.896  1.00  0.00     0.017 A 
HETATM   17  C   UNL     1     -45.401 -50.508  17.218  1.00  0.00     0.088 A 
HETATM   18  N   UNL     1     -45.232 -50.741  15.897  1.00  0.00    -0.369 N 
ATOM     19  HN  UNL     1     -44.338 -50.562  15.438  1.00  0.00     0.165 HD
ENDBRANCH  12  13
ENDBRANCH  11  12
ENDBRANCH   9  11
BRANCH   1  20
HETATM   20  C   UNL     1     -41.200 -45.575  10.944  1.00  0.00     0.229 C 
BRANCH  20  21
HETATM   21  O   UNL     1     -42.205 -45.308   9.961  1.00  0.00    -0.386 OA
HETATM   22  H   UNL     1     -43.022 -45.057  10.425  1.00  0.00     0.210 HD
ENDBRANCH  20  21
BRANCH  20  23
HETATM   23  C   UNL     1     -40.002 -44.586  10.865  1.00  0.00     0.413 C 
HETATM   24  F   UNL     1     -39.292 -44.555  12.015  1.00  0.00    -0.168 F 
HETATM   25  F   UNL     1     -39.147 -44.973   9.885  1.00  0.00    -0.168 F 
HETATM   26  F   UNL     1     -40.373 -43.319  10.581  1.00  0.00    -0.168 F 
ENDBRANCH  20  23
ENDBRANCH   1  20
TORSDOF 6
ENDMDL
MODEL 9
REMARK VINA RESULT:      -6.0      5.133      8.351
REMARK  6 active torsions:
REMARK  status: ('A' for Active; 'I' for Inactive)
REMARK    1  A    between atoms: O_1  and  C_2 
REMARK    2  A    between atoms: C_2  and  C_3 
REMARK    3  A    between atoms: C_2  and  C_21 
REMARK       I    between atoms: N_6  and  C_9 
REMARK       I    between atoms: C_9  and  N_11 
REMARK    4  A    between atoms: N_11  and  C_12 
REMARK    5  A    between atoms: C_12  and  C_13 
REMARK    6  A    between atoms: C_13  and  C_14 
ROOT
HETATM    1  C   UNL     1     -40.569 -46.468  12.605  1.00  0.00     0.026 C 
HETATM    2  C   UNL     1     -39.531 -47.607  12.582  1.00  0.00     0.027 C 
HETATM    3  C   UNL     1     -39.895 -48.770  11.660  1.00  0.00     0.128 C 
HETATM    4  N   UNL     1     -41.242 -49.268  11.933  1.00  0.00    -0.334 N 
HETATM    5  C   UNL     1     -42.301 -48.267  11.943  1.00  0.00     0.128 C 
HETATM    6  C   UNL     1     -41.967 -47.073  12.838  1.00  0.00     0.027 C 
HETATM    7  C   UNL     1     -41.607 -50.603  12.009  1.00  0.00     0.318 C 
HETATM    8  O   UNL     1     -42.745 -50.969  12.293  1.00  0.00    -0.247 OA
HETATM    9  N   UNL     1     -40.603 -51.505  11.753  1.00  0.00    -0.343 N 
HETATM   10  H   UNL     1     -39.975 -51.214  11.021  1.00  0.00     0.164 HD
ENDROOT
BRANCH   9  11
HETATM   11  C   UNL     1     -40.904 -52.928  11.792  1.00  0.00     0.130 C 
BRANCH  11  12
HETATM   12  C   UNL     1     -40.982 -53.455  13.223  1.00  0.00     0.076 C 
BRANCH  12  13
HETATM   13  C   UNL     1     -42.344 -53.995  13.580  1.00  0.00     0.010 A 
HETATM   14  C   UNL     1     -42.548 -54.704  14.763  1.00  0.00     0.025 A 
HETATM   15  C   UNL     1     -43.815 -55.216  15.031  1.00  0.00     0.003 A 
HETATM   16  C   UNL     1     -44.838 -55.019  14.113  1.00  0.00     0.017 A 
HETATM   17  C   UNL     1     -44.553 -54.306  12.963  1.00  0.00     0.088 A 
HETATM   18  N   UNL     1     -43.335 -53.790  12.679  1.00  0.00    -0.369 N 
ATOM     19  HN  UNL     1     -43.170 -53.267  11.819  1.00  0.00     0.165 HD
ENDBRANCH  12  13
ENDBRANCH  11  12
ENDBRANCH   9  11
BRANCH   1  20
HETATM   20  C   UNL     1     -40.514 -45.529  11.370  1.00  0.00     0.229 C 
BRANCH  20  21
HETATM   21  O   UNL     1     -39.720 -46.106  10.329  1.00  0.00    -0.386 OA
HETATM   22  H   UNL     1     -38.833 -45.709  10.371  1.00  0.00     0.210 HD
ENDBRANCH  20  21
BRANCH  20  23
HETATM   23  C   UNL     1     -40.080 -44.079  11.727  1.00  0.00     0.413 C 
HETATM   24  F   UNL     1     -40.015 -43.285  10.634  1.00  0.00    -0.168 F 
HETATM   25  F   UNL     1     -40.986 -43.518  12.567  1.00  0.00    -0.168 F 
HETATM   26  F   UNL     1     -38.882 -44.017  12.346  1.00  0.00    -0.168 F 
ENDBRANCH  20  23
ENDBRANCH   1  20
TORSDOF 6
ENDMDL
