MODEL 1
REMARK VINA RESULT:      -6.2      0.000      0.000
REMARK  2 active torsions:
REMARK  status: ('A' for Active; 'I' for Inactive)
REMARK       I    between atoms: C_2  and  N_4 
REMARK    1  A    between atoms: C_7  and  N_10 
REMARK       I    between atoms: N_10  and  C_11 
REMARK       I    between atoms: C_11  and  N_13 
REMARK    2  A    between atoms: N_13  and  C_14 
ROOT
HETATM    1  N   UNL     1     -43.666 -50.235  12.567  1.00  0.00    -0.338 N 
HETATM    2  C   UNL     1     -43.078 -48.996  12.412  1.00  0.00     0.321 C 
HETATM    3  O   UNL     1     -43.098 -48.142  13.289  1.00  0.00    -0.247 OA
HETATM    4  N   UNL     1     -42.433 -48.895  11.199  1.00  0.00    -0.306 N 
HETATM    5  H   UNL     1     -44.045 -50.636  11.722  1.00  0.00     0.164 HD
HETATM    6  H   UNL     1     -42.298 -49.738  10.664  1.00  0.00     0.171 HD
ENDROOT
BRANCH   1   7
HETATM    7  C   UNL     1     -44.295 -50.590  13.840  1.00  0.00     0.089 C 
HETATM    8  C   UNL     1     -43.281 -51.225  14.792  1.00  0.00     0.045 C 
HETATM    9  C   UNL     1     -42.917 -52.648  14.386  1.00  0.00     0.127 C 
HETATM   10  N   UNL     1     -44.107 -53.470  14.166  1.00  0.00    -0.352 N 
HETATM   11  C   UNL     1     -44.187 -54.823  14.478  1.00  0.00     0.215 C 
HETATM   12  C   UNL     1     -45.114 -52.913  13.263  1.00  0.00     0.127 C 
HETATM   13  C   UNL     1     -43.033 -55.428  15.237  1.00  0.00     0.117 C 
HETATM   14  O   UNL     1     -45.146 -55.525  14.156  1.00  0.00    -0.274 OA
HETATM   15  C   UNL     1     -45.513 -51.499  13.660  1.00  0.00     0.045 C 
ENDBRANCH   1   7
BRANCH   4  16
HETATM   16  C   UNL     1     -41.686 -47.791  10.839  1.00  0.00     0.070 A 
HETATM   17  C   UNL     1     -40.329 -47.472  11.067  1.00  0.00     0.138 A 
HETATM   18  N   UNL     1     -39.979 -46.308  10.509  1.00  0.00    -0.310 N 
HETATM   19  N   UNL     1     -41.107 -45.895   9.912  1.00  0.00    -0.310 N 
ATOM     20  HN  UNL     1     -39.071 -45.846  10.531  1.00  0.00     0.186 HD
HETATM   21  C   UNL     1     -42.170 -46.728  10.115  1.00  0.00     0.138 A 
HETATM   22  H   UNL     1     -41.074 -45.034   9.376  1.00  0.00     0.186 HD
ENDBRANCH   4  16
TORSDOF 2
ENDMDL
MODEL 2
REMARK VINA RESULT:      -5.8      1.634      2.191
REMARK  2 active torsions:
REMARK  status: ('A' for Active; 'I' for Inactive)
REMARK       I    between atoms: C_2  and  N_4 
REMARK    1  A    between atoms: C_7  and  N_10 
REMARK       I    between atoms: N_10  and  C_11 
REMARK       I    between atoms: C_11  and  N_13 
REMARK    2  A    between atoms: N_13  and  C_14 
ROOT
HETATM    1  N   UNL     1     -42.989 -50.322  12.772  1.00  0.00    -0.338 N 
HETATM    2  C   UNL     1     -42.375 -49.502  11.845  1.00  0.00     0.321 C 
HETATM    3  O   UNL     1     -41.237 -49.700  11.441  1.00  0.00    -0.247 OA
HETATM    4  N   UNL     1     -43.226 -48.510  11.412  1.00  0.00    -0.306 N 
HETATM    5  H   UNL     1     -43.632 -49.855  13.394  1.00  0.00     0.164 HD
HETATM    6  H   UNL     1     -44.202 -48.588  11.649  1.00  0.00     0.171 HD
ENDROOT
BRANCH   1   7
HETATM    7  C   UNL     1     -42.296 -51.513  13.263  1.00  0.00     0.089 C 
HETATM    8  C   UNL     1     -42.678 -52.745  12.441  1.00  0.00     0.045 C 
HETATM    9  C   UNL     1     -44.088 -53.235  12.751  1.00  0.00     0.127 C 
HETATM   10  N   UNL     1     -44.300 -53.402  14.188  1.00  0.00    -0.352 N 
HETATM   11  C   UNL     1     -45.084 -54.406  14.748  1.00  0.00     0.215 C 
HETATM   12  C   UNL     1     -43.951 -52.255  15.027  1.00  0.00     0.127 C 
HETATM   13  C   UNL     1     -45.607 -55.473  13.821  1.00  0.00     0.117 C 
HETATM   14  O   UNL     1     -45.362 -54.443  15.947  1.00  0.00    -0.274 OA
HETATM   15  C   UNL     1     -42.538 -51.761  14.754  1.00  0.00     0.045 C 
ENDBRANCH   1   7
BRANCH   4  16
HETATM   16  C   UNL     1     -42.887 -47.616  10.416  1.00  0.00     0.070 A 
HETATM   17  C   UNL     1     -43.277 -47.543   9.060  1.00  0.00     0.138 A 
HETATM   18  N   UNL     1     -42.749 -46.484   8.436  1.00  0.00    -0.310 N 
HETATM   19  N   UNL     1     -42.038 -45.875   9.396  1.00  0.00    -0.310 N 
ATOM     20  HN  UNL     1     -42.861 -46.206   7.461  1.00  0.00     0.186 HD
HETATM   21  C   UNL     1     -42.054 -46.536  10.591  1.00  0.00     0.138 A 
HETATM   22  H   UNL     1     -41.571 -45.005   9.164  1.00  0.00     0.186 HD
ENDBRANCH   4  16
TORSDOF 2
ENDMDL
MODEL 3
REMARK VINA RESULT:      -5.7      2.627      3.241
REMARK  2 active torsions:
REMARK  status: ('A' for Active; 'I' for Inactive)
REMARK       I    between atoms: C_2  and  N_4 
REMARK    1  A    between atoms: C_7  and  N_10 
REMARK       I    between atoms: N_10  and  C_11 
REMARK       I    between atoms: C_11  and  N_13 
REMARK    2  A    between atoms: N_13  and  C_14 
ROOT
HETATM    1  N   UNL     1     -42.045 -49.503  11.916  1.00  0.00    -0.338 N 
HETATM    2  C   UNL     1     -42.851 -48.417  11.638  1.00  0.00     0.321 C 
HETATM    3  O   UNL     1     -43.206 -47.622  12.498  1.00  0.00    -0.247 OA
HETATM    4  N   UNL     1     -43.127 -48.329  10.292  1.00  0.00    -0.306 N 
HETATM    5  H   UNL     1     -42.219 -50.320  11.348  1.00  0.00     0.164 HD
HETATM    6  H   UNL     1     -42.596 -48.909   9.661  1.00  0.00     0.171 HD
ENDROOT
BRANCH   1   7
HETATM    7  C   UNL     1     -41.533 -49.704  13.272  1.00  0.00     0.089 C 
HETATM    8  C   UNL     1     -40.127 -50.301  13.242  1.00  0.00     0.045 C 
HETATM    9  C   UNL     1     -40.130 -51.774  12.849  1.00  0.00     0.127 C 
HETATM   10  N   UNL     1     -41.077 -52.547  13.651  1.00  0.00    -0.352 N 
HETATM   11  C   UNL     1     -40.861 -53.859  14.060  1.00  0.00     0.215 C 
HETATM   12  C   UNL     1     -42.441 -52.023  13.718  1.00  0.00     0.127 C 
HETATM   13  C   UNL     1     -39.501 -54.452  13.795  1.00  0.00     0.117 C 
HETATM   14  O   UNL     1     -41.729 -54.536  14.613  1.00  0.00    -0.274 OA
HETATM   15  C   UNL     1     -42.468 -50.559  14.132  1.00  0.00     0.045 C 
ENDBRANCH   1   7
BRANCH   4  16
HETATM   16  C   UNL     1     -43.834 -47.279   9.740  1.00  0.00     0.070 A 
HETATM   17  C   UNL     1     -45.171 -47.192   9.292  1.00  0.00     0.138 A 
HETATM   18  N   UNL     1     -45.482 -45.966   8.857  1.00  0.00    -0.310 N 
HETATM   19  N   UNL     1     -44.351 -45.270   9.043  1.00  0.00    -0.310 N 
ATOM     20  HN  UNL     1     -46.369 -45.639   8.474  1.00  0.00     0.186 HD
HETATM   21  C   UNL     1     -43.321 -46.021   9.533  1.00  0.00     0.138 A 
HETATM   22  H   UNL     1     -44.359 -44.280   8.820  1.00  0.00     0.186 HD
ENDBRANCH   4  16
TORSDOF 2
ENDMDL
MODEL 4
REMARK VINA RESULT:      -5.7      3.117      3.965
REMARK  2 active torsions:
REMARK  status: ('A' for Active; 'I' for Inactive)
REMARK       I    between atoms: C_2  and  N_4 
REMARK    1  A    between atoms: C_7  and  N_10 
REMARK       I    between atoms: N_10  and  C_11 
REMARK       I    between atoms: C_11  and  N_13 
REMARK    2  A    between atoms: N_13  and  C_14 
ROOT
HETATM    1  N   UNL     1     -41.362 -53.062  14.018  1.00  0.00    -0.338 N 
HETATM    2  C   UNL     1     -40.528 -52.574  13.030  1.00  0.00     0.321 C 
HETATM    3  O   UNL     1     -40.407 -53.118  11.941  1.00  0.00    -0.247 OA
HETATM    4  N   UNL     1     -39.932 -51.394  13.416  1.00  0.00    -0.306 N 
HETATM    5  H   UNL     1     -41.042 -52.904  14.962  1.00  0.00     0.164 HD
HETATM    6  H   UNL     1     -40.283 -50.934  14.241  1.00  0.00     0.171 HD
ENDROOT
BRANCH   1   7
HETATM    7  C   UNL     1     -42.187 -54.241  13.757  1.00  0.00     0.089 C 
HETATM    8  C   UNL     1     -43.453 -53.862  12.988  1.00  0.00     0.045 C 
HETATM    9  C   UNL     1     -44.470 -53.140  13.865  1.00  0.00     0.127 C 
HETATM   10  N   UNL     1     -44.735 -53.871  15.103  1.00  0.00    -0.352 N 
HETATM   11  C   UNL     1     -45.978 -53.924  15.725  1.00  0.00     0.215 C 
HETATM   12  C   UNL     1     -43.560 -54.261  15.883  1.00  0.00     0.127 C 
HETATM   13  C   UNL     1     -47.148 -53.327  14.985  1.00  0.00     0.117 C 
HETATM   14  O   UNL     1     -46.146 -54.426  16.837  1.00  0.00    -0.274 OA
HETATM   15  C   UNL     1     -42.538 -55.006  15.036  1.00  0.00     0.045 C 
ENDBRANCH   1   7
BRANCH   4  16
HETATM   16  C   UNL     1     -39.126 -50.653  12.574  1.00  0.00     0.070 A 
HETATM   17  C   UNL     1     -37.734 -50.702  12.337  1.00  0.00     0.138 A 
HETATM   18  N   UNL     1     -37.347 -49.829  11.400  1.00  0.00    -0.310 N 
HETATM   19  N   UNL     1     -38.492 -49.237  11.029  1.00  0.00    -0.310 N 
ATOM     20  HN  UNL     1     -36.405 -49.656  11.051  1.00  0.00     0.186 HD
HETATM   21  C   UNL     1     -39.582 -49.666  11.732  1.00  0.00     0.138 A 
HETATM   22  H   UNL     1     -38.454 -48.552  10.283  1.00  0.00     0.186 HD
ENDBRANCH   4  16
TORSDOF 2
ENDMDL
MODEL 5
REMARK VINA RESULT:      -5.6      3.249      7.044
REMARK  2 active torsions:
REMARK  status: ('A' for Active; 'I' for Inactive)
REMARK       I    between atoms: C_2  and  N_4 
REMARK    1  A    between atoms: C_7  and  N_10 
REMARK       I    between atoms: N_10  and  C_11 
REMARK       I    between atoms: C_11  and  N_13 
REMARK    2  A    between atoms: N_13  and  C_14 
ROOT
HETATM    1  N   UNL     1     -42.478 -51.166  13.019  1.00  0.00    -0.338 N 
HETATM    2  C   UNL     1     -43.352 -51.921  13.776  1.00  0.00     0.321 C 
HETATM    3  O   UNL     1     -43.316 -51.943  14.999  1.00  0.00    -0.247 OA
HETATM    4  N   UNL     1     -44.274 -52.565  12.983  1.00  0.00    -0.306 N 
HETATM    5  H   UNL     1     -42.232 -51.566  12.125  1.00  0.00     0.164 HD
HETATM    6  H   UNL     1     -44.340 -52.291  12.015  1.00  0.00     0.171 HD
ENDROOT
BRANCH   1   7
HETATM    7  C   UNL     1     -41.498 -50.304  13.680  1.00  0.00     0.089 C 
HETATM    8  C   UNL     1     -40.923 -49.280  12.702  1.00  0.00     0.045 C 
HETATM    9  C   UNL     1     -39.949 -49.907  11.711  1.00  0.00     0.127 C 
HETATM   10  N   UNL     1     -38.928 -50.706  12.387  1.00  0.00    -0.352 N 
HETATM   11  C   UNL     1     -37.607 -50.805  11.961  1.00  0.00     0.215 C 
HETATM   12  C   UNL     1     -39.418 -51.705  13.338  1.00  0.00     0.127 C 
HETATM   13  C   UNL     1     -37.175 -49.903  10.833  1.00  0.00     0.117 C 
HETATM   14  O   UNL     1     -36.803 -51.591  12.461  1.00  0.00    -0.274 OA
HETATM   15  C   UNL     1     -40.376 -51.099  14.354  1.00  0.00     0.045 C 
ENDBRANCH   1   7
BRANCH   4  16
HETATM   16  C   UNL     1     -45.317 -53.308  13.500  1.00  0.00     0.070 A 
HETATM   17  C   UNL     1     -45.436 -54.693  13.754  1.00  0.00     0.138 A 
HETATM   18  N   UNL     1     -46.613 -55.009  14.306  1.00  0.00    -0.310 N 
HETATM   19  N   UNL     1     -47.235 -53.826  14.419  1.00  0.00    -0.310 N 
ATOM     20  HN  UNL     1     -46.955 -55.931  14.577  1.00  0.00     0.186 HD
HETATM   21  C   UNL     1     -46.517 -52.780  13.913  1.00  0.00     0.138 A 
HETATM   22  H   UNL     1     -48.148 -53.809  14.860  1.00  0.00     0.186 HD
ENDBRANCH   4  16
TORSDOF 2
ENDMDL
MODEL 6
REMARK VINA RESULT:      -5.6      2.170      7.500
REMARK  2 active torsions:
REMARK  status: ('A' for Active; 'I' for Inactive)
REMARK       I    between atoms: C_2  and  N_4 
REMARK    1  A    between atoms: C_7  and  N_10 
REMARK       I    between atoms: N_10  and  C_11 
REMARK       I    between atoms: C_11  and  N_13 
REMARK    2  A    between atoms: N_13  and  C_14 
ROOT
HETATM    1  N   UNL     1     -43.038 -50.357  12.332  1.00  0.00    -0.338 N 
HETATM    2  C   UNL     1     -43.492 -51.422  13.086  1.00  0.00     0.321 C 
HETATM    3  O   UNL     1     -42.927 -51.798  14.104  1.00  0.00    -0.247 OA
HETATM    4  N   UNL     1     -44.666 -51.931  12.577  1.00  0.00    -0.306 N 
HETATM    5  H   UNL     1     -43.204 -50.436  11.340  1.00  0.00     0.164 HD
HETATM    6  H   UNL     1     -45.147 -51.397  11.871  1.00  0.00     0.171 HD
ENDROOT
BRANCH   1   7
HETATM    7  C   UNL     1     -41.871 -49.595  12.777  1.00  0.00     0.089 C 
HETATM    8  C   UNL     1     -42.296 -48.363  13.576  1.00  0.00     0.045 C 
HETATM    9  C   UNL     1     -42.879 -47.269  12.689  1.00  0.00     0.127 C 
HETATM   10  N   UNL     1     -42.000 -46.960  11.561  1.00  0.00    -0.352 N 
HETATM   11  C   UNL     1     -41.835 -45.686  11.029  1.00  0.00     0.215 C 
HETATM   12  C   UNL     1     -41.559 -48.101  10.759  1.00  0.00     0.127 C 
HETATM   13  C   UNL     1     -42.477 -44.539  11.768  1.00  0.00     0.117 C 
HETATM   14  O   UNL     1     -41.202 -45.473   9.995  1.00  0.00    -0.274 OA
HETATM   15  C   UNL     1     -40.951 -49.200  11.619  1.00  0.00     0.045 C 
ENDBRANCH   1   7
BRANCH   4  16
HETATM   16  C   UNL     1     -45.377 -52.939  13.199  1.00  0.00     0.070 A 
HETATM   17  C   UNL     1     -45.145 -54.330  13.276  1.00  0.00     0.138 A 
HETATM   18  N   UNL     1     -46.061 -54.958  14.021  1.00  0.00    -0.310 N 
HETATM   19  N   UNL     1     -46.865 -53.966  14.432  1.00  0.00    -0.310 N 
ATOM     20  HN  UNL     1     -46.131 -55.954  14.227  1.00  0.00     0.186 HD
HETATM   21  C   UNL     1     -46.522 -52.742  13.934  1.00  0.00     0.138 A 
HETATM   22  H   UNL     1     -47.626 -54.200  15.060  1.00  0.00     0.186 HD
ENDBRANCH   4  16
TORSDOF 2
ENDMDL
MODEL 7
REMARK VINA RESULT:      -5.2      3.961      6.031
REMARK  2 active torsions:
REMARK  status: ('A' for Active; 'I' for Inactive)
REMARK       I    between atoms: C_2  and  N_4 
REMARK    1  A    between atoms: C_7  and  N_10 
REMARK       I    between atoms: N_10  and  C_11 
REMARK       I    between atoms: C_11  and  N_13 
REMARK    2  A    between atoms: N_13  and  C_14 
ROOT
HETATM    1  N   UNL     1     -44.515 -53.066  15.889  1.00  0.00    -0.338 N 
HETATM    2  C   UNL     1     -44.018 -53.389  14.642  1.00  0.00     0.321 C 
HETATM    3  O   UNL     1     -44.670 -54.013  13.815  1.00  0.00    -0.247 OA
HETATM    4  N   UNL     1     -42.758 -52.867  14.453  1.00  0.00    -0.306 N 
HETATM    5  H   UNL     1     -43.828 -53.039  16.628  1.00  0.00     0.164 HD
HETATM    6  H   UNL     1     -42.424 -52.187  15.118  1.00  0.00     0.171 HD
ENDROOT
BRANCH   1   7
HETATM    7  C   UNL     1     -45.891 -53.420  16.240  1.00  0.00     0.089 C 
HETATM    8  C   UNL     1     -46.863 -52.321  15.811  1.00  0.00     0.045 C 
HETATM    9  C   UNL     1     -46.778 -51.089  16.705  1.00  0.00     0.127 C 
HETATM   10  N   UNL     1     -46.878 -51.438  18.121  1.00  0.00    -0.352 N 
HETATM   11  C   UNL     1     -47.512 -50.648  19.075  1.00  0.00     0.215 C 
HETATM   12  C   UNL     1     -45.971 -52.485  18.590  1.00  0.00     0.127 C 
HETATM   13  C   UNL     1     -48.277 -49.447  18.580  1.00  0.00     0.117 C 
HETATM   14  O   UNL     1     -47.462 -50.892  20.281  1.00  0.00    -0.274 OA
HETATM   15  C   UNL     1     -46.054 -53.737  17.729  1.00  0.00     0.045 C 
ENDBRANCH   1   7
BRANCH   4  16
HETATM   16  C   UNL     1     -42.079 -52.966  13.255  1.00  0.00     0.070 A 
HETATM   17  C   UNL     1     -42.042 -52.109  12.133  1.00  0.00     0.138 A 
HETATM   18  N   UNL     1     -41.216 -52.554  11.180  1.00  0.00    -0.310 N 
HETATM   19  N   UNL     1     -40.715 -53.684  11.701  1.00  0.00    -0.310 N 
ATOM     20  HN  UNL     1     -41.014 -52.133  10.273  1.00  0.00     0.186 HD
HETATM   21  C   UNL     1     -41.231 -53.997  12.926  1.00  0.00     0.138 A 
HETATM   22  H   UNL     1     -40.017 -54.187  11.165  1.00  0.00     0.186 HD
ENDBRANCH   4  16
TORSDOF 2
ENDMDL
MODEL 8
REMARK VINA RESULT:      -5.2      4.339      5.151
REMARK  2 active torsions:
REMARK  status: ('A' for Active; 'I' for Inactive)
REMARK       I    between atoms: C_2  and  N_4 
REMARK    1  A    between atoms: C_7  and  N_10 
REMARK       I    between atoms: N_10  and  C_11 
REMARK       I    between atoms: C_11  and  N_13 
REMARK    2  A    between atoms: N_13  and  C_14 
ROOT
HETATM    1  N   UNL     1     -40.128 -52.215  13.988  1.00  0.00    -0.338 N 
HETATM    2  C   UNL     1     -38.967 -51.467  13.992  1.00  0.00     0.321 C 
HETATM    3  O   UNL     1     -38.263 -51.337  12.999  1.00  0.00    -0.247 OA
HETATM    4  N   UNL     1     -38.766 -50.860  15.211  1.00  0.00    -0.306 N 
HETATM    5  H   UNL     1     -40.341 -52.677  14.860  1.00  0.00     0.164 HD
HETATM    6  H   UNL     1     -39.528 -50.862  15.872  1.00  0.00     0.171 HD
ENDROOT
BRANCH   1   7
HETATM    7  C   UNL     1     -40.588 -52.840  12.748  1.00  0.00     0.089 C 
HETATM    8  C   UNL     1     -41.609 -51.952  12.036  1.00  0.00     0.045 C 
HETATM    9  C   UNL     1     -42.965 -51.953  12.733  1.00  0.00     0.127 C 
HETATM   10  N   UNL     1     -43.445 -53.312  12.984  1.00  0.00    -0.352 N 
HETATM   11  C   UNL     1     -44.783 -53.689  12.922  1.00  0.00     0.215 C 
HETATM   12  C   UNL     1     -42.510 -54.209  13.663  1.00  0.00     0.127 C 
HETATM   13  C   UNL     1     -45.766 -52.669  12.407  1.00  0.00     0.117 C 
HETATM   14  O   UNL     1     -45.178 -54.801  13.273  1.00  0.00    -0.274 OA
HETATM   15  C   UNL     1     -41.154 -54.245  12.972  1.00  0.00     0.045 C 
ENDBRANCH   1   7
BRANCH   4  16
HETATM   16  C   UNL     1     -37.728 -49.980  15.447  1.00  0.00     0.070 A 
HETATM   17  C   UNL     1     -37.566 -48.619  15.106  1.00  0.00     0.138 A 
HETATM   18  N   UNL     1     -36.415 -48.114  15.562  1.00  0.00    -0.310 N 
HETATM   19  N   UNL     1     -35.852 -49.147  16.207  1.00  0.00    -0.310 N 
ATOM     20  HN  UNL     1     -36.051 -47.168  15.447  1.00  0.00     0.186 HD
HETATM   21  C   UNL     1     -36.580 -50.300  16.133  1.00  0.00     0.138 A 
HETATM   22  H   UNL     1     -34.970 -48.988  16.682  1.00  0.00     0.186 HD
ENDBRANCH   4  16
TORSDOF 2
ENDMDL
MODEL 9
REMARK VINA RESULT:      -5.2      3.223      4.009
REMARK  2 active torsions:
REMARK  status: ('A' for Active; 'I' for Inactive)
REMARK       I    between atoms: C_2  and  N_4 
REMARK    1  A    between atoms: C_7  and  N_10 
REMARK       I    between atoms: N_10  and  C_11 
REMARK       I    between atoms: C_11  and  N_13 
REMARK    2  A    between atoms: N_13  and  C_14 
ROOT
HETATM    1  N   UNL     1     -44.337 -51.436  14.425  1.00  0.00    -0.338 N 
HETATM    2  C   UNL     1     -43.553 -51.419  13.288  1.00  0.00     0.321 C 
HETATM    3  O   UNL     1     -43.664 -52.252  12.399  1.00  0.00    -0.247 OA
HETATM    4  N   UNL     1     -42.711 -50.330  13.277  1.00  0.00    -0.306 N 
HETATM    5  H   UNL     1     -43.884 -51.098  15.261  1.00  0.00     0.164 HD
HETATM    6  H   UNL     1     -42.872 -49.600  13.953  1.00  0.00     0.171 HD
ENDROOT
BRANCH   1   7
HETATM    7  C   UNL     1     -45.388 -52.444  14.571  1.00  0.00     0.089 C 
HETATM    8  C   UNL     1     -46.752 -51.785  14.776  1.00  0.00     0.045 C 
HETATM    9  C   UNL     1     -46.904 -51.186  16.170  1.00  0.00     0.127 C 
HETATM   10  N   UNL     1     -46.557 -52.149  17.214  1.00  0.00    -0.352 N 
HETATM   11  C   UNL     1     -47.196 -52.225  18.447  1.00  0.00     0.215 C 
HETATM   12  C   UNL     1     -45.262 -52.814  17.071  1.00  0.00     0.127 C 
HETATM   13  C   UNL     1     -48.422 -51.369  18.644  1.00  0.00     0.117 C 
HETATM   14  O   UNL     1     -46.797 -52.947  19.361  1.00  0.00    -0.274 OA
HETATM   15  C   UNL     1     -45.094 -53.441  15.694  1.00  0.00     0.045 C 
ENDBRANCH   1   7
BRANCH   4  16
HETATM   16  C   UNL     1     -41.892 -50.029  12.207  1.00  0.00     0.070 A 
HETATM   17  C   UNL     1     -40.782 -50.716  11.663  1.00  0.00     0.138 A 
HETATM   18  N   UNL     1     -40.283 -50.102  10.585  1.00  0.00    -0.310 N 
HETATM   19  N   UNL     1     -41.083 -49.036  10.431  1.00  0.00    -0.310 N 
ATOM     20  HN  UNL     1     -39.484 -50.379  10.015  1.00  0.00     0.186 HD
HETATM   21  C   UNL     1     -42.038 -48.925  11.402  1.00  0.00     0.138 A 
HETATM   22  H   UNL     1     -40.922 -48.430   9.634  1.00  0.00     0.186 HD
ENDBRANCH   4  16
TORSDOF 2
ENDMDL
