MODEL 1
REMARK VINA RESULT:      -5.1      0.000      0.000
REMARK  7 active torsions:
REMARK  status: ('A' for Active; 'I' for Inactive)
REMARK    1  A    between atoms: O_1  and  C_2 
REMARK    2  A    between atoms: C_2  and  C_3 
REMARK    3  A    between atoms: C_3  and  O_4 
REMARK    4  A    between atoms: O_4  and  C_5 
REMARK    5  A    between atoms: C_5  and  C_6 
REMARK    6  A    between atoms: C_6  and  N_7 
REMARK    7  A    between atoms: N_7  and  C_8 
ROOT
HETATM    1  C   UNL     1     -42.033 -46.971  10.139  1.00  0.00     0.100 A 
HETATM    2  C   UNL     1     -42.883 -47.658  10.999  1.00  0.00     0.050 A 
HETATM    3  C   UNL     1     -44.239 -47.778  10.682  1.00  0.00     0.028 A 
HETATM    4  C   UNL     1     -44.718 -47.189   9.518  1.00  0.00     0.060 A 
HETATM    5  C   UNL     1     -46.095 -47.274   9.153  1.00  0.00     0.101 C 
HETATM    6  N   UNL     1     -47.215 -47.351   8.860  1.00  0.00    -0.191 NA
HETATM    7  C   UNL     1     -43.812 -46.511   8.723  1.00  0.00     0.112 A 
HETATM    8  N   UNL     1     -42.491 -46.397   9.009  1.00  0.00    -0.351 N 
ATOM      9  HN  UNL     1     -41.862 -45.891   8.387  1.00  0.00     0.166 HD
ENDROOT
BRANCH   1  10
HETATM   10  N   UNL     1     -40.694 -46.772  10.402  1.00  0.00    -0.374 N 
HETATM   11  H   UNL     1     -40.174 -47.595  10.113  1.00  0.00     0.161 HD
BRANCH  10  12
HETATM   12  C   UNL     1     -40.270 -46.140  11.645  1.00  0.00     0.147 C 
BRANCH  12  13
HETATM   13  C   UNL     1     -39.583 -47.148  12.577  1.00  0.00     0.187 C 
BRANCH  13  14
HETATM   14  O   UNL     1     -39.262 -48.337  11.850  1.00  0.00    -0.387 OA
BRANCH  14  15
HETATM   15  C   UNL     1     -39.663 -49.514  12.546  1.00  0.00     0.193 C 
BRANCH  15  16
HETATM   16  C   UNL     1     -40.472 -50.395  11.601  1.00  0.00     0.190 C 
BRANCH  16  17
HETATM   17  O   UNL     1     -40.296 -49.966  10.257  1.00  0.00    -0.399 OA
HETATM   18  H   UNL     1     -40.439 -49.004  10.251  1.00  0.00     0.209 HD
ENDBRANCH  16  17
ENDBRANCH  15  16
ENDBRANCH  14  15
ENDBRANCH  13  14
ENDBRANCH  12  13
ENDBRANCH  10  12
ENDBRANCH   1  10
TORSDOF 7
ENDMDL
MODEL 2
REMARK VINA RESULT:      -5.0      2.872      4.120
REMARK  7 active torsions:
REMARK  status: ('A' for Active; 'I' for Inactive)
REMARK    1  A    between atoms: O_1  and  C_2 
REMARK    2  A    between atoms: C_2  and  C_3 
REMARK    3  A    between atoms: C_3  and  O_4 
REMARK    4  A    between atoms: O_4  and  C_5 
REMARK    5  A    between atoms: C_5  and  C_6 
REMARK    6  A    between atoms: C_6  and  N_7 
REMARK    7  A    between atoms: N_7  and  C_8 
ROOT
HETATM    1  C   UNL     1     -39.795 -49.376  11.372  1.00  0.00     0.100 A 
HETATM    2  C   UNL     1     -39.335 -48.158  11.861  1.00  0.00     0.050 A 
HETATM    3  C   UNL     1     -40.053 -46.989  11.595  1.00  0.00     0.028 A 
HETATM    4  C   UNL     1     -41.207 -47.063  10.825  1.00  0.00     0.060 A 
HETATM    5  C   UNL     1     -41.973 -45.898  10.516  1.00  0.00     0.101 C 
HETATM    6  N   UNL     1     -42.592 -44.948  10.272  1.00  0.00    -0.191 NA
HETATM    7  C   UNL     1     -41.591 -48.309  10.363  1.00  0.00     0.112 A 
HETATM    8  N   UNL     1     -40.914 -49.454  10.624  1.00  0.00    -0.351 N 
ATOM      9  HN  UNL     1     -41.242 -50.351  10.265  1.00  0.00     0.166 HD
ENDROOT
BRANCH   1  10
HETATM   10  N   UNL     1     -39.122 -50.565  11.555  1.00  0.00    -0.374 N 
HETATM   11  H   UNL     1     -39.701 -51.328  11.216  1.00  0.00     0.161 HD
BRANCH  10  12
HETATM   12  C   UNL     1     -38.376 -50.811  12.783  1.00  0.00     0.147 C 
BRANCH  12  13
HETATM   13  C   UNL     1     -39.147 -51.747  13.725  1.00  0.00     0.187 C 
BRANCH  13  14
HETATM   14  O   UNL     1     -39.691 -52.841  12.982  1.00  0.00    -0.387 OA
BRANCH  14  15
HETATM   15  C   UNL     1     -41.038 -53.121  13.350  1.00  0.00     0.193 C 
BRANCH  15  16
HETATM   16  C   UNL     1     -41.970 -52.562  12.282  1.00  0.00     0.190 C 
BRANCH  16  17
HETATM   17  O   UNL     1     -41.317 -52.550  11.018  1.00  0.00    -0.399 OA
HETATM   18  H   UNL     1     -40.443 -52.147  11.161  1.00  0.00     0.209 HD
ENDBRANCH  16  17
ENDBRANCH  15  16
ENDBRANCH  14  15
ENDBRANCH  13  14
ENDBRANCH  12  13
ENDBRANCH  10  12
ENDBRANCH   1  10
TORSDOF 7
ENDMDL
MODEL 3
REMARK VINA RESULT:      -4.7      5.636      6.548
REMARK  7 active torsions:
REMARK  status: ('A' for Active; 'I' for Inactive)
REMARK    1  A    between atoms: O_1  and  C_2 
REMARK    2  A    between atoms: C_2  and  C_3 
REMARK    3  A    between atoms: C_3  and  O_4 
REMARK    4  A    between atoms: O_4  and  C_5 
REMARK    5  A    between atoms: C_5  and  C_6 
REMARK    6  A    between atoms: C_6  and  N_7 
REMARK    7  A    between atoms: N_7  and  C_8 
ROOT
HETATM    1  C   UNL     1     -44.504 -51.324  13.411  1.00  0.00     0.100 A 
HETATM    2  C   UNL     1     -45.832 -51.457  13.019  1.00  0.00     0.050 A 
HETATM    3  C   UNL     1     -46.842 -51.465  13.985  1.00  0.00     0.028 A 
HETATM    4  C   UNL     1     -46.496 -51.360  15.327  1.00  0.00     0.060 A 
HETATM    5  C   UNL     1     -47.487 -51.371  16.354  1.00  0.00     0.101 C 
HETATM    6  N   UNL     1     -48.298 -51.378  17.184  1.00  0.00    -0.191 NA
HETATM    7  C   UNL     1     -45.153 -51.246  15.637  1.00  0.00     0.112 A 
HETATM    8  N   UNL     1     -44.162 -51.222  14.710  1.00  0.00    -0.351 N 
ATOM      9  HN  UNL     1     -43.186 -51.130  14.989  1.00  0.00     0.166 HD
ENDROOT
BRANCH   1  10
HETATM   10  N   UNL     1     -43.450 -51.350  12.523  1.00  0.00    -0.374 N 
HETATM   11  H   UNL     1     -43.745 -50.931  11.646  1.00  0.00     0.161 HD
BRANCH  10  12
HETATM   12  C   UNL     1     -42.594 -52.526  12.426  1.00  0.00     0.147 C 
BRANCH  12  13
HETATM   13  C   UNL     1     -41.180 -52.149  11.960  1.00  0.00     0.187 C 
BRANCH  13  14
HETATM   14  O   UNL     1     -40.231 -53.076  12.495  1.00  0.00    -0.387 OA
BRANCH  14  15
HETATM   15  C   UNL     1     -40.278 -53.129  13.918  1.00  0.00     0.193 C 
BRANCH  15  16
HETATM   16  C   UNL     1     -39.323 -54.211  14.404  1.00  0.00     0.190 C 
BRANCH  16  17
HETATM   17  O   UNL     1     -38.786 -54.926  13.298  1.00  0.00    -0.399 OA
HETATM   18  H   UNL     1     -37.893 -55.211  13.558  1.00  0.00     0.209 HD
ENDBRANCH  16  17
ENDBRANCH  15  16
ENDBRANCH  14  15
ENDBRANCH  13  14
ENDBRANCH  12  13
ENDBRANCH  10  12
ENDBRANCH   1  10
TORSDOF 7
ENDMDL
MODEL 4
REMARK VINA RESULT:      -4.7      4.897      6.269
REMARK  7 active torsions:
REMARK  status: ('A' for Active; 'I' for Inactive)
REMARK    1  A    between atoms: O_1  and  C_2 
REMARK    2  A    between atoms: C_2  and  C_3 
REMARK    3  A    between atoms: C_3  and  O_4 
REMARK    4  A    between atoms: O_4  and  C_5 
REMARK    5  A    between atoms: C_5  and  C_6 
REMARK    6  A    between atoms: C_6  and  N_7 
REMARK    7  A    between atoms: N_7  and  C_8 
ROOT
HETATM    1  C   UNL     1     -41.778 -52.835  12.303  1.00  0.00     0.100 A 
HETATM    2  C   UNL     1     -41.617 -53.627  13.436  1.00  0.00     0.050 A 
HETATM    3  C   UNL     1     -42.723 -54.285  13.982  1.00  0.00     0.028 A 
HETATM    4  C   UNL     1     -43.970 -54.118  13.393  1.00  0.00     0.060 A 
HETATM    5  C   UNL     1     -45.132 -54.761  13.917  1.00  0.00     0.101 C 
HETATM    6  N   UNL     1     -46.072 -55.289  14.346  1.00  0.00    -0.191 NA
HETATM    7  C   UNL     1     -44.050 -53.303  12.279  1.00  0.00     0.112 A 
HETATM    8  N   UNL     1     -42.985 -52.669  11.728  1.00  0.00    -0.351 N 
ATOM      9  HN  UNL     1     -43.095 -52.082  10.901  1.00  0.00     0.166 HD
ENDROOT
BRANCH   1  10
HETATM   10  N   UNL     1     -40.748 -52.120  11.730  1.00  0.00    -0.374 N 
HETATM   11  H   UNL     1     -39.866 -52.569  11.959  1.00  0.00     0.161 HD
BRANCH  10  12
HETATM   12  C   UNL     1     -40.758 -50.663  11.749  1.00  0.00     0.147 C 
BRANCH  12  13
HETATM   13  C   UNL     1     -39.472 -50.104  12.376  1.00  0.00     0.187 C 
BRANCH  13  14
HETATM   14  O   UNL     1     -38.785 -51.145  13.076  1.00  0.00    -0.387 OA
BRANCH  14  15
HETATM   15  C   UNL     1     -37.372 -51.055  12.915  1.00  0.00     0.193 C 
BRANCH  15  16
HETATM   16  C   UNL     1     -37.053 -50.872  11.436  1.00  0.00     0.190 C 
BRANCH  16  17
HETATM   17  O   UNL     1     -36.537 -52.079  10.892  1.00  0.00    -0.399 OA
HETATM   18  H   UNL     1     -35.825 -52.371  11.488  1.00  0.00     0.209 HD
ENDBRANCH  16  17
ENDBRANCH  15  16
ENDBRANCH  14  15
ENDBRANCH  13  14
ENDBRANCH  12  13
ENDBRANCH  10  12
ENDBRANCH   1  10
TORSDOF 7
ENDMDL
MODEL 5
REMARK VINA RESULT:      -4.7      4.556      6.112
REMARK  7 active torsions:
REMARK  status: ('A' for Active; 'I' for Inactive)
REMARK    1  A    between atoms: O_1  and  C_2 
REMARK    2  A    between atoms: C_2  and  C_3 
REMARK    3  A    between atoms: C_3  and  O_4 
REMARK    4  A    between atoms: O_4  and  C_5 
REMARK    5  A    between atoms: C_5  and  C_6 
REMARK    6  A    between atoms: C_6  and  N_7 
REMARK    7  A    between atoms: N_7  and  C_8 
ROOT
HETATM    1  C   UNL     1     -41.490 -52.708  12.362  1.00  0.00     0.100 A 
HETATM    2  C   UNL     1     -41.327 -53.658  13.366  1.00  0.00     0.050 A 
HETATM    3  C   UNL     1     -42.438 -54.363  13.837  1.00  0.00     0.028 A 
HETATM    4  C   UNL     1     -43.692 -54.087  13.306  1.00  0.00     0.060 A 
HETATM    5  C   UNL     1     -44.860 -54.772  13.758  1.00  0.00     0.101 C 
HETATM    6  N   UNL     1     -45.803 -55.336  14.127  1.00  0.00    -0.191 NA
HETATM    7  C   UNL     1     -43.773 -53.119  12.321  1.00  0.00     0.112 A 
HETATM    8  N   UNL     1     -42.703 -52.435  11.843  1.00  0.00    -0.351 N 
ATOM      9  HN  UNL     1     -42.814 -51.734  11.111  1.00  0.00     0.166 HD
ENDROOT
BRANCH   1  10
HETATM   10  N   UNL     1     -40.453 -51.941  11.874  1.00  0.00    -0.374 N 
HETATM   11  H   UNL     1     -40.111 -52.356  11.012  1.00  0.00     0.161 HD
BRANCH  10  12
HETATM   12  C   UNL     1     -39.446 -51.399  12.778  1.00  0.00     0.147 C 
BRANCH  12  13
HETATM   13  C   UNL     1     -39.211 -49.903  12.517  1.00  0.00     0.187 C 
BRANCH  13  14
HETATM   14  O   UNL     1     -39.905 -49.505  11.332  1.00  0.00    -0.387 OA
BRANCH  14  15
HETATM   15  C   UNL     1     -40.450 -48.193  11.446  1.00  0.00     0.193 C 
BRANCH  15  16
HETATM   16  C   UNL     1     -41.940 -48.247  11.133  1.00  0.00     0.190 C 
BRANCH  16  17
HETATM   17  O   UNL     1     -42.458 -49.537  11.431  1.00  0.00    -0.399 OA
HETATM   18  H   UNL     1     -41.735 -50.038  11.846  1.00  0.00     0.209 HD
ENDBRANCH  16  17
ENDBRANCH  15  16
ENDBRANCH  14  15
ENDBRANCH  13  14
ENDBRANCH  12  13
ENDBRANCH  10  12
ENDBRANCH   1  10
TORSDOF 7
ENDMDL
MODEL 6
REMARK VINA RESULT:      -4.6      5.240      6.830
REMARK  7 active torsions:
REMARK  status: ('A' for Active; 'I' for Inactive)
REMARK    1  A    between atoms: O_1  and  C_2 
REMARK    2  A    between atoms: C_2  and  C_3 
REMARK    3  A    between atoms: C_3  and  O_4 
REMARK    4  A    between atoms: O_4  and  C_5 
REMARK    5  A    between atoms: C_5  and  C_6 
REMARK    6  A    between atoms: C_6  and  N_7 
REMARK    7  A    between atoms: N_7  and  C_8 
ROOT
HETATM    1  C   UNL     1     -41.424 -53.681  13.454  1.00  0.00     0.100 A 
HETATM    2  C   UNL     1     -41.705 -54.399  14.612  1.00  0.00     0.050 A 
HETATM    3  C   UNL     1     -43.012 -54.827  14.861  1.00  0.00     0.028 A 
HETATM    4  C   UNL     1     -44.014 -54.508  13.952  1.00  0.00     0.060 A 
HETATM    5  C   UNL     1     -45.366 -54.914  14.163  1.00  0.00     0.101 C 
HETATM    6  N   UNL     1     -46.463 -55.250  14.338  1.00  0.00    -0.191 NA
HETATM    7  C   UNL     1     -43.657 -53.779  12.833  1.00  0.00     0.112 A 
HETATM    8  N   UNL     1     -42.391 -53.368  12.570  1.00  0.00    -0.351 N 
ATOM      9  HN  UNL     1     -42.177 -52.837  11.725  1.00  0.00     0.166 HD
ENDROOT
BRANCH   1  10
HETATM   10  N   UNL     1     -40.171 -53.187  13.159  1.00  0.00    -0.374 N 
HETATM   11  H   UNL     1     -39.706 -53.826  12.521  1.00  0.00     0.161 HD
BRANCH  10  12
HETATM   12  C   UNL     1     -39.344 -52.594  14.203  1.00  0.00     0.147 C 
BRANCH  12  13
HETATM   13  C   UNL     1     -38.359 -51.571  13.619  1.00  0.00     0.187 C 
BRANCH  13  14
HETATM   14  O   UNL     1     -38.702 -51.290  12.260  1.00  0.00    -0.387 OA
BRANCH  14  15
HETATM   15  C   UNL     1     -39.035 -49.918  12.065  1.00  0.00     0.193 C 
BRANCH  15  16
HETATM   16  C   UNL     1     -40.309 -49.831  11.234  1.00  0.00     0.190 C 
BRANCH  16  17
HETATM   17  O   UNL     1     -40.888 -51.122  11.087  1.00  0.00    -0.399 OA
HETATM   18  H   UNL     1     -40.369 -51.725  11.647  1.00  0.00     0.209 HD
ENDBRANCH  16  17
ENDBRANCH  15  16
ENDBRANCH  14  15
ENDBRANCH  13  14
ENDBRANCH  12  13
ENDBRANCH  10  12
ENDBRANCH   1  10
TORSDOF 7
ENDMDL
MODEL 7
REMARK VINA RESULT:      -4.6      4.336      6.091
REMARK  7 active torsions:
REMARK  status: ('A' for Active; 'I' for Inactive)
REMARK    1  A    between atoms: O_1  and  C_2 
REMARK    2  A    between atoms: C_2  and  C_3 
REMARK    3  A    between atoms: C_3  and  O_4 
REMARK    4  A    between atoms: O_4  and  C_5 
REMARK    5  A    between atoms: C_5  and  C_6 
REMARK    6  A    between atoms: C_6  and  N_7 
REMARK    7  A    between atoms: N_7  and  C_8 
ROOT
HETATM    1  C   UNL     1     -41.368 -51.964  11.926  1.00  0.00     0.100 A 
HETATM    2  C   UNL     1     -40.838 -53.144  12.440  1.00  0.00     0.050 A 
HETATM    3  C   UNL     1     -41.666 -54.029  13.135  1.00  0.00     0.028 A 
HETATM    4  C   UNL     1     -43.005 -53.703  13.318  1.00  0.00     0.060 A 
HETATM    5  C   UNL     1     -43.891 -54.568  14.027  1.00  0.00     0.101 C 
HETATM    6  N   UNL     1     -44.607 -55.278  14.602  1.00  0.00    -0.191 NA
HETATM    7  C   UNL     1     -43.452 -52.506  12.790  1.00  0.00     0.112 A 
HETATM    8  N   UNL     1     -42.664 -51.642  12.100  1.00  0.00    -0.351 N 
ATOM      9  HN  UNL     1     -43.044 -50.773  11.725  1.00  0.00     0.166 HD
ENDROOT
BRANCH   1  10
HETATM   10  N   UNL     1     -40.608 -51.021  11.267  1.00  0.00    -0.374 N 
HETATM   11  H   UNL     1     -39.926 -51.494  10.683  1.00  0.00     0.161 HD
BRANCH  10  12
HETATM   12  C   UNL     1     -40.150 -49.824  11.962  1.00  0.00     0.147 C 
BRANCH  12  13
HETATM   13  C   UNL     1     -40.675 -48.550  11.282  1.00  0.00     0.187 C 
BRANCH  13  14
HETATM   14  O   UNL     1     -42.007 -48.768  10.811  1.00  0.00    -0.387 OA
BRANCH  14  15
HETATM   15  C   UNL     1     -42.785 -47.574  10.835  1.00  0.00     0.193 C 
BRANCH  15  16
HETATM   16  C   UNL     1     -43.149 -47.193   9.405  1.00  0.00     0.190 C 
BRANCH  16  17
HETATM   17  O   UNL     1     -42.380 -46.073   8.984  1.00  0.00    -0.399 OA
HETATM   18  H   UNL     1     -41.696 -46.416   8.382  1.00  0.00     0.209 HD
ENDBRANCH  16  17
ENDBRANCH  15  16
ENDBRANCH  14  15
ENDBRANCH  13  14
ENDBRANCH  12  13
ENDBRANCH  10  12
ENDBRANCH   1  10
TORSDOF 7
ENDMDL
MODEL 8
REMARK VINA RESULT:      -4.6      2.720      3.454
REMARK  7 active torsions:
REMARK  status: ('A' for Active; 'I' for Inactive)
REMARK    1  A    between atoms: O_1  and  C_2 
REMARK    2  A    between atoms: C_2  and  C_3 
REMARK    3  A    between atoms: C_3  and  O_4 
REMARK    4  A    between atoms: O_4  and  C_5 
REMARK    5  A    between atoms: C_5  and  C_6 
REMARK    6  A    between atoms: C_6  and  N_7 
REMARK    7  A    between atoms: N_7  and  C_8 
ROOT
HETATM    1  C   UNL     1     -41.887 -46.841  10.210  1.00  0.00     0.100 A 
HETATM    2  C   UNL     1     -42.707 -47.645  10.995  1.00  0.00     0.050 A 
HETATM    3  C   UNL     1     -44.054 -47.800  10.655  1.00  0.00     0.028 A 
HETATM    4  C   UNL     1     -44.554 -47.129   9.546  1.00  0.00     0.060 A 
HETATM    5  C   UNL     1     -45.924 -47.246   9.160  1.00  0.00     0.101 C 
HETATM    6  N   UNL     1     -47.037 -47.349   8.850  1.00  0.00    -0.191 NA
HETATM    7  C   UNL     1     -43.679 -46.337   8.826  1.00  0.00     0.112 A 
HETATM    8  N   UNL     1     -42.366 -46.187   9.134  1.00  0.00    -0.351 N 
ATOM      9  HN  UNL     1     -41.759 -45.596   8.567  1.00  0.00     0.166 HD
ENDROOT
BRANCH   1  10
HETATM   10  N   UNL     1     -40.561 -46.604  10.503  1.00  0.00    -0.374 N 
HETATM   11  H   UNL     1     -40.337 -47.033  11.396  1.00  0.00     0.161 HD
BRANCH  10  12
HETATM   12  C   UNL     1     -39.968 -45.298  10.244  1.00  0.00     0.147 C 
BRANCH  12  13
HETATM   13  C   UNL     1     -39.869 -44.466  11.532  1.00  0.00     0.187 C 
BRANCH  13  14
HETATM   14  O   UNL     1     -40.513 -43.203  11.343  1.00  0.00    -0.387 OA
BRANCH  14  15
HETATM   15  C   UNL     1     -41.932 -43.309  11.422  1.00  0.00     0.193 C 
BRANCH  15  16
HETATM   16  C   UNL     1     -42.326 -43.599  12.865  1.00  0.00     0.190 C 
BRANCH  16  17
HETATM   17  O   UNL     1     -43.209 -44.713  12.918  1.00  0.00    -0.399 OA
HETATM   18  H   UNL     1     -42.651 -45.509  12.938  1.00  0.00     0.209 HD
ENDBRANCH  16  17
ENDBRANCH  15  16
ENDBRANCH  14  15
ENDBRANCH  13  14
ENDBRANCH  12  13
ENDBRANCH  10  12
ENDBRANCH   1  10
TORSDOF 7
ENDMDL
MODEL 9
REMARK VINA RESULT:      -4.5      3.102      6.291
REMARK  7 active torsions:
REMARK  status: ('A' for Active; 'I' for Inactive)
REMARK    1  A    between atoms: O_1  and  C_2 
REMARK    2  A    between atoms: C_2  and  C_3 
REMARK    3  A    between atoms: C_3  and  O_4 
REMARK    4  A    between atoms: O_4  and  C_5 
REMARK    5  A    between atoms: C_5  and  C_6 
REMARK    6  A    between atoms: C_6  and  N_7 
REMARK    7  A    between atoms: N_7  and  C_8 
ROOT
HETATM    1  C   UNL     1     -40.973 -48.590  10.643  1.00  0.00     0.100 A 
HETATM    2  C   UNL     1     -40.637 -47.653  11.614  1.00  0.00     0.050 A 
HETATM    3  C   UNL     1     -39.696 -47.979  12.595  1.00  0.00     0.028 A 
HETATM    4  C   UNL     1     -39.126 -49.247  12.592  1.00  0.00     0.060 A 
HETATM    5  C   UNL     1     -38.167 -49.634  13.576  1.00  0.00     0.101 C 
HETATM    6  N   UNL     1     -37.385 -49.940  14.376  1.00  0.00    -0.191 NA
HETATM    7  C   UNL     1     -39.524 -50.126  11.602  1.00  0.00     0.112 A 
HETATM    8  N   UNL     1     -40.425 -49.821  10.635  1.00  0.00    -0.351 N 
ATOM      9  HN  UNL     1     -40.680 -50.504   9.922  1.00  0.00     0.166 HD
ENDROOT
BRANCH   1  10
HETATM   10  N   UNL     1     -41.922 -48.360   9.669  1.00  0.00    -0.374 N 
HETATM   11  H   UNL     1     -41.534 -48.607   8.764  1.00  0.00     0.161 HD
BRANCH  10  12
HETATM   12  C   UNL     1     -42.754 -47.164   9.715  1.00  0.00     0.147 C 
BRANCH  12  13
HETATM   13  C   UNL     1     -43.562 -46.997   8.420  1.00  0.00     0.187 C 
BRANCH  13  14
HETATM   14  O   UNL     1     -44.874 -46.519   8.726  1.00  0.00    -0.387 OA
BRANCH  14  15
HETATM   15  C   UNL     1     -45.620 -47.459   9.494  1.00  0.00     0.193 C 
BRANCH  15  16
HETATM   16  C   UNL     1     -46.431 -48.338   8.549  1.00  0.00     0.190 C 
BRANCH  16  17
HETATM   17  O   UNL     1     -46.800 -49.548   9.199  1.00  0.00    -0.399 OA
HETATM   18  H   UNL     1     -46.906 -50.217   8.501  1.00  0.00     0.209 HD
ENDBRANCH  16  17
ENDBRANCH  15  16
ENDBRANCH  14  15
ENDBRANCH  13  14
ENDBRANCH  12  13
ENDBRANCH  10  12
ENDBRANCH   1  10
TORSDOF 7
ENDMDL
