MODEL 1
REMARK VINA RESULT:      -6.2      0.000      0.000
REMARK  5 active torsions:
REMARK  status: ('A' for Active; 'I' for Inactive)
REMARK    1  A    between atoms: C_2  and  C_3 
REMARK    2  A    between atoms: C_2  and  N_11 
REMARK    3  A    between atoms: C_3  and  N_4 
REMARK    4  A    between atoms: N_11  and  C_12 
REMARK    5  A    between atoms: C_12  and  C_13 
REMARK       I    between atoms: C_13  and  N_15 
ROOT
HETATM    1  N   UNL     1     -41.835 -49.852  11.546  1.00  0.00     0.098 N 
HETATM    2  H   UNL     1     -41.138 -50.181  10.877  1.00  0.00     0.317 HD
ENDROOT
BRANCH   1   3
HETATM    3  C   UNL     1     -41.721 -48.413  11.835  1.00  0.00     0.236 C 
HETATM    4  C   UNL     1     -40.497 -48.107  12.708  1.00  0.00     0.044 C 
BRANCH   3   5
HETATM    5  C   UNL     1     -41.621 -47.580  10.541  1.00  0.00     0.183 C 
BRANCH   5   6
HETATM    6  N   UNL     1     -42.841 -47.585   9.758  1.00  0.00    -0.301 N 
HETATM    7  C   UNL     1     -44.097 -47.310  10.214  1.00  0.00     0.118 A 
HETATM    8  C   UNL     1     -44.939 -47.422   9.130  1.00  0.00    -0.028 A 
HETATM    9  C   UNL     1     -46.395 -47.173   9.081  1.00  0.00     0.051 C 
HETATM   10  C   UNL     1     -44.085 -47.815   8.077  1.00  0.00     0.115 A 
HETATM   11  N   UNL     1     -42.810 -47.935   8.457  1.00  0.00    -0.310 N 
ATOM     12  HN  UNL     1     -42.007 -48.223   7.897  1.00  0.00     0.186 HD
ENDBRANCH   5   6
ENDBRANCH   3   5
ENDBRANCH   1   3
BRANCH   1  13
HETATM   13  C   UNL     1     -41.802 -50.688  12.750  1.00  0.00     0.372 C 
BRANCH  13  14
HETATM   14  C   UNL     1     -42.324 -52.111  12.485  1.00  0.00     0.248 C 
HETATM   15  O   UNL     1     -41.574 -53.038  12.174  1.00  0.00    -0.271 OA
HETATM   16  N   UNL     1     -43.689 -52.293  12.683  1.00  0.00    -0.346 N 
HETATM   17  C   UNL     1     -44.612 -51.300  13.247  1.00  0.00     0.152 C 
HETATM   18  C   UNL     1     -44.265 -53.636  12.600  1.00  0.00     0.157 C 
HETATM   19  C   UNL     1     -45.125 -51.787  14.606  1.00  0.00     0.188 C 
HETATM   20  O   UNL     1     -45.745 -53.076  14.485  1.00  0.00    -0.383 OA
HETATM   21  C   UNL     1     -44.815 -54.058  13.979  1.00  0.00     0.135 C 
HETATM   22  C   UNL     1     -45.557 -55.383  13.891  1.00  0.00     0.041 C 
ENDBRANCH  13  14
ENDBRANCH   1  13
TORSDOF 5
ENDMDL
MODEL 2
REMARK VINA RESULT:      -6.1      1.612      1.834
REMARK  5 active torsions:
REMARK  status: ('A' for Active; 'I' for Inactive)
REMARK    1  A    between atoms: C_2  and  C_3 
REMARK    2  A    between atoms: C_2  and  N_11 
REMARK    3  A    between atoms: C_3  and  N_4 
REMARK    4  A    between atoms: N_11  and  C_12 
REMARK    5  A    between atoms: C_12  and  C_13 
REMARK       I    between atoms: C_13  and  N_15 
ROOT
HETATM    1  N   UNL     1     -41.942 -50.300  11.763  1.00  0.00     0.098 N 
HETATM    2  H   UNL     1     -40.992 -50.672  11.771  1.00  0.00     0.317 HD
ENDROOT
BRANCH   1   3
HETATM    3  C   UNL     1     -41.995 -48.850  12.019  1.00  0.00     0.236 C 
HETATM    4  C   UNL     1     -40.998 -48.432  13.108  1.00  0.00     0.044 C 
BRANCH   3   5
HETATM    5  C   UNL     1     -41.697 -48.037  10.743  1.00  0.00     0.183 C 
BRANCH   5   6
HETATM    6  N   UNL     1     -42.862 -47.833   9.906  1.00  0.00    -0.301 N 
HETATM    7  C   UNL     1     -44.126 -47.546  10.334  1.00  0.00     0.118 A 
HETATM    8  C   UNL     1     -44.903 -47.426   9.203  1.00  0.00    -0.028 A 
HETATM    9  C   UNL     1     -46.335 -47.071   9.119  1.00  0.00     0.051 C 
HETATM   10  C   UNL     1     -44.010 -47.705   8.146  1.00  0.00     0.115 A 
HETATM   11  N   UNL     1     -42.771 -47.973   8.569  1.00  0.00    -0.310 N 
ATOM     12  HN  UNL     1     -41.953 -48.223   8.013  1.00  0.00     0.186 HD
ENDBRANCH   5   6
ENDBRANCH   3   5
ENDBRANCH   1   3
BRANCH   1  13
HETATM   13  C   UNL     1     -42.788 -51.078  12.672  1.00  0.00     0.372 C 
BRANCH  13  14
HETATM   14  C   UNL     1     -41.979 -52.096  13.493  1.00  0.00     0.248 C 
HETATM   15  O   UNL     1     -40.996 -51.768  14.162  1.00  0.00    -0.271 OA
HETATM   16  N   UNL     1     -42.467 -53.398  13.480  1.00  0.00    -0.346 N 
HETATM   17  C   UNL     1     -43.734 -53.831  12.881  1.00  0.00     0.152 C 
HETATM   18  C   UNL     1     -41.858 -54.414  14.340  1.00  0.00     0.157 C 
HETATM   19  C   UNL     1     -44.693 -54.295  13.982  1.00  0.00     0.188 C 
HETATM   20  O   UNL     1     -44.098 -55.338  14.769  1.00  0.00    -0.383 OA
HETATM   21  C   UNL     1     -42.878 -54.888  15.397  1.00  0.00     0.135 C 
HETATM   22  C   UNL     1     -42.328 -56.052  16.207  1.00  0.00     0.041 C 
ENDBRANCH  13  14
ENDBRANCH   1  13
TORSDOF 5
ENDMDL
MODEL 3
REMARK VINA RESULT:      -5.8      2.612      4.013
REMARK  5 active torsions:
REMARK  status: ('A' for Active; 'I' for Inactive)
REMARK    1  A    between atoms: C_2  and  C_3 
REMARK    2  A    between atoms: C_2  and  N_11 
REMARK    3  A    between atoms: C_3  and  N_4 
REMARK    4  A    between atoms: N_11  and  C_12 
REMARK    5  A    between atoms: C_12  and  C_13 
REMARK       I    between atoms: C_13  and  N_15 
ROOT
HETATM    1  N   UNL     1     -43.117 -53.170  11.844  1.00  0.00     0.098 N 
HETATM    2  H   UNL     1     -42.881 -53.738  11.030  1.00  0.00     0.317 HD
ENDROOT
BRANCH   1   3
HETATM    3  C   UNL     1     -41.944 -52.828  12.667  1.00  0.00     0.236 C 
HETATM    4  C   UNL     1     -41.287 -54.081  13.261  1.00  0.00     0.044 C 
BRANCH   3   5
HETATM    5  C   UNL     1     -40.884 -52.057  11.855  1.00  0.00     0.183 C 
BRANCH   5   6
HETATM    6  N   UNL     1     -41.209 -50.656  11.670  1.00  0.00    -0.301 N 
HETATM    7  C   UNL     1     -42.119 -49.935  12.386  1.00  0.00     0.118 A 
HETATM    8  C   UNL     1     -42.089 -48.655  11.879  1.00  0.00    -0.028 A 
HETATM    9  C   UNL     1     -42.850 -47.476  12.343  1.00  0.00     0.051 C 
HETATM   10  C   UNL     1     -41.151 -48.730  10.826  1.00  0.00     0.115 A 
HETATM   11  N   UNL     1     -40.627 -49.950  10.681  1.00  0.00    -0.310 N 
ATOM     12  HN  UNL     1     -39.949 -50.269   9.988  1.00  0.00     0.186 HD
ENDBRANCH   5   6
ENDBRANCH   3   5
ENDBRANCH   1   3
BRANCH   1  13
HETATM   13  C   UNL     1     -44.191 -53.813  12.606  1.00  0.00     0.372 C 
BRANCH  13  14
HETATM   14  C   UNL     1     -45.312 -52.828  12.977  1.00  0.00     0.248 C 
HETATM   15  O   UNL     1     -46.251 -52.584  12.216  1.00  0.00    -0.271 OA
HETATM   16  N   UNL     1     -45.228 -52.280  14.253  1.00  0.00    -0.346 N 
HETATM   17  C   UNL     1     -44.265 -52.669  15.289  1.00  0.00     0.152 C 
HETATM   18  C   UNL     1     -46.317 -51.445  14.761  1.00  0.00     0.157 C 
HETATM   19  C   UNL     1     -45.002 -53.338  16.454  1.00  0.00     0.188 C 
HETATM   20  O   UNL     1     -46.020 -52.471  16.978  1.00  0.00    -0.383 OA
HETATM   21  C   UNL     1     -46.992 -52.136  15.964  1.00  0.00     0.135 C 
HETATM   22  C   UNL     1     -48.025 -51.225  16.611  1.00  0.00     0.041 C 
ENDBRANCH  13  14
ENDBRANCH   1  13
TORSDOF 5
ENDMDL
MODEL 4
REMARK VINA RESULT:      -5.7      3.923      6.417
REMARK  5 active torsions:
REMARK  status: ('A' for Active; 'I' for Inactive)
REMARK    1  A    between atoms: C_2  and  C_3 
REMARK    2  A    between atoms: C_2  and  N_11 
REMARK    3  A    between atoms: C_3  and  N_4 
REMARK    4  A    between atoms: N_11  and  C_12 
REMARK    5  A    between atoms: C_12  and  C_13 
REMARK       I    between atoms: C_13  and  N_15 
ROOT
HETATM    1  N   UNL     1     -41.155 -52.355  11.470  1.00  0.00     0.098 N 
HETATM    2  H   UNL     1     -41.258 -52.540  10.471  1.00  0.00     0.317 HD
ENDROOT
BRANCH   1   3
HETATM    3  C   UNL     1     -42.372 -52.662  12.241  1.00  0.00     0.236 C 
HETATM    4  C   UNL     1     -42.091 -53.672  13.361  1.00  0.00     0.044 C 
BRANCH   3   5
HETATM    5  C   UNL     1     -42.983 -51.392  12.867  1.00  0.00     0.183 C 
BRANCH   5   6
HETATM    6  N   UNL     1     -44.363 -51.559  13.275  1.00  0.00    -0.301 N 
HETATM    7  C   UNL     1     -44.878 -51.302  14.513  1.00  0.00     0.118 A 
HETATM    8  C   UNL     1     -46.224 -51.590  14.442  1.00  0.00    -0.028 A 
HETATM    9  C   UNL     1     -47.243 -51.430  15.501  1.00  0.00     0.051 C 
HETATM   10  C   UNL     1     -46.402 -52.056  13.122  1.00  0.00     0.115 A 
HETATM   11  N   UNL     1     -45.270 -52.059  12.412  1.00  0.00    -0.310 N 
ATOM     12  HN  UNL     1     -45.127 -52.364  11.450  1.00  0.00     0.186 HD
ENDBRANCH   5   6
ENDBRANCH   3   5
ENDBRANCH   1   3
BRANCH   1  13
HETATM   13  C   UNL     1     -40.670 -50.987  11.675  1.00  0.00     0.372 C 
BRANCH  13  14
HETATM   14  C   UNL     1     -39.583 -50.911  12.761  1.00  0.00     0.248 C 
HETATM   15  O   UNL     1     -38.717 -51.780  12.885  1.00  0.00    -0.271 OA
HETATM   16  N   UNL     1     -39.606 -49.767  13.551  1.00  0.00    -0.346 N 
HETATM   17  C   UNL     1     -40.468 -48.599  13.339  1.00  0.00     0.152 C 
HETATM   18  C   UNL     1     -38.533 -49.526  14.516  1.00  0.00     0.157 C 
HETATM   19  C   UNL     1     -39.611 -47.389  12.950  1.00  0.00     0.188 C 
HETATM   20  O   UNL     1     -38.610 -47.133  13.947  1.00  0.00    -0.383 OA
HETATM   21  C   UNL     1     -37.734 -48.269  14.111  1.00  0.00     0.135 C 
HETATM   22  C   UNL     1     -36.711 -47.903  15.176  1.00  0.00     0.041 C 
ENDBRANCH  13  14
ENDBRANCH   1  13
TORSDOF 5
ENDMDL
MODEL 5
REMARK VINA RESULT:      -5.7      3.004      6.814
REMARK  5 active torsions:
REMARK  status: ('A' for Active; 'I' for Inactive)
REMARK    1  A    between atoms: C_2  and  C_3 
REMARK    2  A    between atoms: C_2  and  N_11 
REMARK    3  A    between atoms: C_3  and  N_4 
REMARK    4  A    between atoms: N_11  and  C_12 
REMARK    5  A    between atoms: C_12  and  C_13 
REMARK       I    between atoms: C_13  and  N_15 
ROOT
HETATM    1  N   UNL     1     -38.798 -48.489  12.643  1.00  0.00     0.098 N 
HETATM    2  H   UNL     1     -38.433 -47.748  12.044  1.00  0.00     0.317 HD
ENDROOT
BRANCH   1   3
HETATM    3  C   UNL     1     -38.693 -49.827  12.035  1.00  0.00     0.236 C 
HETATM    4  C   UNL     1     -37.422 -49.962  11.186  1.00  0.00     0.044 C 
BRANCH   3   5
HETATM    5  C   UNL     1     -38.688 -50.938  13.104  1.00  0.00     0.183 C 
BRANCH   5   6
HETATM    6  N   UNL     1     -39.813 -51.846  12.994  1.00  0.00    -0.301 N 
HETATM    7  C   UNL     1     -40.250 -52.712  13.953  1.00  0.00     0.118 A 
HETATM    8  C   UNL     1     -41.343 -53.362  13.423  1.00  0.00    -0.028 A 
HETATM    9  C   UNL     1     -42.212 -54.362  14.078  1.00  0.00     0.051 C 
HETATM   10  C   UNL     1     -41.448 -52.838  12.116  1.00  0.00     0.115 A 
HETATM   11  N   UNL     1     -40.507 -51.930  11.842  1.00  0.00    -0.310 N 
ATOM     12  HN  UNL     1     -40.352 -51.422  10.971  1.00  0.00     0.186 HD
ENDBRANCH   5   6
ENDBRANCH   3   5
ENDBRANCH   1   3
BRANCH   1  13
HETATM   13  C   UNL     1     -40.160 -48.156  13.073  1.00  0.00     0.372 C 
BRANCH  13  14
HETATM   14  C   UNL     1     -41.199 -48.421  11.971  1.00  0.00     0.248 C 
HETATM   15  O   UNL     1     -42.007 -49.350  12.041  1.00  0.00    -0.271 OA
HETATM   16  N   UNL     1     -41.208 -47.505  10.924  1.00  0.00    -0.346 N 
HETATM   17  C   UNL     1     -40.425 -46.266  10.866  1.00  0.00     0.152 C 
HETATM   18  C   UNL     1     -42.249 -47.580   9.899  1.00  0.00     0.157 C 
HETATM   19  C   UNL     1     -41.367 -45.058  10.919  1.00  0.00     0.188 C 
HETATM   20  O   UNL     1     -42.336 -45.121   9.862  1.00  0.00    -0.383 OA
HETATM   21  C   UNL     1     -43.136 -46.319   9.958  1.00  0.00     0.135 C 
HETATM   22  C   UNL     1     -44.131 -46.294   8.806  1.00  0.00     0.041 C 
ENDBRANCH  13  14
ENDBRANCH   1  13
TORSDOF 5
ENDMDL
MODEL 6
REMARK VINA RESULT:      -5.7      3.118      4.335
REMARK  5 active torsions:
REMARK  status: ('A' for Active; 'I' for Inactive)
REMARK    1  A    between atoms: C_2  and  C_3 
REMARK    2  A    between atoms: C_2  and  N_11 
REMARK    3  A    between atoms: C_3  and  N_4 
REMARK    4  A    between atoms: N_11  and  C_12 
REMARK    5  A    between atoms: C_12  and  C_13 
REMARK       I    between atoms: C_13  and  N_15 
ROOT
HETATM    1  N   UNL     1     -40.742 -50.511  10.942  1.00  0.00     0.098 N 
HETATM    2  H   UNL     1     -39.760 -50.735  10.780  1.00  0.00     0.317 HD
ENDROOT
BRANCH   1   3
HETATM    3  C   UNL     1     -40.988 -49.066  11.082  1.00  0.00     0.236 C 
HETATM    4  C   UNL     1     -42.296 -48.786  11.836  1.00  0.00     0.044 C 
BRANCH   3   5
HETATM    5  C   UNL     1     -39.834 -48.362  11.824  1.00  0.00     0.183 C 
BRANCH   5   6
HETATM    6  N   UNL     1     -39.832 -46.923  11.652  1.00  0.00    -0.301 N 
HETATM    7  C   UNL     1     -39.783 -45.989  12.646  1.00  0.00     0.118 A 
HETATM    8  C   UNL     1     -39.790 -44.759  12.026  1.00  0.00    -0.028 A 
HETATM    9  C   UNL     1     -39.698 -43.425  12.655  1.00  0.00     0.051 C 
HETATM   10  C   UNL     1     -39.890 -45.072  10.653  1.00  0.00     0.115 A 
HETATM   11  N   UNL     1     -39.937 -46.387  10.420  1.00  0.00    -0.310 N 
ATOM     12  HN  UNL     1     -40.029 -46.868   9.526  1.00  0.00     0.186 HD
ENDBRANCH   5   6
ENDBRANCH   3   5
ENDBRANCH   1   3
BRANCH   1  13
HETATM   13  C   UNL     1     -41.253 -51.297  12.069  1.00  0.00     0.372 C 
BRANCH  13  14
HETATM   14  C   UNL     1     -40.168 -52.188  12.697  1.00  0.00     0.248 C 
HETATM   15  O   UNL     1     -39.008 -51.798  12.854  1.00  0.00    -0.271 OA
HETATM   16  N   UNL     1     -40.597 -53.437  13.131  1.00  0.00    -0.346 N 
HETATM   17  C   UNL     1     -41.990 -53.897  13.168  1.00  0.00     0.152 C 
HETATM   18  C   UNL     1     -39.682 -54.306  13.873  1.00  0.00     0.157 C 
HETATM   19  C   UNL     1     -42.433 -54.086  14.623  1.00  0.00     0.188 C 
HETATM   20  O   UNL     1     -41.558 -54.994  15.308  1.00  0.00    -0.383 OA
HETATM   21  C   UNL     1     -40.198 -54.507  15.312  1.00  0.00     0.135 C 
HETATM   22  C   UNL     1     -39.353 -55.528  16.060  1.00  0.00     0.041 C 
ENDBRANCH  13  14
ENDBRANCH   1  13
TORSDOF 5
ENDMDL
MODEL 7
REMARK VINA RESULT:      -5.6      3.631      5.388
REMARK  5 active torsions:
REMARK  status: ('A' for Active; 'I' for Inactive)
REMARK    1  A    between atoms: C_2  and  C_3 
REMARK    2  A    between atoms: C_2  and  N_11 
REMARK    3  A    between atoms: C_3  and  N_4 
REMARK    4  A    between atoms: N_11  and  C_12 
REMARK    5  A    between atoms: C_12  and  C_13 
REMARK       I    between atoms: C_13  and  N_15 
ROOT
HETATM    1  N   UNL     1     -39.826 -53.972  13.683  1.00  0.00     0.098 N 
HETATM    2  H   UNL     1     -39.231 -54.795  13.780  1.00  0.00     0.317 HD
ENDROOT
BRANCH   1   3
HETATM    3  C   UNL     1     -39.999 -53.234  14.947  1.00  0.00     0.236 C 
HETATM    4  C   UNL     1     -39.908 -54.166  16.162  1.00  0.00     0.044 C 
BRANCH   3   5
HETATM    5  C   UNL     1     -38.943 -52.121  15.103  1.00  0.00     0.183 C 
BRANCH   5   6
HETATM    6  N   UNL     1     -38.808 -51.287  13.925  1.00  0.00    -0.301 N 
HETATM    7  C   UNL     1     -37.721 -51.219  13.102  1.00  0.00     0.118 A 
HETATM    8  C   UNL     1     -38.037 -50.313  12.114  1.00  0.00    -0.028 A 
HETATM    9  C   UNL     1     -37.220 -49.919  10.948  1.00  0.00     0.051 C 
HETATM   10  C   UNL     1     -39.328 -49.862  12.467  1.00  0.00     0.115 A 
HETATM   11  N   UNL     1     -39.794 -50.436  13.580  1.00  0.00    -0.310 N 
ATOM     12  HN  UNL     1     -40.683 -50.270  14.053  1.00  0.00     0.186 HD
ENDBRANCH   5   6
ENDBRANCH   3   5
ENDBRANCH   1   3
BRANCH   1  13
HETATM   13  C   UNL     1     -41.096 -54.347  13.055  1.00  0.00     0.372 C 
BRANCH  13  14
HETATM   14  C   UNL     1     -42.000 -53.129  12.797  1.00  0.00     0.248 C 
HETATM   15  O   UNL     1     -41.718 -52.267  11.961  1.00  0.00    -0.271 OA
HETATM   16  N   UNL     1     -43.185 -53.100  13.524  1.00  0.00    -0.346 N 
HETATM   17  C   UNL     1     -43.690 -54.179  14.381  1.00  0.00     0.152 C 
HETATM   18  C   UNL     1     -44.183 -52.064  13.251  1.00  0.00     0.157 C 
HETATM   19  C   UNL     1     -44.970 -54.764  13.774  1.00  0.00     0.188 C 
HETATM   20  O   UNL     1     -45.956 -53.739  13.578  1.00  0.00    -0.383 OA
HETATM   21  C   UNL     1     -45.469 -52.707  12.692  1.00  0.00     0.135 C 
HETATM   22  C   UNL     1     -46.578 -51.677  12.544  1.00  0.00     0.041 C 
ENDBRANCH  13  14
ENDBRANCH   1  13
TORSDOF 5
ENDMDL
MODEL 8
REMARK VINA RESULT:      -5.6      2.882      4.281
REMARK  5 active torsions:
REMARK  status: ('A' for Active; 'I' for Inactive)
REMARK    1  A    between atoms: C_2  and  C_3 
REMARK    2  A    between atoms: C_2  and  N_11 
REMARK    3  A    between atoms: C_3  and  N_4 
REMARK    4  A    between atoms: N_11  and  C_12 
REMARK    5  A    between atoms: C_12  and  C_13 
REMARK       I    between atoms: C_13  and  N_15 
ROOT
HETATM    1  N   UNL     1     -41.855 -54.426  14.040  1.00  0.00     0.098 N 
HETATM    2  H   UNL     1     -41.869 -54.686  15.026  1.00  0.00     0.317 HD
ENDROOT
BRANCH   1   3
HETATM    3  C   UNL     1     -41.062 -53.214  13.774  1.00  0.00     0.236 C 
HETATM    4  C   UNL     1     -39.601 -53.388  14.211  1.00  0.00     0.044 C 
BRANCH   3   5
HETATM    5  C   UNL     1     -41.084 -52.837  12.278  1.00  0.00     0.183 C 
BRANCH   5   6
HETATM    6  N   UNL     1     -41.308 -51.424  12.045  1.00  0.00    -0.301 N 
HETATM    7  C   UNL     1     -42.277 -50.652  12.619  1.00  0.00     0.118 A 
HETATM    8  C   UNL     1     -42.108 -49.380  12.118  1.00  0.00    -0.028 A 
HETATM    9  C   UNL     1     -42.869 -48.161  12.463  1.00  0.00     0.051 C 
HETATM   10  C   UNL     1     -41.032 -49.511  11.214  1.00  0.00     0.115 A 
HETATM   11  N   UNL     1     -40.553 -50.756  11.150  1.00  0.00    -0.310 N 
ATOM     12  HN  UNL     1     -39.799 -51.115  10.565  1.00  0.00     0.186 HD
ENDBRANCH   5   6
ENDBRANCH   3   5
ENDBRANCH   1   3
BRANCH   1  13
HETATM   13  C   UNL     1     -43.227 -54.343  13.528  1.00  0.00     0.372 C 
BRANCH  13  14
HETATM   14  C   UNL     1     -44.264 -54.233  14.659  1.00  0.00     0.248 C 
HETATM   15  O   UNL     1     -44.033 -54.631  15.803  1.00  0.00    -0.271 OA
HETATM   16  N   UNL     1     -45.453 -53.597  14.319  1.00  0.00    -0.346 N 
HETATM   17  C   UNL     1     -45.727 -52.917  13.048  1.00  0.00     0.152 C 
HETATM   18  C   UNL     1     -46.448 -53.310  15.354  1.00  0.00     0.157 C 
HETATM   19  C   UNL     1     -45.881 -51.412  13.291  1.00  0.00     0.188 C 
HETATM   20  O   UNL     1     -46.909 -51.155  14.260  1.00  0.00    -0.383 OA
HETATM   21  C   UNL     1     -46.605 -51.785  15.524  1.00  0.00     0.135 C 
HETATM   22  C   UNL     1     -47.741 -51.453  16.480  1.00  0.00     0.041 C 
ENDBRANCH  13  14
ENDBRANCH   1  13
TORSDOF 5
ENDMDL
MODEL 9
REMARK VINA RESULT:      -5.5      4.922      8.028
REMARK  5 active torsions:
REMARK  status: ('A' for Active; 'I' for Inactive)
REMARK    1  A    between atoms: C_2  and  C_3 
REMARK    2  A    between atoms: C_2  and  N_11 
REMARK    3  A    between atoms: C_3  and  N_4 
REMARK    4  A    between atoms: N_11  and  C_12 
REMARK    5  A    between atoms: C_12  and  C_13 
REMARK       I    between atoms: C_13  and  N_15 
ROOT
HETATM    1  N   UNL     1     -40.764 -47.014  10.435  1.00  0.00     0.098 N 
HETATM    2  H   UNL     1     -41.454 -46.480   9.906  1.00  0.00     0.317 HD
ENDROOT
BRANCH   1   3
HETATM    3  C   UNL     1     -41.371 -48.010  11.334  1.00  0.00     0.236 C 
HETATM    4  C   UNL     1     -42.902 -48.005  11.231  1.00  0.00     0.044 C 
BRANCH   3   5
HETATM    5  C   UNL     1     -40.863 -49.434  11.030  1.00  0.00     0.183 C 
BRANCH   5   6
HETATM    6  N   UNL     1     -39.595 -49.740  11.661  1.00  0.00    -0.301 N 
HETATM    7  C   UNL     1     -39.328 -49.706  12.999  1.00  0.00     0.118 A 
HETATM    8  C   UNL     1     -38.009 -50.077  13.143  1.00  0.00    -0.028 A 
HETATM    9  C   UNL     1     -37.245 -50.249  14.396  1.00  0.00     0.051 C 
HETATM   10  C   UNL     1     -37.565 -50.270  11.817  1.00  0.00     0.115 A 
HETATM   11  N   UNL     1     -38.519 -50.047  10.909  1.00  0.00    -0.310 N 
ATOM     12  HN  UNL     1     -38.451 -50.097   9.892  1.00  0.00     0.186 HD
ENDBRANCH   5   6
ENDBRANCH   3   5
ENDBRANCH   1   3
BRANCH   1  13
HETATM   13  C   UNL     1     -39.845 -46.100  11.120  1.00  0.00     0.372 C 
BRANCH  13  14
HETATM   14  C   UNL     1     -40.279 -44.630  10.985  1.00  0.00     0.248 C 
HETATM   15  O   UNL     1     -40.188 -44.014   9.921  1.00  0.00    -0.271 OA
HETATM   16  N   UNL     1     -40.838 -44.065  12.126  1.00  0.00    -0.346 N 
HETATM   17  C   UNL     1     -41.168 -44.782  13.363  1.00  0.00     0.152 C 
HETATM   18  C   UNL     1     -41.415 -42.721  12.066  1.00  0.00     0.157 C 
HETATM   19  C   UNL     1     -42.688 -44.804  13.557  1.00  0.00     0.188 C 
HETATM   20  O   UNL     1     -43.220 -43.471  13.561  1.00  0.00    -0.383 OA
HETATM   21  C   UNL     1     -42.935 -42.790  12.320  1.00  0.00     0.135 C 
HETATM   22  C   UNL     1     -43.539 -41.397  12.418  1.00  0.00     0.041 C 
ENDBRANCH  13  14
ENDBRANCH   1  13
TORSDOF 5
ENDMDL
