MODEL 1
REMARK VINA RESULT:      -4.9      0.000      0.000
REMARK  1 active torsions:
REMARK  status: ('A' for Active; 'I' for Inactive)
REMARK    1  A    between atoms: C_6  and  C_9 
ROOT
HETATM    1  C   UNL     2     -42.625 -46.409  11.916  1.00  0.00     0.295 C 
HETATM    2  C   UNL     2     -43.259 -47.749  11.524  1.00  0.00     0.199 C 
HETATM    3  O   UNL     2     -42.906 -48.108  10.197  1.00  0.00    -0.375 OA
HETATM    4  C   UNL     2     -43.338 -47.126   9.265  1.00  0.00     0.218 C 
HETATM    5  C   UNL     2     -42.751 -45.738   9.618  1.00  0.00     0.309 C 
HETATM    6  N   UNL     2     -43.069 -45.355  10.999  1.00  0.00     0.088 N 
HETATM    7  H   UNL     2     -44.099 -45.211  11.108  1.00  0.00     0.316 HD
ENDROOT
BRANCH   4   8
HETATM    8  C   UNL     2     -44.840 -47.163   9.104  1.00  0.00     0.134 A 
HETATM    9  N   UNL     2     -45.563 -48.295   9.193  1.00  0.00    -0.331 N 
HETATM   10  C   UNL     2     -46.818 -47.863   8.987  1.00  0.00     0.260 A 
ATOM     11  HN  UNL     2     -45.238 -49.245   9.373  1.00  0.00     0.168 HD
HETATM   12  O   UNL     2     -46.834 -46.566   8.787  1.00  0.00    -0.232 OA
HETATM   13  N   UNL     2     -45.623 -46.098   8.850  1.00  0.00    -0.245 N 
ATOM     14  HN  UNL     2     -45.328 -45.129   8.732  1.00  0.00     0.196 HD
ENDBRANCH   4   8
TORSDOF 1
ENDMDL
MODEL 2
REMARK VINA RESULT:      -4.6      2.136      2.702
REMARK  1 active torsions:
REMARK  status: ('A' for Active; 'I' for Inactive)
REMARK    1  A    between atoms: C_6  and  C_9 
ROOT
HETATM    1  C   UNL     2     -40.587 -45.050  10.947  1.00  0.00     0.295 C 
HETATM    2  C   UNL     2     -42.106 -44.904  11.098  1.00  0.00     0.199 C 
HETATM    3  O   UNL     2     -42.641 -45.956  11.885  1.00  0.00    -0.375 OA
HETATM    4  C   UNL     2     -42.377 -47.224  11.301  1.00  0.00     0.218 C 
HETATM    5  C   UNL     2     -40.855 -47.428  11.098  1.00  0.00     0.309 C 
HETATM    6  N   UNL     2     -40.266 -46.334  10.316  1.00  0.00     0.088 N 
HETATM    7  H   UNL     2     -40.639 -46.344   9.339  1.00  0.00     0.316 HD
ENDROOT
BRANCH   4   8
HETATM    8  C   UNL     2     -43.220 -47.432  10.065  1.00  0.00     0.134 A 
HETATM    9  N   UNL     2     -44.546 -47.200  10.030  1.00  0.00    -0.331 N 
HETATM   10  C   UNL     2     -44.870 -47.513   8.765  1.00  0.00     0.260 A 
ATOM     11  HN  UNL     2     -45.154 -46.868  10.779  1.00  0.00     0.168 HD
HETATM   12  O   UNL     2     -43.809 -47.907   8.100  1.00  0.00    -0.232 OA
HETATM   13  N   UNL     2     -42.767 -47.871   8.876  1.00  0.00    -0.245 N 
ATOM     14  HN  UNL     2     -41.808 -48.122   8.635  1.00  0.00     0.196 HD
ENDBRANCH   4   8
TORSDOF 1
ENDMDL
MODEL 3
REMARK VINA RESULT:      -4.4      6.502      7.485
REMARK  1 active torsions:
REMARK  status: ('A' for Active; 'I' for Inactive)
REMARK    1  A    between atoms: C_6  and  C_9 
ROOT
HETATM    1  C   UNL     2     -41.239 -51.167  11.960  1.00  0.00     0.295 C 
HETATM    2  C   UNL     2     -42.200 -51.090  13.151  1.00  0.00     0.199 C 
HETATM    3  O   UNL     2     -41.824 -52.007  14.167  1.00  0.00    -0.375 OA
HETATM    4  C   UNL     2     -41.829 -53.343  13.682  1.00  0.00     0.218 C 
HETATM    5  C   UNL     2     -40.892 -53.486  12.458  1.00  0.00     0.309 C 
HETATM    6  N   UNL     2     -41.235 -52.523  11.404  1.00  0.00     0.088 N 
HETATM    7  H   UNL     2     -42.178 -52.739  11.007  1.00  0.00     0.316 HD
ENDROOT
BRANCH   4   8
HETATM    8  C   UNL     2     -43.242 -53.831  13.468  1.00  0.00     0.134 A 
HETATM    9  N   UNL     2     -44.079 -54.133  14.477  1.00  0.00    -0.331 N 
HETATM   10  C   UNL     2     -45.195 -54.515  13.835  1.00  0.00     0.260 A 
ATOM     11  HN  UNL     2     -43.908 -54.084  15.482  1.00  0.00     0.168 HD
HETATM   12  O   UNL     2     -45.027 -54.446  12.535  1.00  0.00    -0.232 OA
HETATM   13  N   UNL     2     -43.825 -54.027  12.270  1.00  0.00    -0.245 N 
ATOM     14  HN  UNL     2     -43.412 -53.878  11.350  1.00  0.00     0.196 HD
ENDBRANCH   4   8
TORSDOF 1
ENDMDL
MODEL 4
REMARK VINA RESULT:      -4.2      6.527      8.071
REMARK  1 active torsions:
REMARK  status: ('A' for Active; 'I' for Inactive)
REMARK    1  A    between atoms: C_6  and  C_9 
ROOT
HETATM    1  C   UNL     2     -46.559 -52.865  14.412  1.00  0.00     0.295 C 
HETATM    2  C   UNL     2     -45.984 -52.163  13.178  1.00  0.00     0.199 C 
HETATM    3  O   UNL     2     -45.669 -53.101  12.160  1.00  0.00    -0.375 OA
HETATM    4  C   UNL     2     -44.714 -54.051  12.612  1.00  0.00     0.218 C 
HETATM    5  C   UNL     2     -45.224 -54.783  13.877  1.00  0.00     0.309 C 
HETATM    6  N   UNL     2     -45.592 -53.835  14.935  1.00  0.00     0.088 N 
HETATM    7  H   UNL     2     -44.744 -53.329  15.280  1.00  0.00     0.316 HD
ENDROOT
BRANCH   4   8
HETATM    8  C   UNL     2     -43.349 -53.417  12.746  1.00  0.00     0.134 A 
HETATM    9  N   UNL     2     -42.797 -52.647  11.791  1.00  0.00    -0.331 N 
HETATM   10  C   UNL     2     -41.612 -52.311  12.326  1.00  0.00     0.260 A 
ATOM     11  HN  UNL     2     -43.184 -52.382  10.884  1.00  0.00     0.168 HD
HETATM   12  O   UNL     2     -41.472 -52.850  13.515  1.00  0.00    -0.232 OA
HETATM   13  N   UNL     2     -42.531 -53.545  13.807  1.00  0.00    -0.245 N 
ATOM     14  HN  UNL     2     -42.705 -54.076  14.661  1.00  0.00     0.196 HD
ENDBRANCH   4   8
TORSDOF 1
ENDMDL
MODEL 5
REMARK VINA RESULT:      -4.0      1.750      2.145
REMARK  1 active torsions:
REMARK  status: ('A' for Active; 'I' for Inactive)
REMARK    1  A    between atoms: C_6  and  C_9 
ROOT
HETATM    1  C   UNL     2     -42.029 -46.623  12.960  1.00  0.00     0.295 C 
HETATM    2  C   UNL     2     -41.671 -47.658  11.888  1.00  0.00     0.199 C 
HETATM    3  O   UNL     2     -41.057 -47.038  10.769  1.00  0.00    -0.375 OA
HETATM    4  C   UNL     2     -41.916 -46.072  10.179  1.00  0.00     0.218 C 
HETATM    5  C   UNL     2     -42.337 -45.005  11.219  1.00  0.00     0.309 C 
HETATM    6  N   UNL     2     -42.943 -45.620  12.405  1.00  0.00     0.088 N 
HETATM    7  H   UNL     2     -43.850 -46.078  12.155  1.00  0.00     0.316 HD
ENDROOT
BRANCH   4   8
HETATM    8  C   UNL     2     -43.058 -46.742   9.452  1.00  0.00     0.134 A 
HETATM    9  N   UNL     2     -44.346 -46.390   9.619  1.00  0.00    -0.331 N 
HETATM   10  C   UNL     2     -44.994 -47.232   8.797  1.00  0.00     0.260 A 
ATOM     11  HN  UNL     2     -44.734 -45.664  10.222  1.00  0.00     0.168 HD
HETATM   12  O   UNL     2     -44.147 -48.029   8.189  1.00  0.00    -0.232 OA
HETATM   13  N   UNL     2     -42.935 -47.754   8.573  1.00  0.00    -0.245 N 
ATOM     14  HN  UNL     2     -42.073 -48.210   8.271  1.00  0.00     0.196 HD
ENDBRANCH   4   8
TORSDOF 1
ENDMDL
MODEL 6
REMARK VINA RESULT:      -4.0      2.853      3.794
REMARK  1 active torsions:
REMARK  status: ('A' for Active; 'I' for Inactive)
REMARK    1  A    between atoms: C_6  and  C_9 
ROOT
HETATM    1  C   UNL     2     -39.292 -49.008  11.520  1.00  0.00     0.295 C 
HETATM    2  C   UNL     2     -39.908 -47.625  11.757  1.00  0.00     0.199 C 
HETATM    3  O   UNL     2     -41.104 -47.724  12.515  1.00  0.00    -0.375 OA
HETATM    4  C   UNL     2     -42.069 -48.528  11.851  1.00  0.00     0.218 C 
HETATM    5  C   UNL     2     -41.501 -49.939  11.559  1.00  0.00     0.309 C 
HETATM    6  N   UNL     2     -40.243 -49.866  10.807  1.00  0.00     0.088 N 
HETATM    7  H   UNL     2     -40.413 -49.477   9.851  1.00  0.00     0.316 HD
ENDROOT
BRANCH   4   8
HETATM    8  C   UNL     2     -42.637 -47.806  10.652  1.00  0.00     0.134 A 
HETATM    9  N   UNL     2     -43.361 -46.676  10.746  1.00  0.00    -0.331 N 
HETATM   10  C   UNL     2     -43.650 -46.399   9.464  1.00  0.00     0.260 A 
ATOM     11  HN  UNL     2     -43.626 -46.159  11.585  1.00  0.00     0.168 HD
HETATM   12  O   UNL     2     -43.133 -47.305   8.667  1.00  0.00    -0.232 OA
HETATM   13  N   UNL     2     -42.499 -48.196   9.370  1.00  0.00    -0.245 N 
ATOM     14  HN  UNL     2     -42.002 -49.017   9.024  1.00  0.00     0.196 HD
ENDBRANCH   4   8
TORSDOF 1
ENDMDL
MODEL 7
REMARK VINA RESULT:      -4.0      3.090      4.451
REMARK  1 active torsions:
REMARK  status: ('A' for Active; 'I' for Inactive)
REMARK    1  A    between atoms: C_6  and  C_9 
ROOT
HETATM    1  C   UNL     2     -42.319 -45.776  12.234  1.00  0.00     0.295 C 
HETATM    2  C   UNL     2     -40.948 -46.370  11.889  1.00  0.00     0.199 C 
HETATM    3  O   UNL     2     -40.906 -46.797  10.536  1.00  0.00    -0.375 OA
HETATM    4  C   UNL     2     -41.893 -47.786  10.276  1.00  0.00     0.218 C 
HETATM    5  C   UNL     2     -43.305 -47.257  10.627  1.00  0.00     0.309 C 
HETATM    6  N   UNL     2     -43.369 -46.774  12.011  1.00  0.00     0.088 N 
HETATM    7  H   UNL     2     -43.241 -47.569  12.679  1.00  0.00     0.316 HD
ENDROOT
BRANCH   4   8
HETATM    8  C   UNL     2     -41.521 -49.098  10.925  1.00  0.00     0.134 A 
HETATM    9  N   UNL     2     -42.317 -49.738  11.801  1.00  0.00    -0.331 N 
HETATM   10  C   UNL     2     -41.601 -50.832  12.111  1.00  0.00     0.260 A 
ATOM     11  HN  UNL     2     -43.237 -49.462  12.145  1.00  0.00     0.168 HD
HETATM   12  O   UNL     2     -40.459 -50.835  11.464  1.00  0.00    -0.232 OA
HETATM   13  N   UNL     2     -40.374 -49.772  10.720  1.00  0.00    -0.245 N 
ATOM     14  HN  UNL     2     -39.601 -49.505  10.109  1.00  0.00     0.196 HD
ENDBRANCH   4   8
TORSDOF 1
ENDMDL
MODEL 8
REMARK VINA RESULT:      -3.8      6.680      7.779
REMARK  1 active torsions:
REMARK  status: ('A' for Active; 'I' for Inactive)
REMARK    1  A    between atoms: C_6  and  C_9 
ROOT
HETATM    1  C   UNL     2     -40.632 -54.014  12.978  1.00  0.00     0.295 C 
HETATM    2  C   UNL     2     -39.941 -53.088  13.985  1.00  0.00     0.199 C 
HETATM    3  O   UNL     2     -40.724 -51.930  14.229  1.00  0.00    -0.375 OA
HETATM    4  C   UNL     2     -40.943 -51.195  13.033  1.00  0.00     0.218 C 
HETATM    5  C   UNL     2     -41.621 -52.082  11.960  1.00  0.00     0.309 C 
HETATM    6  N   UNL     2     -40.852 -53.307  11.712  1.00  0.00     0.088 N 
HETATM    7  H   UNL     2     -39.928 -53.075  11.279  1.00  0.00     0.316 HD
ENDROOT
BRANCH   4   8
HETATM    8  C   UNL     2     -39.676 -50.505  12.586  1.00  0.00     0.134 A 
HETATM    9  N   UNL     2     -38.825 -49.903  13.437  1.00  0.00    -0.331 N 
HETATM   10  C   UNL     2     -37.866 -49.437  12.620  1.00  0.00     0.260 A 
ATOM     11  HN  UNL     2     -38.892 -49.821  14.452  1.00  0.00     0.168 HD
HETATM   12  O   UNL     2     -38.134 -49.741  11.372  1.00  0.00    -0.232 OA
HETATM   13  N   UNL     2     -39.252 -50.402  11.312  1.00  0.00    -0.245 N 
ATOM     14  HN  UNL     2     -39.711 -50.766  10.477  1.00  0.00     0.196 HD
ENDBRANCH   4   8
TORSDOF 1
ENDMDL
MODEL 9
REMARK VINA RESULT:      -3.8      7.347      8.073
REMARK  1 active torsions:
REMARK  status: ('A' for Active; 'I' for Inactive)
REMARK    1  A    between atoms: C_6  and  C_9 
ROOT
HETATM    1  C   UNL     2     -42.550 -54.277  14.275  1.00  0.00     0.295 C 
HETATM    2  C   UNL     2     -43.698 -54.599  15.237  1.00  0.00     0.199 C 
HETATM    3  O   UNL     2     -44.793 -55.179  14.544  1.00  0.00    -0.375 OA
HETATM    4  C   UNL     2     -45.291 -54.303  13.542  1.00  0.00     0.218 C 
HETATM    5  C   UNL     2     -44.171 -53.917  12.546  1.00  0.00     0.309 C 
HETATM    6  N   UNL     2     -43.009 -53.347  13.238  1.00  0.00     0.088 N 
HETATM    7  H   UNL     2     -43.260 -52.432  13.678  1.00  0.00     0.316 HD
ENDROOT
BRANCH   4   8
HETATM    8  C   UNL     2     -46.025 -53.138  14.164  1.00  0.00     0.134 A 
HETATM    9  N   UNL     2     -46.682 -53.221  15.335  1.00  0.00    -0.331 N 
HETATM   10  C   UNL     2     -47.171 -51.980  15.491  1.00  0.00     0.260 A 
ATOM     11  HN  UNL     2     -46.783 -54.027  15.952  1.00  0.00     0.168 HD
HETATM   12  O   UNL     2     -46.828 -51.217  14.479  1.00  0.00    -0.232 OA
HETATM   13  N   UNL     2     -46.118 -51.904  13.634  1.00  0.00    -0.245 N 
ATOM     14  HN  UNL     2     -45.716 -51.577  12.755  1.00  0.00     0.196 HD
ENDBRANCH   4   8
TORSDOF 1
ENDMDL
