MODEL 1
REMARK VINA RESULT:      -6.1      0.000      0.000
REMARK  2 active torsions:
REMARK  status: ('A' for Active; 'I' for Inactive)
REMARK       I    between atoms: C_2  and  N_3 
REMARK       I    between atoms: C_2  and  N_13 
REMARK    1  A    between atoms: N_3  and  C_4 
REMARK    2  A    between atoms: N_13  and  C_14 
ROOT
HETATM    1  O   UNL     1     -40.498 -52.906  12.189  1.00  0.00    -0.247 OA
HETATM    2  C   UNL     1     -40.851 -51.730  12.135  1.00  0.00     0.322 C 
HETATM    3  N   UNL     1     -41.874 -51.220  12.879  1.00  0.00    -0.336 N 
HETATM    4  N   UNL     1     -40.260 -50.913  11.228  1.00  0.00    -0.288 N 
HETATM    5  H   UNL     1     -41.931 -50.210  12.967  1.00  0.00     0.164 HD
HETATM    6  H   UNL     1     -39.621 -51.366  10.593  1.00  0.00     0.172 HD
ENDROOT
BRANCH   3   7
HETATM    7  C   UNL     1     -42.618 -52.044  13.812  1.00  0.00     0.121 C 
HETATM    8  C   UNL     1     -41.939 -52.147  15.185  1.00  0.00     0.057 C 
HETATM    9  C   UNL     1     -43.090 -52.196  16.197  1.00  0.00     0.275 C 
HETATM   10  N   UNL     1     -44.288 -52.303  15.370  1.00  0.00     0.095 N 
HETATM   11  C   UNL     1     -45.536 -51.929  16.015  1.00  0.00     0.273 C 
HETATM   12  C   UNL     1     -44.007 -51.507  14.169  1.00  0.00     0.245 C 
HETATM   13  C   UNL     1     -46.692 -52.138  15.030  1.00  0.00     0.030 C 
HETATM   14  C   UNL     1     -46.462 -51.394  13.709  1.00  0.00     0.004 C 
HETATM   15  C   UNL     1     -45.088 -51.731  13.118  1.00  0.00     0.038 C 
ENDBRANCH   3   7
BRANCH   4  16
HETATM   16  C   UNL     1     -40.502 -49.582  11.067  1.00  0.00     0.168 A 
HETATM   17  N   UNL     1     -41.319 -48.981  10.233  1.00  0.00    -0.279 N 
HETATM   18  N   UNL     1     -41.258 -47.607  10.365  1.00  0.00    -0.303 N 
ATOM     19  HN  UNL     1     -41.923 -49.468   9.571  1.00  0.00     0.189 HD
HETATM   20  C   UNL     1     -40.380 -47.244  11.279  1.00  0.00     0.160 A 
ATOM     21  HN  UNL     1     -41.823 -46.954   9.822  1.00  0.00     0.186 HD
HETATM   22  S   UNL     1     -39.608 -48.547  12.086  1.00  0.00    -0.046 SA
ENDBRANCH   4  16
TORSDOF 2
ENDMDL
MODEL 2
REMARK VINA RESULT:      -6.0      2.839      3.886
REMARK  2 active torsions:
REMARK  status: ('A' for Active; 'I' for Inactive)
REMARK       I    between atoms: C_2  and  N_3 
REMARK       I    between atoms: C_2  and  N_13 
REMARK    1  A    between atoms: N_3  and  C_4 
REMARK    2  A    between atoms: N_13  and  C_14 
ROOT
HETATM    1  O   UNL     1     -42.750 -48.066  13.775  1.00  0.00    -0.247 OA
HETATM    2  C   UNL     1     -42.977 -48.393  12.612  1.00  0.00     0.322 C 
HETATM    3  N   UNL     1     -43.407 -49.637  12.255  1.00  0.00    -0.336 N 
HETATM    4  N   UNL     1     -42.704 -47.508  11.621  1.00  0.00    -0.288 N 
HETATM    5  H   UNL     1     -43.810 -49.744  11.329  1.00  0.00     0.164 HD
HETATM    6  H   UNL     1     -42.242 -46.661  11.915  1.00  0.00     0.172 HD
ENDROOT
BRANCH   3   7
HETATM    7  C   UNL     1     -43.643 -50.671  13.242  1.00  0.00     0.121 C 
HETATM    8  C   UNL     1     -45.120 -51.077  13.336  1.00  0.00     0.057 C 
HETATM    9  C   UNL     1     -45.103 -52.583  13.626  1.00  0.00     0.275 C 
HETATM   10  N   UNL     1     -43.695 -52.886  13.856  1.00  0.00     0.095 N 
HETATM   11  C   UNL     1     -43.319 -54.285  13.718  1.00  0.00     0.273 C 
HETATM   12  C   UNL     1     -42.951 -52.005  12.946  1.00  0.00     0.245 C 
HETATM   13  C   UNL     1     -41.825 -54.436  14.030  1.00  0.00     0.030 C 
HETATM   14  C   UNL     1     -40.962 -53.504  13.172  1.00  0.00     0.004 C 
HETATM   15  C   UNL     1     -41.460 -52.056  13.257  1.00  0.00     0.038 C 
ENDBRANCH   3   7
BRANCH   4  16
HETATM   16  C   UNL     1     -42.935 -47.694  10.291  1.00  0.00     0.168 A 
HETATM   17  N   UNL     1     -42.120 -48.133   9.360  1.00  0.00    -0.279 N 
HETATM   18  N   UNL     1     -42.730 -48.155   8.121  1.00  0.00    -0.303 N 
ATOM     19  HN  UNL     1     -41.156 -48.421   9.531  1.00  0.00     0.189 HD
HETATM   20  C   UNL     1     -43.970 -47.711   8.181  1.00  0.00     0.160 A 
ATOM     21  HN  UNL     1     -42.278 -48.476   7.265  1.00  0.00     0.186 HD
HETATM   22  S   UNL     1     -44.503 -47.289   9.757  1.00  0.00    -0.046 SA
ENDBRANCH   4  16
TORSDOF 2
ENDMDL
MODEL 3
REMARK VINA RESULT:      -6.0      2.476      6.352
REMARK  2 active torsions:
REMARK  status: ('A' for Active; 'I' for Inactive)
REMARK       I    between atoms: C_2  and  N_3 
REMARK       I    between atoms: C_2  and  N_13 
REMARK    1  A    between atoms: N_3  and  C_4 
REMARK    2  A    between atoms: N_13  and  C_14 
ROOT
HETATM    1  O   UNL     1     -39.358 -49.651  11.082  1.00  0.00    -0.247 OA
HETATM    2  C   UNL     1     -40.487 -50.080  11.312  1.00  0.00     0.322 C 
HETATM    3  N   UNL     1     -41.623 -49.369  11.065  1.00  0.00    -0.336 N 
HETATM    4  N   UNL     1     -40.614 -51.283  11.926  1.00  0.00    -0.288 N 
HETATM    5  H   UNL     1     -42.500 -49.881  11.040  1.00  0.00     0.164 HD
HETATM    6  H   UNL     1     -39.750 -51.704  12.233  1.00  0.00     0.172 HD
ENDROOT
BRANCH   3   7
HETATM    7  C   UNL     1     -41.576 -48.039  10.488  1.00  0.00     0.121 C 
HETATM    8  C   UNL     1     -42.754 -47.758   9.545  1.00  0.00     0.057 C 
HETATM    9  C   UNL     1     -43.083 -46.274   9.748  1.00  0.00     0.275 C 
HETATM   10  N   UNL     1     -42.009 -45.785  10.606  1.00  0.00     0.095 N 
HETATM   11  C   UNL     1     -42.285 -44.547  11.318  1.00  0.00     0.273 C 
HETATM   12  C   UNL     1     -41.687 -46.900  11.506  1.00  0.00     0.245 C 
HETATM   13  C   UNL     1     -41.048 -44.153  12.135  1.00  0.00     0.030 C 
HETATM   14  C   UNL     1     -40.590 -45.282  13.066  1.00  0.00     0.004 C 
HETATM   15  C   UNL     1     -40.419 -46.597  12.296  1.00  0.00     0.038 C 
ENDBRANCH   3   7
BRANCH   4  16
HETATM   16  C   UNL     1     -41.783 -51.919  12.214  1.00  0.00     0.168 A 
HETATM   17  N   UNL     1     -42.517 -52.694  11.448  1.00  0.00    -0.279 N 
HETATM   18  N   UNL     1     -43.652 -53.129  12.106  1.00  0.00    -0.303 N 
ATOM     19  HN  UNL     1     -42.279 -52.943  10.487  1.00  0.00     0.189 HD
HETATM   20  C   UNL     1     -43.723 -52.641  13.328  1.00  0.00     0.160 A 
ATOM     21  HN  UNL     1     -44.348 -53.751  11.696  1.00  0.00     0.186 HD
HETATM   22  S   UNL     1     -42.388 -51.665  13.788  1.00  0.00    -0.046 SA
ENDBRANCH   4  16
TORSDOF 2
ENDMDL
MODEL 4
REMARK VINA RESULT:      -5.6      3.282      6.644
REMARK  2 active torsions:
REMARK  status: ('A' for Active; 'I' for Inactive)
REMARK       I    between atoms: C_2  and  N_3 
REMARK       I    between atoms: C_2  and  N_13 
REMARK    1  A    between atoms: N_3  and  C_4 
REMARK    2  A    between atoms: N_13  and  C_14 
ROOT
HETATM    1  O   UNL     1     -43.348 -48.641  12.491  1.00  0.00    -0.247 OA
HETATM    2  C   UNL     1     -42.596 -49.552  12.150  1.00  0.00     0.322 C 
HETATM    3  N   UNL     1     -41.665 -49.426  11.162  1.00  0.00    -0.336 N 
HETATM    4  N   UNL     1     -42.754 -50.774  12.719  1.00  0.00    -0.288 N 
HETATM    5  H   UNL     1     -40.928 -50.123  11.122  1.00  0.00     0.164 HD
HETATM    6  H   UNL     1     -43.552 -50.866  13.328  1.00  0.00     0.172 HD
ENDROOT
BRANCH   3   7
HETATM    7  C   UNL     1     -41.487 -48.180  10.442  1.00  0.00     0.121 C 
HETATM    8  C   UNL     1     -42.741 -47.759   9.662  1.00  0.00     0.057 C 
HETATM    9  C   UNL     1     -42.771 -46.229   9.749  1.00  0.00     0.275 C 
HETATM   10  N   UNL     1     -41.499 -45.882  10.375  1.00  0.00     0.095 N 
HETATM   11  C   UNL     1     -41.433 -44.561  10.981  1.00  0.00     0.273 C 
HETATM   12  C   UNL     1     -41.228 -46.961  11.334  1.00  0.00     0.245 C 
HETATM   13  C   UNL     1     -40.028 -44.342  11.554  1.00  0.00     0.030 C 
HETATM   14  C   UNL     1     -39.621 -45.459  12.523  1.00  0.00     0.004 C 
HETATM   15  C   UNL     1     -39.812 -46.840  11.885  1.00  0.00     0.038 C 
ENDBRANCH   3   7
BRANCH   4  16
HETATM   16  C   UNL     1     -41.983 -51.873  12.489  1.00  0.00     0.168 A 
HETATM   17  N   UNL     1     -41.504 -52.328  11.354  1.00  0.00    -0.279 N 
HETATM   18  N   UNL     1     -40.783 -53.493  11.539  1.00  0.00    -0.303 N 
ATOM     19  HN  UNL     1     -41.646 -51.878  10.449  1.00  0.00     0.189 HD
HETATM   20  C   UNL     1     -40.776 -53.865  12.803  1.00  0.00     0.160 A 
ATOM     21  HN  UNL     1     -40.315 -54.001  10.789  1.00  0.00     0.186 HD
HETATM   22  S   UNL     1     -41.594 -52.797  13.868  1.00  0.00    -0.046 SA
ENDBRANCH   4  16
TORSDOF 2
ENDMDL
MODEL 5
REMARK VINA RESULT:      -5.5      2.065      2.197
REMARK  2 active torsions:
REMARK  status: ('A' for Active; 'I' for Inactive)
REMARK       I    between atoms: C_2  and  N_3 
REMARK       I    between atoms: C_2  and  N_13 
REMARK    1  A    between atoms: N_3  and  C_4 
REMARK    2  A    between atoms: N_13  and  C_14 
ROOT
HETATM    1  O   UNL     1     -41.682 -50.915  14.151  1.00  0.00    -0.247 OA
HETATM    2  C   UNL     1     -42.019 -50.559  13.023  1.00  0.00     0.322 C 
HETATM    3  N   UNL     1     -42.728 -51.351  12.169  1.00  0.00    -0.336 N 
HETATM    4  N   UNL     1     -41.591 -49.356  12.566  1.00  0.00    -0.288 N 
HETATM    5  H   UNL     1     -43.179 -50.899  11.379  1.00  0.00     0.164 HD
HETATM    6  H   UNL     1     -40.942 -48.872  13.167  1.00  0.00     0.172 HD
ENDROOT
BRANCH   3   7
HETATM    7  C   UNL     1     -43.153 -52.685  12.545  1.00  0.00     0.121 C 
HETATM    8  C   UNL     1     -42.021 -53.516  13.164  1.00  0.00     0.057 C 
HETATM    9  C   UNL     1     -42.698 -54.377  14.237  1.00  0.00     0.275 C 
HETATM   10  N   UNL     1     -44.124 -54.134  14.042  1.00  0.00     0.095 N 
HETATM   11  C   UNL     1     -44.980 -54.458  15.172  1.00  0.00     0.273 C 
HETATM   12  C   UNL     1     -44.229 -52.727  13.634  1.00  0.00     0.245 C 
HETATM   13  C   UNL     1     -46.440 -54.185  14.789  1.00  0.00     0.030 C 
HETATM   14  C   UNL     1     -46.643 -52.751  14.284  1.00  0.00     0.004 C 
HETATM   15  C   UNL     1     -45.646 -52.412  13.170  1.00  0.00     0.038 C 
ENDBRANCH   3   7
BRANCH   4  16
HETATM   16  C   UNL     1     -41.907 -48.795  11.365  1.00  0.00     0.168 A 
HETATM   17  N   UNL     1     -41.318 -48.940  10.201  1.00  0.00    -0.279 N 
HETATM   18  N   UNL     1     -41.930 -48.177   9.224  1.00  0.00    -0.303 N 
ATOM     19  HN  UNL     1     -40.510 -49.540  10.037  1.00  0.00     0.189 HD
HETATM   20  C   UNL     1     -42.937 -47.480   9.712  1.00  0.00     0.160 A 
ATOM     21  HN  UNL     1     -41.639 -48.157   8.247  1.00  0.00     0.186 HD
HETATM   22  S   UNL     1     -43.251 -47.745  11.378  1.00  0.00    -0.046 SA
ENDBRANCH   4  16
TORSDOF 2
ENDMDL
MODEL 6
REMARK VINA RESULT:      -5.5      4.344      6.682
REMARK  2 active torsions:
REMARK  status: ('A' for Active; 'I' for Inactive)
REMARK       I    between atoms: C_2  and  N_3 
REMARK       I    between atoms: C_2  and  N_13 
REMARK    1  A    between atoms: N_3  and  C_4 
REMARK    2  A    between atoms: N_13  and  C_14 
ROOT
HETATM    1  O   UNL     1     -42.781 -47.494   9.704  1.00  0.00    -0.247 OA
HETATM    2  C   UNL     1     -42.028 -47.997  10.535  1.00  0.00     0.322 C 
HETATM    3  N   UNL     1     -41.820 -47.468  11.775  1.00  0.00    -0.336 N 
HETATM    4  N   UNL     1     -41.295 -49.082  10.178  1.00  0.00    -0.288 N 
HETATM    5  H   UNL     1     -41.397 -48.070  12.475  1.00  0.00     0.164 HD
HETATM    6  H   UNL     1     -41.360 -49.345   9.207  1.00  0.00     0.172 HD
ENDROOT
BRANCH   3   7
HETATM    7  C   UNL     1     -42.498 -46.263  12.208  1.00  0.00     0.121 C 
HETATM    8  C   UNL     1     -43.132 -46.405  13.599  1.00  0.00     0.057 C 
HETATM    9  C   UNL     1     -42.976 -45.026  14.252  1.00  0.00     0.275 C 
HETATM   10  N   UNL     1     -42.462 -44.180  13.181  1.00  0.00     0.095 N 
HETATM   11  C   UNL     1     -41.808 -42.952  13.605  1.00  0.00     0.273 C 
HETATM   12  C   UNL     1     -41.584 -45.046  12.384  1.00  0.00     0.245 C 
HETATM   13  C   UNL     1     -41.367 -42.165  12.365  1.00  0.00     0.030 C 
HETATM   14  C   UNL     1     -40.492 -43.009  11.430  1.00  0.00     0.004 C 
HETATM   15  C   UNL     1     -41.169 -44.344  11.096  1.00  0.00     0.038 C 
ENDBRANCH   3   7
BRANCH   4  16
HETATM   16  C   UNL     1     -40.450 -49.782  10.986  1.00  0.00     0.168 A 
HETATM   17  N   UNL     1     -39.138 -49.794  11.003  1.00  0.00    -0.279 N 
HETATM   18  N   UNL     1     -38.651 -50.660  11.963  1.00  0.00    -0.303 N 
ATOM     19  HN  UNL     1     -38.550 -49.233  10.385  1.00  0.00     0.189 HD
HETATM   20  C   UNL     1     -39.626 -51.273  12.604  1.00  0.00     0.160 A 
ATOM     21  HN  UNL     1     -37.660 -50.807  12.152  1.00  0.00     0.186 HD
HETATM   22  S   UNL     1     -41.205 -50.798  12.129  1.00  0.00    -0.046 SA
ENDBRANCH   4  16
TORSDOF 2
ENDMDL
MODEL 7
REMARK VINA RESULT:      -5.3      1.700      2.799
REMARK  2 active torsions:
REMARK  status: ('A' for Active; 'I' for Inactive)
REMARK       I    between atoms: C_2  and  N_3 
REMARK       I    between atoms: C_2  and  N_13 
REMARK    1  A    between atoms: N_3  and  C_4 
REMARK    2  A    between atoms: N_13  and  C_14 
ROOT
HETATM    1  O   UNL     1     -40.690 -52.915  12.040  1.00  0.00    -0.247 OA
HETATM    2  C   UNL     1     -41.033 -51.736  11.979  1.00  0.00     0.322 C 
HETATM    3  N   UNL     1     -42.159 -51.251  12.576  1.00  0.00    -0.336 N 
HETATM    4  N   UNL     1     -40.309 -50.886  11.207  1.00  0.00    -0.288 N 
HETATM    5  H   UNL     1     -42.229 -50.245  12.694  1.00  0.00     0.164 HD
HETATM    6  H   UNL     1     -39.580 -51.317  10.660  1.00  0.00     0.172 HD
ENDROOT
BRANCH   3   7
HETATM    7  C   UNL     1     -43.036 -52.107  13.350  1.00  0.00     0.121 C 
HETATM    8  C   UNL     1     -43.946 -52.976  12.470  1.00  0.00     0.057 C 
HETATM    9  C   UNL     1     -44.081 -54.304  13.225  1.00  0.00     0.275 C 
HETATM   10  N   UNL     1     -43.431 -54.054  14.507  1.00  0.00     0.095 N 
HETATM   11  C   UNL     1     -43.017 -55.236  15.246  1.00  0.00     0.273 C 
HETATM   12  C   UNL     1     -42.313 -53.149  14.209  1.00  0.00     0.245 C 
HETATM   13  C   UNL     1     -42.394 -54.802  16.578  1.00  0.00     0.030 C 
HETATM   14  C   UNL     1     -41.251 -53.799  16.378  1.00  0.00     0.004 C 
HETATM   15  C   UNL     1     -41.696 -52.623  15.500  1.00  0.00     0.038 C 
ENDBRANCH   3   7
BRANCH   4  16
HETATM   16  C   UNL     1     -40.525 -49.549  11.064  1.00  0.00     0.168 A 
HETATM   17  N   UNL     1     -41.283 -48.919  10.197  1.00  0.00    -0.279 N 
HETATM   18  N   UNL     1     -41.214 -47.549  10.365  1.00  0.00    -0.303 N 
ATOM     19  HN  UNL     1     -41.851 -49.382   9.487  1.00  0.00     0.189 HD
HETATM   20  C   UNL     1     -40.390 -47.219  11.339  1.00  0.00     0.160 A 
ATOM     21  HN  UNL     1     -41.737 -46.876   9.805  1.00  0.00     0.186 HD
HETATM   22  S   UNL     1     -39.683 -48.550  12.160  1.00  0.00    -0.046 SA
ENDBRANCH   4  16
TORSDOF 2
ENDMDL
MODEL 8
REMARK VINA RESULT:      -5.3      3.415      6.156
REMARK  2 active torsions:
REMARK  status: ('A' for Active; 'I' for Inactive)
REMARK       I    between atoms: C_2  and  N_3 
REMARK       I    between atoms: C_2  and  N_13 
REMARK    1  A    between atoms: N_3  and  C_4 
REMARK    2  A    between atoms: N_13  and  C_14 
ROOT
HETATM    1  O   UNL     1     -39.435 -54.058  13.409  1.00  0.00    -0.247 OA
HETATM    2  C   UNL     1     -40.455 -53.396  13.229  1.00  0.00     0.322 C 
HETATM    3  N   UNL     1     -40.448 -52.046  13.036  1.00  0.00    -0.336 N 
HETATM    4  N   UNL     1     -41.659 -54.017  13.313  1.00  0.00    -0.288 N 
HETATM    5  H   UNL     1     -41.285 -51.625  12.645  1.00  0.00     0.164 HD
HETATM    6  H   UNL     1     -41.626 -54.980  13.611  1.00  0.00     0.172 HD
ENDROOT
BRANCH   3   7
HETATM    7  C   UNL     1     -39.211 -51.289  13.017  1.00  0.00     0.121 C 
HETATM    8  C   UNL     1     -39.197 -50.201  11.934  1.00  0.00     0.057 C 
HETATM    9  C   UNL     1     -38.413 -49.036  12.549  1.00  0.00     0.275 C 
HETATM   10  N   UNL     1     -37.895 -49.576  13.801  1.00  0.00     0.095 N 
HETATM   11  C   UNL     1     -37.493 -48.592  14.795  1.00  0.00     0.273 C 
HETATM   12  C   UNL     1     -38.934 -50.490  14.293  1.00  0.00     0.245 C 
HETATM   13  C   UNL     1     -36.938 -49.320  16.025  1.00  0.00     0.030 C 
HETATM   14  C   UNL     1     -37.929 -50.350  16.579  1.00  0.00     0.004 C 
HETATM   15  C   UNL     1     -38.414 -51.299  15.476  1.00  0.00     0.038 C 
ENDBRANCH   3   7
BRANCH   4  16
HETATM   16  C   UNL     1     -42.876 -53.444  13.099  1.00  0.00     0.168 A 
HETATM   17  N   UNL     1     -43.489 -53.198  11.964  1.00  0.00    -0.279 N 
HETATM   18  N   UNL     1     -44.707 -52.579  12.171  1.00  0.00    -0.303 N 
ATOM     19  HN  UNL     1     -43.114 -53.435  11.046  1.00  0.00     0.189 HD
HETATM   20  C   UNL     1     -44.937 -52.372  13.452  1.00  0.00     0.160 A 
ATOM     21  HN  UNL     1     -45.349 -52.315  11.424  1.00  0.00     0.186 HD
HETATM   22  S   UNL     1     -43.718 -52.966  14.503  1.00  0.00    -0.046 SA
ENDBRANCH   4  16
TORSDOF 2
ENDMDL
MODEL 9
REMARK VINA RESULT:      -5.1      1.850      2.803
REMARK  2 active torsions:
REMARK  status: ('A' for Active; 'I' for Inactive)
REMARK       I    between atoms: C_2  and  N_3 
REMARK       I    between atoms: C_2  and  N_13 
REMARK    1  A    between atoms: N_3  and  C_4 
REMARK    2  A    between atoms: N_13  and  C_14 
ROOT
HETATM    1  O   UNL     1     -43.148 -53.330  13.949  1.00  0.00    -0.247 OA
HETATM    2  C   UNL     1     -42.690 -52.376  13.323  1.00  0.00     0.322 C 
HETATM    3  N   UNL     1     -43.421 -51.270  13.004  1.00  0.00    -0.336 N 
HETATM    4  N   UNL     1     -41.424 -52.459  12.844  1.00  0.00    -0.288 N 
HETATM    5  H   UNL     1     -42.911 -50.438  12.722  1.00  0.00     0.164 HD
HETATM    6  H   UNL     1     -40.974 -53.353  12.966  1.00  0.00     0.172 HD
ENDROOT
BRANCH   3   7
HETATM    7  C   UNL     1     -44.808 -51.136  13.403  1.00  0.00     0.121 C 
HETATM    8  C   UNL     1     -45.720 -52.177  12.741  1.00  0.00     0.057 C 
HETATM    9  C   UNL     1     -46.774 -52.517  13.801  1.00  0.00     0.275 C 
HETATM   10  N   UNL     1     -46.523 -51.560  14.874  1.00  0.00     0.095 N 
HETATM   11  C   UNL     1     -47.064 -51.915  16.176  1.00  0.00     0.273 C 
HETATM   12  C   UNL     1     -45.067 -51.369  14.894  1.00  0.00     0.245 C 
HETATM   13  C   UNL     1     -46.749 -50.793  17.173  1.00  0.00     0.030 C 
HETATM   14  C   UNL     1     -45.251 -50.471  17.221  1.00  0.00     0.004 C 
HETATM   15  C   UNL     1     -44.696 -50.212  15.815  1.00  0.00     0.038 C 
ENDBRANCH   3   7
BRANCH   4  16
HETATM   16  C   UNL     1     -40.754 -51.481  12.171  1.00  0.00     0.168 A 
HETATM   17  N   UNL     1     -40.850 -51.125  10.912  1.00  0.00    -0.279 N 
HETATM   18  N   UNL     1     -39.976 -50.098  10.607  1.00  0.00    -0.303 N 
ATOM     19  HN  UNL     1     -41.489 -51.552  10.241  1.00  0.00     0.189 HD
HETATM   20  C   UNL     1     -39.252 -49.750  11.652  1.00  0.00     0.160 A 
ATOM     21  HN  UNL     1     -39.902 -49.664   9.688  1.00  0.00     0.186 HD
HETATM   22  S   UNL     1     -39.620 -50.603  13.094  1.00  0.00    -0.046 SA
ENDBRANCH   4  16
TORSDOF 2
ENDMDL
