MODEL 1
REMARK VINA RESULT:      -6.4      0.000      0.000
REMARK  5 active torsions:
REMARK  status: ('A' for Active; 'I' for Inactive)
REMARK       I    between atoms: N_1  and  C_2 
REMARK    1  A    between atoms: C_2  and  C_4 
REMARK    2  A    between atoms: C_4  and  N_5 
REMARK    3  A    between atoms: C_7  and  N_8 
REMARK       I    between atoms: N_8  and  C_9 
REMARK    4  A    between atoms: C_9  and  C_11 
REMARK    5  A    between atoms: C_11  and  C_12 
ROOT
HETATM    1  N   UNL     1     -42.862 -47.410   9.806  1.00  0.00    -0.293 N 
HETATM    2  C   UNL     1     -43.612 -47.967  10.801  1.00  0.00     0.141 A 
HETATM    3  C   UNL     1     -42.731 -48.461  11.733  1.00  0.00     0.069 A 
HETATM    4  C   UNL     1     -41.458 -48.191  11.180  1.00  0.00     0.138 A 
HETATM    5  N   UNL     1     -41.528 -47.548  10.010  1.00  0.00    -0.307 N 
ATOM      6  HN  UNL     1     -40.761 -47.236   9.413  1.00  0.00     0.186 HD
ENDROOT
BRANCH   3   7
HETATM    7  N   UNL     1     -43.013 -49.086  12.934  1.00  0.00    -0.325 N 
HETATM    8  C   UNL     1     -42.780 -50.426  13.190  1.00  0.00     0.222 C 
HETATM    9  O   UNL     1     -42.278 -51.230  12.408  1.00  0.00    -0.273 OA
HETATM   10  H   UNL     1     -43.476 -48.527  13.639  1.00  0.00     0.169 HD
BRANCH   8  11
HETATM   11  C   UNL     1     -43.219 -50.862  14.581  1.00  0.00     0.108 C 
BRANCH  11  12
HETATM   12  C   UNL     1     -44.740 -50.837  14.682  1.00  0.00    -0.001 C 
HETATM   13  C   UNL     1     -45.360 -51.435  15.962  1.00  0.00     0.010 C 
HETATM   14  C   UNL     1     -46.656 -52.101  15.426  1.00  0.00    -0.014 C 
HETATM   15  C   UNL     1     -46.290 -53.482  14.876  1.00  0.00     0.005 C 
HETATM   16  C   UNL     1     -46.934 -51.362  14.112  1.00  0.00     0.009 C 
HETATM   17  C   UNL     1     -45.363 -53.123  13.702  1.00  0.00     0.005 C 
HETATM   18  C   UNL     1     -45.514 -51.587  13.580  1.00  0.00    -0.010 C 
ENDBRANCH  11  12
ENDBRANCH   8  11
ENDBRANCH   3   7
BRANCH   1  19
HETATM   19  C   UNL     1     -43.364 -46.771   8.604  1.00  0.00     0.250 C 
BRANCH  19  20
HETATM   20  C   UNL     1     -44.306 -45.619   8.873  1.00  0.00     0.235 C 
HETATM   21  N   UNL     1     -45.643 -45.869   8.825  1.00  0.00    -0.369 N 
HETATM   22  H   UNL     1     -46.298 -45.111   8.990  1.00  0.00     0.159 HD
HETATM   23  H   UNL     1     -45.993 -46.768   8.498  1.00  0.00     0.159 HD
HETATM   24  O   UNL     1     -43.903 -44.508   9.215  1.00  0.00    -0.272 OA
ENDBRANCH  19  20
ENDBRANCH   1  19
TORSDOF 5
ENDMDL
MODEL 2
REMARK VINA RESULT:      -6.4      1.909      2.631
REMARK  5 active torsions:
REMARK  status: ('A' for Active; 'I' for Inactive)
REMARK       I    between atoms: N_1  and  C_2 
REMARK    1  A    between atoms: C_2  and  C_4 
REMARK    2  A    between atoms: C_4  and  N_5 
REMARK    3  A    between atoms: C_7  and  N_8 
REMARK       I    between atoms: N_8  and  C_9 
REMARK    4  A    between atoms: C_9  and  C_11 
REMARK    5  A    between atoms: C_11  and  C_12 
ROOT
HETATM    1  N   UNL     1     -40.675 -47.017  11.203  1.00  0.00    -0.293 N 
HETATM    2  C   UNL     1     -41.025 -47.903  12.180  1.00  0.00     0.141 A 
HETATM    3  C   UNL     1     -41.991 -48.721  11.646  1.00  0.00     0.069 A 
HETATM    4  C   UNL     1     -42.189 -48.214  10.342  1.00  0.00     0.138 A 
HETATM    5  N   UNL     1     -41.390 -47.179  10.062  1.00  0.00    -0.307 N 
ATOM      6  HN  UNL     1     -41.332 -46.641   9.197  1.00  0.00     0.186 HD
ENDROOT
BRANCH   3   7
HETATM    7  N   UNL     1     -42.632 -49.793  12.241  1.00  0.00    -0.325 N 
HETATM    8  C   UNL     1     -42.017 -50.992  12.557  1.00  0.00     0.222 C 
HETATM    9  O   UNL     1     -40.831 -51.260  12.379  1.00  0.00    -0.273 OA
HETATM   10  H   UNL     1     -43.629 -49.701  12.390  1.00  0.00     0.169 HD
BRANCH   8  11
HETATM   11  C   UNL     1     -42.964 -52.015  13.169  1.00  0.00     0.108 C 
BRANCH  11  12
HETATM   12  C   UNL     1     -44.395 -51.493  13.130  1.00  0.00    -0.001 C 
HETATM   13  C   UNL     1     -45.014 -51.065  14.477  1.00  0.00     0.010 C 
HETATM   14  C   UNL     1     -46.495 -51.499  14.317  1.00  0.00    -0.014 C 
HETATM   15  C   UNL     1     -46.596 -52.987  14.666  1.00  0.00     0.005 C 
HETATM   16  C   UNL     1     -46.697 -51.574  12.799  1.00  0.00     0.009 C 
HETATM   17  C   UNL     1     -45.740 -53.633  13.563  1.00  0.00     0.005 C 
HETATM   18  C   UNL     1     -45.465 -52.461  12.588  1.00  0.00    -0.010 C 
ENDBRANCH  11  12
ENDBRANCH   8  11
ENDBRANCH   3   7
BRANCH   1  19
HETATM   19  C   UNL     1     -39.693 -45.954  11.315  1.00  0.00     0.250 C 
BRANCH  19  20
HETATM   20  C   UNL     1     -39.809 -44.900  10.237  1.00  0.00     0.235 C 
HETATM   21  N   UNL     1     -38.924 -44.948   9.205  1.00  0.00    -0.369 N 
HETATM   22  H   UNL     1     -38.971 -44.245   8.474  1.00  0.00     0.159 HD
HETATM   23  H   UNL     1     -38.136 -45.594   9.224  1.00  0.00     0.159 HD
HETATM   24  O   UNL     1     -40.720 -44.073  10.224  1.00  0.00    -0.272 OA
ENDBRANCH  19  20
ENDBRANCH   1  19
TORSDOF 5
ENDMDL
MODEL 3
REMARK VINA RESULT:      -6.2      4.474      5.630
REMARK  5 active torsions:
REMARK  status: ('A' for Active; 'I' for Inactive)
REMARK       I    between atoms: N_1  and  C_2 
REMARK    1  A    between atoms: C_2  and  C_4 
REMARK    2  A    between atoms: C_4  and  N_5 
REMARK    3  A    between atoms: C_7  and  N_8 
REMARK       I    between atoms: N_8  and  C_9 
REMARK    4  A    between atoms: C_9  and  C_11 
REMARK    5  A    between atoms: C_11  and  C_12 
ROOT
HETATM    1  N   UNL     1     -44.832 -47.064   9.275  1.00  0.00    -0.293 N 
HETATM    2  C   UNL     1     -43.925 -47.772  10.009  1.00  0.00     0.141 A 
HETATM    3  C   UNL     1     -42.697 -47.197   9.784  1.00  0.00     0.069 A 
HETATM    4  C   UNL     1     -42.966 -46.167   8.854  1.00  0.00     0.138 A 
HETATM    5  N   UNL     1     -44.263 -46.075   8.542  1.00  0.00    -0.307 N 
ATOM      6  HN  UNL     1     -44.715 -45.419   7.905  1.00  0.00     0.186 HD
ENDROOT
BRANCH   3   7
HETATM    7  N   UNL     1     -41.474 -47.542  10.330  1.00  0.00    -0.325 N 
HETATM    8  C   UNL     1     -40.839 -46.830  11.332  1.00  0.00     0.222 C 
HETATM    9  O   UNL     1     -41.274 -45.821  11.884  1.00  0.00    -0.273 OA
HETATM   10  H   UNL     1     -40.999 -48.334   9.917  1.00  0.00     0.169 HD
BRANCH   8  11
HETATM   11  C   UNL     1     -39.486 -47.409  11.722  1.00  0.00     0.108 C 
BRANCH  11  12
HETATM   12  C   UNL     1     -39.668 -48.784  12.355  1.00  0.00    -0.001 C 
HETATM   13  C   UNL     1     -38.956 -49.026  13.702  1.00  0.00     0.010 C 
HETATM   14  C   UNL     1     -38.531 -50.515  13.592  1.00  0.00    -0.014 C 
HETATM   15  C   UNL     1     -37.217 -50.579  12.808  1.00  0.00     0.005 C 
HETATM   16  C   UNL     1     -39.488 -51.096  12.545  1.00  0.00     0.009 C 
HETATM   17  C   UNL     1     -37.644 -50.054  11.426  1.00  0.00     0.005 C 
HETATM   18  C   UNL     1     -39.188 -49.991  11.526  1.00  0.00    -0.010 C 
ENDBRANCH  11  12
ENDBRANCH   8  11
ENDBRANCH   3   7
BRANCH   1  19
HETATM   19  C   UNL     1     -46.259 -47.316   9.195  1.00  0.00     0.250 C 
BRANCH  19  20
HETATM   20  C   UNL     1     -46.607 -48.689   8.664  1.00  0.00     0.235 C 
HETATM   21  N   UNL     1     -46.991 -49.637   9.560  1.00  0.00    -0.369 N 
HETATM   22  H   UNL     1     -47.218 -50.571   9.233  1.00  0.00     0.159 HD
HETATM   23  H   UNL     1     -46.924 -49.464  10.563  1.00  0.00     0.159 HD
HETATM   24  O   UNL     1     -46.639 -48.937   7.459  1.00  0.00    -0.272 OA
ENDBRANCH  19  20
ENDBRANCH   1  19
TORSDOF 5
ENDMDL
MODEL 4
REMARK VINA RESULT:      -6.1      3.104      3.803
REMARK  5 active torsions:
REMARK  status: ('A' for Active; 'I' for Inactive)
REMARK       I    between atoms: N_1  and  C_2 
REMARK    1  A    between atoms: C_2  and  C_4 
REMARK    2  A    between atoms: C_4  and  N_5 
REMARK    3  A    between atoms: C_7  and  N_8 
REMARK       I    between atoms: N_8  and  C_9 
REMARK    4  A    between atoms: C_9  and  C_11 
REMARK    5  A    between atoms: C_11  and  C_12 
ROOT
HETATM    1  N   UNL     1     -42.417 -47.122   9.757  1.00  0.00    -0.293 N 
HETATM    2  C   UNL     1     -42.442 -48.220  10.568  1.00  0.00     0.141 A 
HETATM    3  C   UNL     1     -41.417 -48.069  11.472  1.00  0.00     0.069 A 
HETATM    4  C   UNL     1     -40.798 -46.857  11.090  1.00  0.00     0.138 A 
HETATM    5  N   UNL     1     -41.402 -46.272  10.050  1.00  0.00    -0.307 N 
ATOM      6  HN  UNL     1     -41.158 -45.395   9.589  1.00  0.00     0.186 HD
ENDROOT
BRANCH   3   7
HETATM    7  N   UNL     1     -41.062 -48.906  12.514  1.00  0.00    -0.325 N 
HETATM    8  C   UNL     1     -39.974 -49.761  12.491  1.00  0.00     0.222 C 
HETATM    9  O   UNL     1     -39.171 -49.878  11.568  1.00  0.00    -0.273 OA
HETATM   10  H   UNL     1     -41.683 -48.928  13.312  1.00  0.00     0.169 HD
BRANCH   8  11
HETATM   11  C   UNL     1     -39.835 -50.598  13.755  1.00  0.00     0.108 C 
BRANCH  11  12
HETATM   12  C   UNL     1     -39.714 -52.074  13.396  1.00  0.00    -0.001 C 
HETATM   13  C   UNL     1     -40.827 -52.664  12.506  1.00  0.00     0.010 C 
HETATM   14  C   UNL     1     -40.981 -54.101  13.071  1.00  0.00    -0.014 C 
HETATM   15  C   UNL     1     -41.899 -54.037  14.296  1.00  0.00     0.005 C 
HETATM   16  C   UNL     1     -39.641 -54.370  13.765  1.00  0.00     0.009 C 
HETATM   17  C   UNL     1     -41.074 -53.177  15.269  1.00  0.00     0.005 C 
HETATM   18  C   UNL     1     -39.695 -53.069  14.573  1.00  0.00    -0.010 C 
ENDBRANCH  11  12
ENDBRANCH   8  11
ENDBRANCH   3   7
BRANCH   1  19
HETATM   19  C   UNL     1     -43.311 -46.851   8.648  1.00  0.00     0.250 C 
BRANCH  19  20
HETATM   20  C   UNL     1     -44.237 -45.677   8.882  1.00  0.00     0.235 C 
HETATM   21  N   UNL     1     -45.576 -45.914   8.871  1.00  0.00    -0.369 N 
HETATM   22  H   UNL     1     -46.220 -45.143   9.013  1.00  0.00     0.159 HD
HETATM   23  H   UNL     1     -45.943 -46.823   8.591  1.00  0.00     0.159 HD
HETATM   24  O   UNL     1     -43.815 -44.557   9.166  1.00  0.00    -0.272 OA
ENDBRANCH  19  20
ENDBRANCH   1  19
TORSDOF 5
ENDMDL
MODEL 5
REMARK VINA RESULT:      -5.7      3.853      5.167
REMARK  5 active torsions:
REMARK  status: ('A' for Active; 'I' for Inactive)
REMARK       I    between atoms: N_1  and  C_2 
REMARK    1  A    between atoms: C_2  and  C_4 
REMARK    2  A    between atoms: C_4  and  N_5 
REMARK    3  A    between atoms: C_7  and  N_8 
REMARK       I    between atoms: N_8  and  C_9 
REMARK    4  A    between atoms: C_9  and  C_11 
REMARK    5  A    between atoms: C_11  and  C_12 
ROOT
HETATM    1  N   UNL     1     -40.461 -52.482  13.242  1.00  0.00    -0.293 N 
HETATM    2  C   UNL     1     -41.699 -52.414  13.812  1.00  0.00     0.141 A 
HETATM    3  C   UNL     1     -42.232 -53.679  13.755  1.00  0.00     0.069 A 
HETATM    4  C   UNL     1     -41.246 -54.438  13.084  1.00  0.00     0.138 A 
HETATM    5  N   UNL     1     -40.163 -53.718  12.772  1.00  0.00    -0.307 N 
ATOM      6  HN  UNL     1     -39.315 -54.026  12.295  1.00  0.00     0.186 HD
ENDROOT
BRANCH   3   7
HETATM    7  N   UNL     1     -43.453 -54.119  14.235  1.00  0.00    -0.325 N 
HETATM    8  C   UNL     1     -44.579 -54.300  13.451  1.00  0.00     0.222 C 
HETATM    9  O   UNL     1     -44.646 -54.122  12.237  1.00  0.00    -0.273 OA
HETATM   10  H   UNL     1     -43.527 -54.253  15.235  1.00  0.00     0.169 HD
BRANCH   8  11
HETATM   11  C   UNL     1     -45.799 -54.755  14.240  1.00  0.00     0.108 C 
BRANCH  11  12
HETATM   12  C   UNL     1     -46.638 -53.550  14.649  1.00  0.00    -0.001 C 
HETATM   13  C   UNL     1     -46.458 -52.266  13.814  1.00  0.00     0.010 C 
HETATM   14  C   UNL     1     -46.599 -51.149  14.883  1.00  0.00    -0.014 C 
HETATM   15  C   UNL     1     -45.242 -50.974  15.571  1.00  0.00     0.005 C 
HETATM   16  C   UNL     1     -47.381 -51.822  16.017  1.00  0.00     0.009 C 
HETATM   17  C   UNL     1     -45.054 -52.337  16.259  1.00  0.00     0.005 C 
HETATM   18  C   UNL     1     -46.431 -53.022  16.082  1.00  0.00    -0.010 C 
ENDBRANCH  11  12
ENDBRANCH   8  11
ENDBRANCH   3   7
BRANCH   1  19
HETATM   19  C   UNL     1     -39.530 -51.382  13.072  1.00  0.00     0.250 C 
BRANCH  19  20
HETATM   20  C   UNL     1     -39.981 -50.351  12.061  1.00  0.00     0.235 C 
HETATM   21  N   UNL     1     -40.708 -50.784  10.996  1.00  0.00    -0.369 N 
HETATM   22  H   UNL     1     -41.013 -50.116  10.295  1.00  0.00     0.159 HD
HETATM   23  H   UNL     1     -40.836 -51.781  10.822  1.00  0.00     0.159 HD
HETATM   24  O   UNL     1     -39.787 -49.147  12.221  1.00  0.00    -0.272 OA
ENDBRANCH  19  20
ENDBRANCH   1  19
TORSDOF 5
ENDMDL
MODEL 6
REMARK VINA RESULT:      -5.6      4.840      5.555
REMARK  5 active torsions:
REMARK  status: ('A' for Active; 'I' for Inactive)
REMARK       I    between atoms: N_1  and  C_2 
REMARK    1  A    between atoms: C_2  and  C_4 
REMARK    2  A    between atoms: C_4  and  N_5 
REMARK    3  A    between atoms: C_7  and  N_8 
REMARK       I    between atoms: N_8  and  C_9 
REMARK    4  A    between atoms: C_9  and  C_11 
REMARK    5  A    between atoms: C_11  and  C_12 
ROOT
HETATM    1  N   UNL     1     -39.053 -50.872  13.228  1.00  0.00    -0.293 N 
HETATM    2  C   UNL     1     -40.273 -51.477  13.121  1.00  0.00     0.141 A 
HETATM    3  C   UNL     1     -40.441 -52.233  14.256  1.00  0.00     0.069 A 
HETATM    4  C   UNL     1     -39.235 -52.052  14.971  1.00  0.00     0.138 A 
HETATM    5  N   UNL     1     -38.386 -51.223  14.355  1.00  0.00    -0.307 N 
ATOM      6  HN  UNL     1     -37.460 -50.925  14.661  1.00  0.00     0.186 HD
ENDROOT
BRANCH   3   7
HETATM    7  N   UNL     1     -41.531 -53.002  14.621  1.00  0.00    -0.325 N 
HETATM    8  C   UNL     1     -41.968 -54.116  13.926  1.00  0.00     0.222 C 
HETATM    9  O   UNL     1     -41.444 -54.585  12.917  1.00  0.00    -0.273 OA
HETATM   10  H   UNL     1     -42.070 -52.679  15.414  1.00  0.00     0.169 HD
BRANCH   8  11
HETATM   11  C   UNL     1     -43.214 -54.753  14.525  1.00  0.00     0.108 C 
BRANCH  11  12
HETATM   12  C   UNL     1     -44.461 -54.225  13.824  1.00  0.00    -0.001 C 
HETATM   13  C   UNL     1     -44.234 -53.279  12.627  1.00  0.00     0.010 C 
HETATM   14  C   UNL     1     -45.412 -52.277  12.765  1.00  0.00    -0.014 C 
HETATM   15  C   UNL     1     -45.007 -51.203  13.778  1.00  0.00     0.005 C 
HETATM   16  C   UNL     1     -46.450 -53.040  13.596  1.00  0.00     0.009 C 
HETATM   17  C   UNL     1     -44.862 -52.021  15.072  1.00  0.00     0.005 C 
HETATM   18  C   UNL     1     -45.439 -53.406  14.689  1.00  0.00    -0.010 C 
ENDBRANCH  11  12
ENDBRANCH   8  11
ENDBRANCH   3   7
BRANCH   1  19
HETATM   19  C   UNL     1     -38.445 -49.983  12.256  1.00  0.00     0.250 C 
BRANCH  19  20
HETATM   20  C   UNL     1     -37.373 -50.639  11.415  1.00  0.00     0.235 C 
HETATM   21  N   UNL     1     -37.088 -50.085  10.205  1.00  0.00    -0.369 N 
HETATM   22  H   UNL     1     -36.382 -50.512   9.615  1.00  0.00     0.159 HD
HETATM   23  H   UNL     1     -37.663 -49.332   9.828  1.00  0.00     0.159 HD
HETATM   24  O   UNL     1     -36.704 -51.586  11.827  1.00  0.00    -0.272 OA
ENDBRANCH  19  20
ENDBRANCH   1  19
TORSDOF 5
ENDMDL
MODEL 7
REMARK VINA RESULT:      -5.6      4.419      6.272
REMARK  5 active torsions:
REMARK  status: ('A' for Active; 'I' for Inactive)
REMARK       I    between atoms: N_1  and  C_2 
REMARK    1  A    between atoms: C_2  and  C_4 
REMARK    2  A    between atoms: C_4  and  N_5 
REMARK    3  A    between atoms: C_7  and  N_8 
REMARK       I    between atoms: N_8  and  C_9 
REMARK    4  A    between atoms: C_9  and  C_11 
REMARK    5  A    between atoms: C_11  and  C_12 
ROOT
HETATM    1  N   UNL     1     -42.065 -47.483  10.500  1.00  0.00    -0.293 N 
HETATM    2  C   UNL     1     -41.477 -48.387  11.338  1.00  0.00     0.141 A 
HETATM    3  C   UNL     1     -40.252 -47.869  11.684  1.00  0.00     0.069 A 
HETATM    4  C   UNL     1     -40.174 -46.657  10.960  1.00  0.00     0.138 A 
HETATM    5  N   UNL     1     -41.274 -46.412  10.241  1.00  0.00    -0.307 N 
ATOM      6  HN  UNL     1     -41.471 -45.611   9.640  1.00  0.00     0.186 HD
ENDROOT
BRANCH   3   7
HETATM    7  N   UNL     1     -39.305 -48.404  12.538  1.00  0.00    -0.325 N 
HETATM    8  C   UNL     1     -38.389 -49.376  12.175  1.00  0.00     0.222 C 
HETATM    9  O   UNL     1     -38.274 -49.875  11.057  1.00  0.00    -0.273 OA
HETATM   10  H   UNL     1     -39.338 -48.100  13.502  1.00  0.00     0.169 HD
BRANCH   8  11
HETATM   11  C   UNL     1     -37.486 -49.814  13.320  1.00  0.00     0.108 C 
BRANCH  11  12
HETATM   12  C   UNL     1     -37.783 -48.988  14.566  1.00  0.00    -0.001 C 
HETATM   13  C   UNL     1     -36.870 -47.772  14.825  1.00  0.00     0.010 C 
HETATM   14  C   UNL     1     -36.754 -47.765  16.373  1.00  0.00    -0.014 C 
HETATM   15  C   UNL     1     -35.658 -48.758  16.773  1.00  0.00     0.005 C 
HETATM   16  C   UNL     1     -37.991 -48.540  16.840  1.00  0.00     0.009 C 
HETATM   17  C   UNL     1     -36.251 -50.096  16.299  1.00  0.00     0.005 C 
HETATM   18  C   UNL     1     -37.706 -49.729  15.916  1.00  0.00    -0.010 C 
ENDBRANCH  11  12
ENDBRANCH   8  11
ENDBRANCH   3   7
BRANCH   1  19
HETATM   19  C   UNL     1     -43.367 -47.609   9.874  1.00  0.00     0.250 C 
BRANCH  19  20
HETATM   20  C   UNL     1     -43.426 -47.050   8.469  1.00  0.00     0.235 C 
HETATM   21  N   UNL     1     -43.714 -47.910   7.456  1.00  0.00    -0.369 N 
HETATM   22  H   UNL     1     -43.747 -47.564   6.502  1.00  0.00     0.159 HD
HETATM   23  H   UNL     1     -43.764 -48.914   7.623  1.00  0.00     0.159 HD
HETATM   24  O   UNL     1     -43.311 -45.847   8.238  1.00  0.00    -0.272 OA
ENDBRANCH  19  20
ENDBRANCH   1  19
TORSDOF 5
ENDMDL
MODEL 8
REMARK VINA RESULT:      -5.5      2.092      2.566
REMARK  5 active torsions:
REMARK  status: ('A' for Active; 'I' for Inactive)
REMARK       I    between atoms: N_1  and  C_2 
REMARK    1  A    between atoms: C_2  and  C_4 
REMARK    2  A    between atoms: C_4  and  N_5 
REMARK    3  A    between atoms: C_7  and  N_8 
REMARK       I    between atoms: N_8  and  C_9 
REMARK    4  A    between atoms: C_9  and  C_11 
REMARK    5  A    between atoms: C_11  and  C_12 
ROOT
HETATM    1  N   UNL     1     -41.929 -47.585  11.578  1.00  0.00    -0.293 N 
HETATM    2  C   UNL     1     -42.539 -48.701  12.074  1.00  0.00     0.141 A 
HETATM    3  C   UNL     1     -41.755 -49.772  11.718  1.00  0.00     0.069 A 
HETATM    4  C   UNL     1     -40.708 -49.196  10.964  1.00  0.00     0.138 A 
HETATM    5  N   UNL     1     -40.803 -47.865  10.876  1.00  0.00    -0.307 N 
ATOM      6  HN  UNL     1     -40.179 -47.217  10.397  1.00  0.00     0.186 HD
ENDROOT
BRANCH   3   7
HETATM    7  N   UNL     1     -41.941 -51.110  12.019  1.00  0.00    -0.325 N 
HETATM    8  C   UNL     1     -41.351 -51.756  13.091  1.00  0.00     0.222 C 
HETATM    9  O   UNL     1     -40.611 -51.239  13.925  1.00  0.00    -0.273 OA
HETATM   10  H   UNL     1     -42.497 -51.649  11.368  1.00  0.00     0.169 HD
BRANCH   8  11
HETATM   11  C   UNL     1     -41.696 -53.238  13.168  1.00  0.00     0.108 C 
BRANCH  11  12
HETATM   12  C   UNL     1     -42.697 -53.485  14.290  1.00  0.00    -0.001 C 
HETATM   13  C   UNL     1     -42.994 -54.957  14.643  1.00  0.00     0.010 C 
HETATM   14  C   UNL     1     -44.505 -54.918  14.996  1.00  0.00    -0.014 C 
HETATM   15  C   UNL     1     -45.302 -54.999  13.691  1.00  0.00     0.005 C 
HETATM   16  C   UNL     1     -44.760 -53.453  15.367  1.00  0.00     0.009 C 
HETATM   17  C   UNL     1     -44.896 -53.692  12.987  1.00  0.00     0.005 C 
HETATM   18  C   UNL     1     -44.117 -52.921  14.081  1.00  0.00    -0.010 C 
ENDBRANCH  11  12
ENDBRANCH   8  11
ENDBRANCH   3   7
BRANCH   1  19
HETATM   19  C   UNL     1     -42.403 -46.219  11.701  1.00  0.00     0.250 C 
BRANCH  19  20
HETATM   20  C   UNL     1     -42.430 -45.462  10.392  1.00  0.00     0.235 C 
HETATM   21  N   UNL     1     -43.641 -45.080   9.905  1.00  0.00    -0.369 N 
HETATM   22  H   UNL     1     -43.689 -44.581   9.022  1.00  0.00     0.159 HD
HETATM   23  H   UNL     1     -44.504 -45.401  10.343  1.00  0.00     0.159 HD
HETATM   24  O   UNL     1     -41.401 -45.113   9.815  1.00  0.00    -0.272 OA
ENDBRANCH  19  20
ENDBRANCH   1  19
TORSDOF 5
ENDMDL
MODEL 9
REMARK VINA RESULT:      -5.4      3.227      4.187
REMARK  5 active torsions:
REMARK  status: ('A' for Active; 'I' for Inactive)
REMARK       I    between atoms: N_1  and  C_2 
REMARK    1  A    between atoms: C_2  and  C_4 
REMARK    2  A    between atoms: C_4  and  N_5 
REMARK    3  A    between atoms: C_7  and  N_8 
REMARK       I    between atoms: N_8  and  C_9 
REMARK    4  A    between atoms: C_9  and  C_11 
REMARK    5  A    between atoms: C_11  and  C_12 
ROOT
HETATM    1  N   UNL     1     -39.148 -48.726  13.088  1.00  0.00    -0.293 N 
HETATM    2  C   UNL     1     -40.100 -49.647  13.416  1.00  0.00     0.141 A 
HETATM    3  C   UNL     1     -39.485 -50.876  13.407  1.00  0.00     0.069 A 
HETATM    4  C   UNL     1     -38.158 -50.592  13.013  1.00  0.00     0.138 A 
HETATM    5  N   UNL     1     -37.942 -49.286  12.820  1.00  0.00    -0.307 N 
ATOM      6  HN  UNL     1     -37.077 -48.823  12.540  1.00  0.00     0.186 HD
ENDROOT
BRANCH   3   7
HETATM    7  N   UNL     1     -40.030 -52.111  13.707  1.00  0.00    -0.325 N 
HETATM    8  C   UNL     1     -40.622 -52.948  12.777  1.00  0.00     0.222 C 
HETATM    9  O   UNL     1     -40.724 -52.727  11.573  1.00  0.00    -0.273 OA
HETATM   10  H   UNL     1     -40.044 -52.377  14.683  1.00  0.00     0.169 HD
BRANCH   8  11
HETATM   11  C   UNL     1     -41.174 -54.231  13.384  1.00  0.00     0.108 C 
BRANCH  11  12
HETATM   12  C   UNL     1     -42.332 -53.911  14.321  1.00  0.00    -0.001 C 
HETATM   13  C   UNL     1     -43.043 -55.111  14.981  1.00  0.00     0.010 C 
HETATM   14  C   UNL     1     -44.522 -54.643  15.020  1.00  0.00    -0.014 C 
HETATM   15  C   UNL     1     -45.150 -54.934  13.654  1.00  0.00     0.005 C 
HETATM   16  C   UNL     1     -44.429 -53.115  14.943  1.00  0.00     0.009 C 
HETATM   17  C   UNL     1     -44.337 -54.017  12.726  1.00  0.00     0.005 C 
HETATM   18  C   UNL     1     -43.520 -53.143  13.709  1.00  0.00    -0.010 C 
ENDBRANCH  11  12
ENDBRANCH   8  11
ENDBRANCH   3   7
BRANCH   1  19
HETATM   19  C   UNL     1     -39.341 -47.293  12.965  1.00  0.00     0.250 C 
BRANCH  19  20
HETATM   20  C   UNL     1     -40.414 -46.905  11.972  1.00  0.00     0.235 C 
HETATM   21  N   UNL     1     -40.114 -46.993  10.648  1.00  0.00    -0.369 N 
HETATM   22  H   UNL     1     -40.812 -46.727   9.960  1.00  0.00     0.159 HD
HETATM   23  H   UNL     1     -39.163 -47.192  10.341  1.00  0.00     0.159 HD
HETATM   24  O   UNL     1     -41.555 -46.606  12.323  1.00  0.00    -0.272 OA
ENDBRANCH  19  20
ENDBRANCH   1  19
TORSDOF 5
ENDMDL
