MODEL 1
REMARK VINA RESULT:      -6.0      0.000      0.000
REMARK  6 active torsions:
REMARK  status: ('A' for Active; 'I' for Inactive)
REMARK    1  A    between atoms: S_2  and  N_5 
REMARK    2  A    between atoms: N_5  and  C_6 
REMARK    3  A    between atoms: C_6  and  C_7 
REMARK    4  A    between atoms: C_7  and  C_8 
REMARK       I    between atoms: C_8  and  N_10 
REMARK    5  A    between atoms: N_10  and  C_11 
REMARK    6  A    between atoms: C_14  and  N_18 
ROOT
HETATM    1  C   UNL     1     -41.972 -50.338  12.404  1.00  0.00     0.050 A 
HETATM    2  C   UNL     1     -42.984 -49.409  12.563  1.00  0.00     0.035 A 
HETATM    3  C   UNL     1     -43.051 -48.296  11.723  1.00  0.00     0.051 A 
HETATM    4  C   UNL     1     -42.125 -48.111  10.699  1.00  0.00     0.103 A 
HETATM    5  N   UNL     1     -41.132 -49.013  10.533  1.00  0.00    -0.350 N 
ATOM      6  HN  UNL     1     -40.437 -48.893   9.796  1.00  0.00     0.166 HD
HETATM    7  C   UNL     1     -41.077 -50.086  11.372  1.00  0.00     0.119 A 
ENDROOT
BRANCH   1   8
HETATM    8  N   UNL     1     -41.850 -51.500  13.198  1.00  0.00    -0.326 N 
HETATM    9  C   UNL     1     -42.402 -52.740  12.915  1.00  0.00     0.223 C 
HETATM   10  O   UNL     1     -43.182 -52.994  12.004  1.00  0.00    -0.273 OA
HETATM   11  H   UNL     1     -41.370 -51.395  14.085  1.00  0.00     0.169 HD
BRANCH   9  12
HETATM   12  C   UNL     1     -41.888 -53.848  13.803  1.00  0.00     0.118 C 
BRANCH  12  13
HETATM   13  C   UNL     1     -42.984 -54.286  14.767  1.00  0.00     0.113 C 
BRANCH  13  14
HETATM   14  N   UNL     1     -44.131 -53.325  14.752  1.00  0.00    -0.220 NA
HETATM   15  H   UNL     1     -44.186 -52.836  15.650  1.00  0.00     0.139 HD
BRANCH  14  16
HETATM   16  S   UNL     1     -45.624 -54.108  14.482  1.00  0.00     0.205 S 
HETATM   17  C   UNL     1     -46.670 -52.730  14.060  1.00  0.00     0.179 C 
HETATM   18  O   UNL     1     -46.047 -54.622  15.766  1.00  0.00    -0.212 OA
HETATM   19  O   UNL     1     -45.469 -54.959  13.327  1.00  0.00    -0.212 OA
ENDBRANCH  14  16
ENDBRANCH  13  14
ENDBRANCH  12  13
ENDBRANCH   9  12
ENDBRANCH   1   8
BRANCH   4  20
HETATM   20  N   UNL     1     -42.180 -46.993   9.891  1.00  0.00    -0.363 N 
HETATM   21  C   UNL     1     -41.690 -45.682  10.338  1.00  0.00     0.150 C 
HETATM   22  C   UNL     1     -42.859 -44.701  10.521  1.00  0.00     0.187 C 
HETATM   23  O   UNL     1     -43.669 -44.608   9.341  1.00  0.00    -0.388 OA
HETATM   24  C   UNL     1     -44.224 -45.898   9.025  1.00  0.00     0.187 C 
HETATM   25  C   UNL     1     -43.124 -46.937   8.766  1.00  0.00     0.150 C 
ENDBRANCH   4  20
TORSDOF 6
ENDMDL
MODEL 2
REMARK VINA RESULT:      -5.9      2.962      7.752
REMARK  6 active torsions:
REMARK  status: ('A' for Active; 'I' for Inactive)
REMARK    1  A    between atoms: S_2  and  N_5 
REMARK    2  A    between atoms: N_5  and  C_6 
REMARK    3  A    between atoms: C_6  and  C_7 
REMARK    4  A    between atoms: C_7  and  C_8 
REMARK       I    between atoms: C_8  and  N_10 
REMARK    5  A    between atoms: N_10  and  C_11 
REMARK    6  A    between atoms: C_14  and  N_18 
ROOT
HETATM    1  C   UNL     1     -41.411 -49.551  13.220  1.00  0.00     0.050 A 
HETATM    2  C   UNL     1     -41.265 -50.337  14.348  1.00  0.00     0.035 A 
HETATM    3  C   UNL     1     -41.708 -51.662  14.339  1.00  0.00     0.051 A 
HETATM    4  C   UNL     1     -42.276 -52.223  13.198  1.00  0.00     0.103 A 
HETATM    5  N   UNL     1     -42.423 -51.463  12.089  1.00  0.00    -0.350 N 
ATOM      6  HN  UNL     1     -42.844 -51.851  11.244  1.00  0.00     0.166 HD
HETATM    7  C   UNL     1     -41.996 -50.170  12.122  1.00  0.00     0.119 A 
ENDROOT
BRANCH   1   8
HETATM    8  N   UNL     1     -40.969 -48.211  13.143  1.00  0.00    -0.326 N 
HETATM    9  C   UNL     1     -39.811 -47.771  12.519  1.00  0.00     0.223 C 
HETATM   10  O   UNL     1     -38.929 -48.481  12.047  1.00  0.00    -0.273 OA
HETATM   11  H   UNL     1     -41.516 -47.523  13.647  1.00  0.00     0.169 HD
BRANCH   9  12
HETATM   12  C   UNL     1     -39.735 -46.271  12.373  1.00  0.00     0.118 C 
BRANCH  12  13
HETATM   13  C   UNL     1     -40.132 -45.870  10.957  1.00  0.00     0.113 C 
BRANCH  13  14
HETATM   14  N   UNL     1     -40.975 -46.926  10.315  1.00  0.00    -0.220 NA
HETATM   15  H   UNL     1     -40.664 -47.081   9.351  1.00  0.00     0.139 HD
BRANCH  14  16
HETATM   16  S   UNL     1     -42.627 -46.494  10.276  1.00  0.00     0.205 S 
HETATM   17  C   UNL     1     -43.240 -47.575   9.000  1.00  0.00     0.179 C 
HETATM   18  O   UNL     1     -42.677 -45.136   9.782  1.00  0.00    -0.212 OA
HETATM   19  O   UNL     1     -43.209 -46.874  11.541  1.00  0.00    -0.212 OA
ENDBRANCH  14  16
ENDBRANCH  13  14
ENDBRANCH  12  13
ENDBRANCH   9  12
ENDBRANCH   1   8
BRANCH   4  20
HETATM   20  N   UNL     1     -42.738 -53.523  13.206  1.00  0.00    -0.363 N 
HETATM   21  C   UNL     1     -44.034 -53.896  12.620  1.00  0.00     0.150 C 
HETATM   22  C   UNL     1     -45.023 -54.317  13.718  1.00  0.00     0.187 C 
HETATM   23  O   UNL     1     -44.485 -55.349  14.555  1.00  0.00    -0.388 OA
HETATM   24  C   UNL     1     -43.286 -54.883  15.201  1.00  0.00     0.187 C 
HETATM   25  C   UNL     1     -42.210 -54.492  14.177  1.00  0.00     0.150 C 
ENDBRANCH   4  20
TORSDOF 6
ENDMDL
MODEL 3
REMARK VINA RESULT:      -5.8      2.836      7.781
REMARK  6 active torsions:
REMARK  status: ('A' for Active; 'I' for Inactive)
REMARK    1  A    between atoms: S_2  and  N_5 
REMARK    2  A    between atoms: N_5  and  C_6 
REMARK    3  A    between atoms: C_6  and  C_7 
REMARK    4  A    between atoms: C_7  and  C_8 
REMARK       I    between atoms: C_8  and  N_10 
REMARK    5  A    between atoms: N_10  and  C_11 
REMARK    6  A    between atoms: C_14  and  N_18 
ROOT
HETATM    1  C   UNL     1     -42.208 -49.868  13.276  1.00  0.00     0.050 A 
HETATM    2  C   UNL     1     -43.567 -50.099  13.163  1.00  0.00     0.035 A 
HETATM    3  C   UNL     1     -44.128 -51.254  13.712  1.00  0.00     0.051 A 
HETATM    4  C   UNL     1     -43.345 -52.178  14.400  1.00  0.00     0.103 A 
HETATM    5  N   UNL     1     -42.015 -51.962  14.517  1.00  0.00    -0.350 N 
ATOM      6  HN  UNL     1     -41.421 -52.629  15.009  1.00  0.00     0.166 HD
HETATM    7  C   UNL     1     -41.485 -50.835  13.964  1.00  0.00     0.119 A 
ENDROOT
BRANCH   1   8
HETATM    8  N   UNL     1     -41.570 -48.715  12.768  1.00  0.00    -0.326 N 
HETATM    9  C   UNL     1     -40.781 -48.657  11.629  1.00  0.00     0.223 C 
HETATM   10  O   UNL     1     -40.410 -49.613  10.956  1.00  0.00    -0.273 OA
HETATM   11  H   UNL     1     -41.646 -47.871  13.325  1.00  0.00     0.169 HD
BRANCH   9  12
HETATM   12  C   UNL     1     -40.452 -47.249  11.192  1.00  0.00     0.118 C 
BRANCH  12  13
HETATM   13  C   UNL     1     -41.607 -46.679  10.378  1.00  0.00     0.113 C 
BRANCH  13  14
HETATM   14  N   UNL     1     -42.377 -47.768   9.698  1.00  0.00    -0.220 NA
HETATM   15  H   UNL     1     -41.732 -48.397   9.210  1.00  0.00     0.139 HD
BRANCH  14  16
HETATM   16  S   UNL     1     -43.486 -47.154   8.555  1.00  0.00     0.205 S 
HETATM   17  C   UNL     1     -45.036 -47.444   9.383  1.00  0.00     0.179 C 
HETATM   18  O   UNL     1     -43.412 -48.033   7.409  1.00  0.00    -0.212 OA
HETATM   19  O   UNL     1     -43.264 -45.732   8.449  1.00  0.00    -0.212 OA
ENDBRANCH  14  16
ENDBRANCH  13  14
ENDBRANCH  12  13
ENDBRANCH   9  12
ENDBRANCH   1   8
BRANCH   4  20
HETATM   20  N   UNL     1     -43.901 -53.332  14.914  1.00  0.00    -0.363 N 
HETATM   21  C   UNL     1     -43.931 -54.590  14.155  1.00  0.00     0.150 C 
HETATM   22  C   UNL     1     -45.372 -54.949  13.760  1.00  0.00     0.187 C 
HETATM   23  O   UNL     1     -46.248 -54.975  14.895  1.00  0.00    -0.388 OA
HETATM   24  C   UNL     1     -46.275 -53.680  15.523  1.00  0.00     0.187 C 
HETATM   25  C   UNL     1     -44.880 -53.259  16.008  1.00  0.00     0.150 C 
ENDBRANCH   4  20
TORSDOF 6
ENDMDL
MODEL 4
REMARK VINA RESULT:      -5.7      1.979      2.514
REMARK  6 active torsions:
REMARK  status: ('A' for Active; 'I' for Inactive)
REMARK    1  A    between atoms: S_2  and  N_5 
REMARK    2  A    between atoms: N_5  and  C_6 
REMARK    3  A    between atoms: C_6  and  C_7 
REMARK    4  A    between atoms: C_7  and  C_8 
REMARK       I    between atoms: C_8  and  N_10 
REMARK    5  A    between atoms: N_10  and  C_11 
REMARK    6  A    between atoms: C_14  and  N_18 
ROOT
HETATM    1  C   UNL     1     -41.189 -51.112  12.198  1.00  0.00     0.050 A 
HETATM    2  C   UNL     1     -40.542 -50.167  11.423  1.00  0.00     0.035 A 
HETATM    3  C   UNL     1     -41.176 -48.962  11.114  1.00  0.00     0.051 A 
HETATM    4  C   UNL     1     -42.451 -48.676  11.596  1.00  0.00     0.103 A 
HETATM    5  N   UNL     1     -43.093 -49.592  12.356  1.00  0.00    -0.350 N 
ATOM      6  HN  UNL     1     -44.031 -49.408  12.713  1.00  0.00     0.166 HD
HETATM    7  C   UNL     1     -42.462 -50.767  12.636  1.00  0.00     0.119 A 
ENDROOT
BRANCH   1   8
HETATM    8  N   UNL     1     -40.606 -52.343  12.572  1.00  0.00    -0.326 N 
HETATM    9  C   UNL     1     -39.850 -52.573  13.711  1.00  0.00     0.223 C 
HETATM   10  O   UNL     1     -39.463 -51.723  14.507  1.00  0.00    -0.273 OA
HETATM   11  H   UNL     1     -40.696 -53.108  11.912  1.00  0.00     0.169 HD
BRANCH   9  12
HETATM   12  C   UNL     1     -39.583 -54.035  13.977  1.00  0.00     0.118 C 
BRANCH  12  13
HETATM   13  C   UNL     1     -40.525 -54.542  15.061  1.00  0.00     0.113 C 
BRANCH  13  14
HETATM   14  N   UNL     1     -41.719 -53.650  15.199  1.00  0.00    -0.220 NA
HETATM   15  H   UNL     1     -41.903 -53.466  16.190  1.00  0.00     0.139 HD
BRANCH  14  16
HETATM   16  S   UNL     1     -43.123 -54.346  14.520  1.00  0.00     0.205 S 
HETATM   17  C   UNL     1     -44.387 -53.253  15.137  1.00  0.00     0.179 C 
HETATM   18  O   UNL     1     -43.284 -55.633  15.160  1.00  0.00    -0.212 OA
HETATM   19  O   UNL     1     -43.032 -54.205  13.087  1.00  0.00    -0.212 OA
ENDBRANCH  14  16
ENDBRANCH  13  14
ENDBRANCH  12  13
ENDBRANCH   9  12
ENDBRANCH   1   8
BRANCH   4  20
HETATM   20  N   UNL     1     -43.084 -47.496  11.263  1.00  0.00    -0.363 N 
HETATM   21  C   UNL     1     -43.988 -47.393  10.109  1.00  0.00     0.150 C 
HETATM   22  C   UNL     1     -43.367 -46.512   9.013  1.00  0.00     0.187 C 
HETATM   23  O   UNL     1     -42.976 -45.227   9.516  1.00  0.00    -0.388 OA
HETATM   24  C   UNL     1     -41.995 -45.387  10.558  1.00  0.00     0.187 C 
HETATM   25  C   UNL     1     -42.548 -46.209  11.731  1.00  0.00     0.150 C 
ENDBRANCH   4  20
TORSDOF 6
ENDMDL
MODEL 5
REMARK VINA RESULT:      -5.6      1.593      1.909
REMARK  6 active torsions:
REMARK  status: ('A' for Active; 'I' for Inactive)
REMARK    1  A    between atoms: S_2  and  N_5 
REMARK    2  A    between atoms: N_5  and  C_6 
REMARK    3  A    between atoms: C_6  and  C_7 
REMARK    4  A    between atoms: C_7  and  C_8 
REMARK       I    between atoms: C_8  and  N_10 
REMARK    5  A    between atoms: N_10  and  C_11 
REMARK    6  A    between atoms: C_14  and  N_18 
ROOT
HETATM    1  C   UNL     1     -41.196 -50.524  12.982  1.00  0.00     0.050 A 
HETATM    2  C   UNL     1     -40.158 -49.626  13.149  1.00  0.00     0.035 A 
HETATM    3  C   UNL     1     -40.107 -48.464  12.377  1.00  0.00     0.051 A 
HETATM    4  C   UNL     1     -41.104 -48.172  11.450  1.00  0.00     0.103 A 
HETATM    5  N   UNL     1     -42.125 -49.041  11.278  1.00  0.00    -0.350 N 
ATOM      6  HN  UNL     1     -42.862 -48.853  10.599  1.00  0.00     0.166 HD
HETATM    7  C   UNL     1     -42.150 -50.176  12.033  1.00  0.00     0.119 A 
ENDROOT
BRANCH   1   8
HETATM    8  N   UNL     1     -41.330 -51.709  13.740  1.00  0.00    -0.326 N 
HETATM    9  C   UNL     1     -40.853 -52.961  13.381  1.00  0.00     0.223 C 
HETATM   10  O   UNL     1     -40.353 -53.264  12.303  1.00  0.00    -0.273 OA
HETATM   11  H   UNL     1     -41.882 -51.646  14.588  1.00  0.00     0.169 HD
BRANCH   9  12
HETATM   12  C   UNL     1     -40.914 -53.974  14.499  1.00  0.00     0.118 C 
BRANCH  12  13
HETATM   13  C   UNL     1     -42.334 -54.512  14.630  1.00  0.00     0.113 C 
BRANCH  13  14
HETATM   14  N   UNL     1     -43.110 -54.298  13.369  1.00  0.00    -0.220 NA
HETATM   15  H   UNL     1     -42.831 -53.413  12.935  1.00  0.00     0.139 HD
BRANCH  14  16
HETATM   16  S   UNL     1     -44.793 -54.244  13.651  1.00  0.00     0.205 S 
HETATM   17  C   UNL     1     -44.879 -53.117  15.027  1.00  0.00     0.179 C 
HETATM   18  O   UNL     1     -45.166 -55.560  14.119  1.00  0.00    -0.212 OA
HETATM   19  O   UNL     1     -45.411 -53.634  12.498  1.00  0.00    -0.212 OA
ENDBRANCH  14  16
ENDBRANCH  13  14
ENDBRANCH  12  13
ENDBRANCH   9  12
ENDBRANCH   1   8
BRANCH   4  20
HETATM   20  N   UNL     1     -41.032 -47.035  10.669  1.00  0.00    -0.363 N 
HETATM   21  C   UNL     1     -39.920 -46.082  10.780  1.00  0.00     0.150 C 
HETATM   22  C   UNL     1     -40.405 -44.750  11.375  1.00  0.00     0.187 C 
HETATM   23  O   UNL     1     -41.516 -44.212  10.646  1.00  0.00    -0.388 OA
HETATM   24  C   UNL     1     -42.620 -45.136  10.680  1.00  0.00     0.187 C 
HETATM   25  C   UNL     1     -42.245 -46.484  10.048  1.00  0.00     0.150 C 
ENDBRANCH   4  20
TORSDOF 6
ENDMDL
MODEL 6
REMARK VINA RESULT:      -5.6      2.170      2.966
REMARK  6 active torsions:
REMARK  status: ('A' for Active; 'I' for Inactive)
REMARK    1  A    between atoms: S_2  and  N_5 
REMARK    2  A    between atoms: N_5  and  C_6 
REMARK    3  A    between atoms: C_6  and  C_7 
REMARK    4  A    between atoms: C_7  and  C_8 
REMARK       I    between atoms: C_8  and  N_10 
REMARK    5  A    between atoms: N_10  and  C_11 
REMARK    6  A    between atoms: C_14  and  N_18 
ROOT
HETATM    1  C   UNL     1     -43.221 -51.726  13.097  1.00  0.00     0.050 A 
HETATM    2  C   UNL     1     -43.591 -50.403  13.254  1.00  0.00     0.035 A 
HETATM    3  C   UNL     1     -42.857 -49.393  12.629  1.00  0.00     0.051 A 
HETATM    4  C   UNL     1     -41.762 -49.693  11.822  1.00  0.00     0.103 A 
HETATM    5  N   UNL     1     -41.392 -50.983  11.660  1.00  0.00    -0.350 N 
ATOM      6  HN  UNL     1     -40.588 -51.226  11.081  1.00  0.00     0.166 HD
HETATM    7  C   UNL     1     -42.114 -51.953  12.288  1.00  0.00     0.119 A 
ENDROOT
BRANCH   1   8
HETATM    8  N   UNL     1     -43.925 -52.804  13.677  1.00  0.00    -0.326 N 
HETATM    9  C   UNL     1     -45.022 -53.450  13.126  1.00  0.00     0.223 C 
HETATM   10  O   UNL     1     -45.629 -53.111  12.115  1.00  0.00    -0.273 OA
HETATM   11  H   UNL     1     -43.641 -53.084  14.609  1.00  0.00     0.169 HD
BRANCH   9  12
HETATM   12  C   UNL     1     -45.398 -54.724  13.843  1.00  0.00     0.118 C 
BRANCH  12  13
HETATM   13  C   UNL     1     -46.473 -54.432  14.884  1.00  0.00     0.113 C 
BRANCH  13  14
HETATM   14  N   UNL     1     -46.873 -52.990  14.854  1.00  0.00    -0.220 NA
HETATM   15  H   UNL     1     -46.244 -52.467  14.238  1.00  0.00     0.139 HD
BRANCH  14  16
HETATM   16  S   UNL     1     -46.814 -52.275  16.403  1.00  0.00     0.205 S 
HETATM   17  C   UNL     1     -45.636 -50.966  16.139  1.00  0.00     0.179 C 
HETATM   18  O   UNL     1     -46.211 -53.257  17.278  1.00  0.00    -0.212 OA
HETATM   19  O   UNL     1     -48.111 -51.700  16.671  1.00  0.00    -0.212 OA
ENDBRANCH  14  16
ENDBRANCH  13  14
ENDBRANCH  12  13
ENDBRANCH   9  12
ENDBRANCH   1   8
BRANCH   4  20
HETATM   20  N   UNL     1     -41.023 -48.688  11.232  1.00  0.00    -0.363 N 
HETATM   21  C   UNL     1     -39.720 -48.262  11.761  1.00  0.00     0.150 C 
HETATM   22  C   UNL     1     -39.811 -46.844  12.346  1.00  0.00     0.187 C 
HETATM   23  O   UNL     1     -40.348 -45.909  11.402  1.00  0.00    -0.388 OA
HETATM   24  C   UNL     1     -41.676 -46.309  11.016  1.00  0.00     0.187 C 
HETATM   25  C   UNL     1     -41.678 -47.699  10.362  1.00  0.00     0.150 C 
ENDBRANCH   4  20
TORSDOF 6
ENDMDL
MODEL 7
REMARK VINA RESULT:      -5.5      4.045      7.339
REMARK  6 active torsions:
REMARK  status: ('A' for Active; 'I' for Inactive)
REMARK    1  A    between atoms: S_2  and  N_5 
REMARK    2  A    between atoms: N_5  and  C_6 
REMARK    3  A    between atoms: C_6  and  C_7 
REMARK    4  A    between atoms: C_7  and  C_8 
REMARK       I    between atoms: C_8  and  N_10 
REMARK    5  A    between atoms: N_10  and  C_11 
REMARK    6  A    between atoms: C_14  and  N_18 
ROOT
HETATM    1  C   UNL     1     -41.023 -51.977  12.482  1.00  0.00     0.050 A 
HETATM    2  C   UNL     1     -41.236 -53.322  12.722  1.00  0.00     0.035 A 
HETATM    3  C   UNL     1     -42.537 -53.810  12.859  1.00  0.00     0.051 A 
HETATM    4  C   UNL     1     -43.639 -52.968  12.732  1.00  0.00     0.103 A 
HETATM    5  N   UNL     1     -43.443 -51.651  12.496  1.00  0.00    -0.350 N 
ATOM      6  HN  UNL     1     -44.234 -51.014  12.408  1.00  0.00     0.166 HD
HETATM    7  C   UNL     1     -42.165 -51.192  12.378  1.00  0.00     0.119 A 
ENDROOT
BRANCH   1   8
HETATM    8  N   UNL     1     -39.740 -51.412  12.309  1.00  0.00    -0.326 N 
HETATM    9  C   UNL     1     -38.734 -51.372  13.263  1.00  0.00     0.223 C 
HETATM   10  O   UNL     1     -38.837 -51.706  14.439  1.00  0.00    -0.273 OA
HETATM   11  H   UNL     1     -39.568 -50.935  11.431  1.00  0.00     0.169 HD
BRANCH   9  12
HETATM   12  C   UNL     1     -37.395 -50.943  12.713  1.00  0.00     0.118 C 
BRANCH  12  13
HETATM   13  C   UNL     1     -37.423 -49.454  12.391  1.00  0.00     0.113 C 
BRANCH  13  14
HETATM   14  N   UNL     1     -38.097 -48.680  13.480  1.00  0.00    -0.220 NA
HETATM   15  H   UNL     1     -38.420 -49.319  14.212  1.00  0.00     0.139 HD
BRANCH  14  16
HETATM   16  S   UNL     1     -39.445 -47.804  12.906  1.00  0.00     0.205 S 
HETATM   17  C   UNL     1     -40.691 -48.267  14.092  1.00  0.00     0.179 C 
HETATM   18  O   UNL     1     -39.794 -48.391  11.631  1.00  0.00    -0.212 OA
HETATM   19  O   UNL     1     -39.150 -46.399  13.051  1.00  0.00    -0.212 OA
ENDBRANCH  14  16
ENDBRANCH  13  14
ENDBRANCH  12  13
ENDBRANCH   9  12
ENDBRANCH   1   8
BRANCH   4  20
HETATM   20  N   UNL     1     -44.921 -53.452  12.898  1.00  0.00    -0.363 N 
HETATM   21  C   UNL     1     -46.104 -52.590  12.766  1.00  0.00     0.150 C 
HETATM   22  C   UNL     1     -46.790 -52.401  14.128  1.00  0.00     0.187 C 
HETATM   23  O   UNL     1     -47.095 -53.656  14.753  1.00  0.00    -0.388 OA
HETATM   24  C   UNL     1     -45.883 -54.401  14.971  1.00  0.00     0.187 C 
HETATM   25  C   UNL     1     -45.154 -54.692  13.652  1.00  0.00     0.150 C 
ENDBRANCH   4  20
TORSDOF 6
ENDMDL
MODEL 8
REMARK VINA RESULT:      -5.3      4.251      5.007
REMARK  6 active torsions:
REMARK  status: ('A' for Active; 'I' for Inactive)
REMARK    1  A    between atoms: S_2  and  N_5 
REMARK    2  A    between atoms: N_5  and  C_6 
REMARK    3  A    between atoms: C_6  and  C_7 
REMARK    4  A    between atoms: C_7  and  C_8 
REMARK       I    between atoms: C_8  and  N_10 
REMARK    5  A    between atoms: N_10  and  C_11 
REMARK    6  A    between atoms: C_14  and  N_18 
ROOT
HETATM    1  C   UNL     1     -42.630 -53.211  13.277  1.00  0.00     0.050 A 
HETATM    2  C   UNL     1     -42.534 -51.849  13.492  1.00  0.00     0.035 A 
HETATM    3  C   UNL     1     -41.283 -51.229  13.506  1.00  0.00     0.051 A 
HETATM    4  C   UNL     1     -40.117 -51.956  13.280  1.00  0.00     0.103 A 
HETATM    5  N   UNL     1     -40.198 -53.289  13.067  1.00  0.00    -0.350 N 
ATOM      6  HN  UNL     1     -39.357 -53.843  12.908  1.00  0.00     0.166 HD
HETATM    7  C   UNL     1     -41.428 -53.877  13.070  1.00  0.00     0.119 A 
ENDROOT
BRANCH   1   8
HETATM    8  N   UNL     1     -43.858 -53.906  13.226  1.00  0.00    -0.326 N 
HETATM    9  C   UNL     1     -44.315 -54.820  14.164  1.00  0.00     0.223 C 
HETATM   10  O   UNL     1     -43.677 -55.262  15.115  1.00  0.00    -0.273 OA
HETATM   11  H   UNL     1     -44.423 -53.771  12.395  1.00  0.00     0.169 HD
BRANCH   9  12
HETATM   12  C   UNL     1     -45.764 -55.202  13.983  1.00  0.00     0.118 C 
BRANCH  12  13
HETATM   13  C   UNL     1     -46.652 -54.245  14.770  1.00  0.00     0.113 C 
BRANCH  13  14
HETATM   14  N   UNL     1     -45.831 -53.255  15.536  1.00  0.00    -0.220 NA
HETATM   15  H   UNL     1     -45.987 -53.377  16.540  1.00  0.00     0.139 HD
BRANCH  14  16
HETATM   16  S   UNL     1     -46.223 -51.644  15.129  1.00  0.00     0.205 S 
HETATM   17  C   UNL     1     -44.962 -50.745  16.009  1.00  0.00     0.179 C 
HETATM   18  O   UNL     1     -47.497 -51.369  15.756  1.00  0.00    -0.212 OA
HETATM   19  O   UNL     1     -46.015 -51.487  13.709  1.00  0.00    -0.212 OA
ENDBRANCH  14  16
ENDBRANCH  13  14
ENDBRANCH  12  13
ENDBRANCH   9  12
ENDBRANCH   1   8
BRANCH   4  20
HETATM   20  N   UNL     1     -38.882 -51.342  13.324  1.00  0.00    -0.363 N 
HETATM   21  C   UNL     1     -38.224 -51.000  14.593  1.00  0.00     0.150 C 
HETATM   22  C   UNL     1     -38.169 -49.476  14.780  1.00  0.00     0.187 C 
HETATM   23  O   UNL     1     -37.563 -48.820  13.657  1.00  0.00    -0.388 OA
HETATM   24  C   UNL     1     -38.323 -49.088  12.465  1.00  0.00     0.187 C 
HETATM   25  C   UNL     1     -38.385 -50.592  12.161  1.00  0.00     0.150 C 
ENDBRANCH   4  20
TORSDOF 6
ENDMDL
MODEL 9
REMARK VINA RESULT:      -5.1      3.202      8.373
REMARK  6 active torsions:
REMARK  status: ('A' for Active; 'I' for Inactive)
REMARK    1  A    between atoms: S_2  and  N_5 
REMARK    2  A    between atoms: N_5  and  C_6 
REMARK    3  A    between atoms: C_6  and  C_7 
REMARK    4  A    between atoms: C_7  and  C_8 
REMARK       I    between atoms: C_8  and  N_10 
REMARK    5  A    between atoms: N_10  and  C_11 
REMARK    6  A    between atoms: C_14  and  N_18 
ROOT
HETATM    1  C   UNL     1     -41.511 -49.704  11.967  1.00  0.00     0.050 A 
HETATM    2  C   UNL     1     -40.723 -50.810  11.710  1.00  0.00     0.035 A 
HETATM    3  C   UNL     1     -41.192 -52.090  12.017  1.00  0.00     0.051 A 
HETATM    4  C   UNL     1     -42.461 -52.281  12.558  1.00  0.00     0.103 A 
HETATM    5  N   UNL     1     -43.241 -51.206  12.813  1.00  0.00    -0.350 N 
ATOM      6  HN  UNL     1     -44.170 -51.321  13.217  1.00  0.00     0.166 HD
HETATM    7  C   UNL     1     -42.760 -49.965  12.518  1.00  0.00     0.119 A 
ENDROOT
BRANCH   1   8
HETATM    8  N   UNL     1     -41.118 -48.381  11.665  1.00  0.00    -0.326 N 
HETATM    9  C   UNL     1     -41.584 -47.615  10.607  1.00  0.00     0.223 C 
HETATM   10  O   UNL     1     -42.312 -48.003   9.698  1.00  0.00    -0.273 OA
HETATM   11  H   UNL     1     -40.380 -47.985  12.237  1.00  0.00     0.169 HD
BRANCH   9  12
HETATM   12  C   UNL     1     -41.184 -46.162  10.689  1.00  0.00     0.118 C 
BRANCH  12  13
HETATM   13  C   UNL     1     -41.493 -45.620  12.079  1.00  0.00     0.113 C 
BRANCH  13  14
HETATM   14  N   UNL     1     -42.773 -44.845  12.083  1.00  0.00    -0.220 NA
HETATM   15  H   UNL     1     -43.355 -45.130  11.290  1.00  0.00     0.139 HD
BRANCH  14  16
HETATM   16  S   UNL     1     -42.507 -43.163  11.969  1.00  0.00     0.205 S 
HETATM   17  C   UNL     1     -40.873 -43.020  12.665  1.00  0.00     0.179 C 
HETATM   18  O   UNL     1     -43.443 -42.543  12.881  1.00  0.00    -0.212 OA
HETATM   19  O   UNL     1     -42.457 -42.821  10.567  1.00  0.00    -0.212 OA
ENDBRANCH  14  16
ENDBRANCH  13  14
ENDBRANCH  12  13
ENDBRANCH   9  12
ENDBRANCH   1   8
BRANCH   4  20
HETATM   20  N   UNL     1     -42.906 -53.545  12.886  1.00  0.00    -0.363 N 
HETATM   21  C   UNL     1     -44.292 -53.971  12.648  1.00  0.00     0.150 C 
HETATM   22  C   UNL     1     -45.035 -54.166  13.979  1.00  0.00     0.187 C 
HETATM   23  O   UNL     1     -44.333 -55.056  14.858  1.00  0.00    -0.388 OA
HETATM   24  C   UNL     1     -43.029 -54.523  15.156  1.00  0.00     0.187 C 
HETATM   25  C   UNL     1     -42.187 -54.349  13.885  1.00  0.00     0.150 C 
ENDBRANCH   4  20
TORSDOF 6
ENDMDL
