MODEL 1
REMARK VINA RESULT:      -6.4      0.000      0.000
REMARK  7 active torsions:
REMARK  status: ('A' for Active; 'I' for Inactive)
REMARK    1  A    between atoms: O_2  and  C_3 
REMARK    2  A    between atoms: C_3  and  C_4 
REMARK    3  A    between atoms: C_4  and  N_5 
REMARK    4  A    between atoms: C_6  and  S_7 
REMARK    5  A    between atoms: S_7  and  C_8 
REMARK    6  A    between atoms: C_8  and  C_9 
REMARK    7  A    between atoms: C_13  and  N_14 
ROOT
HETATM    1  N   UNL     1     -40.023 -49.001  11.839  1.00  0.00    -0.324 N 
HETATM    2  C   UNL     1     -41.038 -49.921  11.704  1.00  0.00     0.148 A 
HETATM    3  N   UNL     1     -42.107 -49.392  11.153  1.00  0.00    -0.335 N 
ATOM      4  HN  UNL     1     -42.991 -49.858  10.948  1.00  0.00     0.168 HD
HETATM    5  C   UNL     1     -41.783 -48.080  10.912  1.00  0.00     0.061 A 
HETATM    6  C   UNL     1     -42.549 -47.064  10.319  1.00  0.00     0.032 A 
HETATM    7  C   UNL     1     -41.995 -45.785  10.183  1.00  0.00     0.002 A 
HETATM    8  C   UNL     1     -40.700 -45.520  10.624  1.00  0.00     0.002 A 
HETATM    9  C   UNL     1     -39.914 -46.524  11.199  1.00  0.00     0.032 A 
HETATM   10  C   UNL     1     -40.487 -47.798  11.336  1.00  0.00     0.063 A 
ENDROOT
BRANCH   2  11
HETATM   11  S   UNL     1     -40.898 -51.589  12.169  1.00  0.00    -0.088 SA
BRANCH  11  12
HETATM   12  C   UNL     1     -41.911 -51.635  13.688  1.00  0.00     0.139 C 
BRANCH  12  13
HETATM   13  C   UNL     1     -43.073 -52.603  13.567  1.00  0.00     0.020 A 
HETATM   14  C   UNL     1     -43.068 -53.799  14.281  1.00  0.00     0.026 A 
HETATM   15  C   UNL     1     -44.172 -54.649  14.179  1.00  0.00     0.005 A 
HETATM   16  C   UNL     1     -45.236 -54.281  13.370  1.00  0.00     0.042 A 
HETATM   17  C   UNL     1     -45.157 -53.088  12.667  1.00  0.00     0.077 A 
HETATM   18  N   UNL     1     -44.108 -52.250  12.758  1.00  0.00    -0.350 N 
ATOM     19  HN  UNL     1     -44.091 -51.374  12.236  1.00  0.00     0.167 HD
BRANCH  17  20
HETATM   20  N   UNL     1     -46.215 -52.685  11.852  1.00  0.00    -0.289 NA
HETATM   21  H   UNL     1     -46.066 -52.953  10.887  1.00  0.00     0.125 HD
HETATM   22  H   UNL     1     -46.302 -51.678  11.960  1.00  0.00     0.125 HD
ENDBRANCH  17  20
ENDBRANCH  12  13
ENDBRANCH  11  12
ENDBRANCH   2  11
BRANCH   1  23
HETATM   23  C   UNL     1     -38.666 -49.215  12.306  1.00  0.00     0.157 C 
BRANCH  23  24
HETATM   24  C   UNL     1     -37.720 -49.784  11.250  1.00  0.00     0.187 C 
BRANCH  24  25
HETATM   25  O   UNL     1     -37.264 -51.067  11.688  1.00  0.00    -0.394 OA
HETATM   26  C   UNL     1     -37.259 -51.170  13.106  1.00  0.00     0.201 C 
ENDBRANCH  24  25
ENDBRANCH  23  24
ENDBRANCH   1  23
TORSDOF 7
ENDMDL
MODEL 2
REMARK VINA RESULT:      -6.1      1.322      1.453
REMARK  7 active torsions:
REMARK  status: ('A' for Active; 'I' for Inactive)
REMARK    1  A    between atoms: O_2  and  C_3 
REMARK    2  A    between atoms: C_3  and  C_4 
REMARK    3  A    between atoms: C_4  and  N_5 
REMARK    4  A    between atoms: C_6  and  S_7 
REMARK    5  A    between atoms: S_7  and  C_8 
REMARK    6  A    between atoms: C_8  and  C_9 
REMARK    7  A    between atoms: C_13  and  N_14 
ROOT
HETATM    1  N   UNL     1     -40.033 -48.777  12.081  1.00  0.00    -0.324 N 
HETATM    2  C   UNL     1     -40.827 -49.901  12.130  1.00  0.00     0.148 A 
HETATM    3  N   UNL     1     -41.975 -49.716  11.517  1.00  0.00    -0.335 N 
ATOM      4  HN  UNL     1     -42.736 -50.388  11.415  1.00  0.00     0.168 HD
HETATM    5  C   UNL     1     -41.933 -48.429  11.043  1.00  0.00     0.061 A 
HETATM    6  C   UNL     1     -42.887 -47.719  10.298  1.00  0.00     0.032 A 
HETATM    7  C   UNL     1     -42.616 -46.395   9.928  1.00  0.00     0.002 A 
HETATM    8  C   UNL     1     -41.415 -45.788  10.290  1.00  0.00     0.002 A 
HETATM    9  C   UNL     1     -40.443 -46.485  11.015  1.00  0.00     0.032 A 
HETATM   10  C   UNL     1     -40.734 -47.807  11.385  1.00  0.00     0.063 A 
ENDROOT
BRANCH   2  11
HETATM   11  S   UNL     1     -40.344 -51.393  12.877  1.00  0.00    -0.088 SA
BRANCH  11  12
HETATM   12  C   UNL     1     -41.209 -52.622  11.840  1.00  0.00     0.139 C 
BRANCH  12  13
HETATM   13  C   UNL     1     -42.390 -53.244  12.561  1.00  0.00     0.020 A 
HETATM   14  C   UNL     1     -42.185 -54.053  13.677  1.00  0.00     0.026 A 
HETATM   15  C   UNL     1     -43.295 -54.576  14.343  1.00  0.00     0.005 A 
HETATM   16  C   UNL     1     -44.566 -54.281  13.873  1.00  0.00     0.042 A 
HETATM   17  C   UNL     1     -44.691 -53.492  12.739  1.00  0.00     0.077 A 
HETATM   18  N   UNL     1     -43.636 -52.969  12.089  1.00  0.00    -0.350 N 
ATOM     19  HN  UNL     1     -43.766 -52.383  11.265  1.00  0.00     0.167 HD
BRANCH  17  20
HETATM   20  N   UNL     1     -45.956 -53.170  12.247  1.00  0.00    -0.289 NA
HETATM   21  H   UNL     1     -46.185 -53.712  11.424  1.00  0.00     0.125 HD
HETATM   22  H   UNL     1     -45.951 -52.171  12.059  1.00  0.00     0.125 HD
ENDBRANCH  17  20
ENDBRANCH  12  13
ENDBRANCH  11  12
ENDBRANCH   2  11
BRANCH   1  23
HETATM   23  C   UNL     1     -38.671 -48.613  12.551  1.00  0.00     0.157 C 
BRANCH  23  24
HETATM   24  C   UNL     1     -38.558 -48.092  13.982  1.00  0.00     0.187 C 
BRANCH  24  25
HETATM   25  O   UNL     1     -37.306 -48.518  14.527  1.00  0.00    -0.394 OA
HETATM   26  C   UNL     1     -37.332 -49.891  14.899  1.00  0.00     0.201 C 
ENDBRANCH  24  25
ENDBRANCH  23  24
ENDBRANCH   1  23
TORSDOF 7
ENDMDL
MODEL 3
REMARK VINA RESULT:      -6.1      2.107      6.852
REMARK  7 active torsions:
REMARK  status: ('A' for Active; 'I' for Inactive)
REMARK    1  A    between atoms: O_2  and  C_3 
REMARK    2  A    between atoms: C_3  and  C_4 
REMARK    3  A    between atoms: C_4  and  N_5 
REMARK    4  A    between atoms: C_6  and  S_7 
REMARK    5  A    between atoms: S_7  and  C_8 
REMARK    6  A    between atoms: C_8  and  C_9 
REMARK    7  A    between atoms: C_13  and  N_14 
ROOT
HETATM    1  N   UNL     1     -42.160 -52.310  12.484  1.00  0.00    -0.324 N 
HETATM    2  C   UNL     1     -42.129 -50.934  12.451  1.00  0.00     0.148 A 
HETATM    3  N   UNL     1     -43.292 -50.411  12.767  1.00  0.00    -0.335 N 
ATOM      4  HN  UNL     1     -43.532 -49.420  12.813  1.00  0.00     0.168 HD
HETATM    5  C   UNL     1     -44.116 -51.478  13.022  1.00  0.00     0.061 A 
HETATM    6  C   UNL     1     -45.461 -51.495  13.421  1.00  0.00     0.032 A 
HETATM    7  C   UNL     1     -46.099 -52.726  13.619  1.00  0.00     0.002 A 
HETATM    8  C   UNL     1     -45.410 -53.922  13.428  1.00  0.00     0.002 A 
HETATM    9  C   UNL     1     -44.063 -53.927  13.049  1.00  0.00     0.032 A 
HETATM   10  C   UNL     1     -43.442 -52.685  12.847  1.00  0.00     0.063 A 
ENDROOT
BRANCH   2  11
HETATM   11  S   UNL     1     -40.706 -50.009  12.079  1.00  0.00    -0.088 SA
BRANCH  11  12
HETATM   12  C   UNL     1     -41.390 -48.695  11.011  1.00  0.00     0.139 C 
BRANCH  12  13
HETATM   13  C   UNL     1     -40.761 -47.344  11.299  1.00  0.00     0.020 A 
HETATM   14  C   UNL     1     -40.458 -46.975  12.608  1.00  0.00     0.026 A 
HETATM   15  C   UNL     1     -39.843 -45.742  12.835  1.00  0.00     0.005 A 
HETATM   16  C   UNL     1     -39.555 -44.921  11.755  1.00  0.00     0.042 A 
HETATM   17  C   UNL     1     -39.912 -45.343  10.483  1.00  0.00     0.077 A 
HETATM   18  N   UNL     1     -40.497 -46.531  10.241  1.00  0.00    -0.350 N 
ATOM     19  HN  UNL     1     -40.734 -46.814   9.291  1.00  0.00     0.167 HD
BRANCH  17  20
HETATM   20  N   UNL     1     -39.629 -44.544   9.375  1.00  0.00    -0.289 NA
HETATM   21  H   UNL     1     -40.461 -44.091   9.019  1.00  0.00     0.125 HD
HETATM   22  H   UNL     1     -39.195 -45.148   8.682  1.00  0.00     0.125 HD
ENDBRANCH  17  20
ENDBRANCH  12  13
ENDBRANCH  11  12
ENDBRANCH   2  11
BRANCH   1  23
HETATM   23  C   UNL     1     -41.065 -53.243  12.295  1.00  0.00     0.157 C 
BRANCH  23  24
HETATM   24  C   UNL     1     -40.368 -53.664  13.588  1.00  0.00     0.187 C 
BRANCH  24  25
HETATM   25  O   UNL     1     -39.064 -53.076  13.617  1.00  0.00    -0.394 OA
HETATM   26  C   UNL     1     -38.915 -52.176  14.708  1.00  0.00     0.201 C 
ENDBRANCH  24  25
ENDBRANCH  23  24
ENDBRANCH   1  23
TORSDOF 7
ENDMDL
MODEL 4
REMARK VINA RESULT:      -6.0      3.682      6.341
REMARK  7 active torsions:
REMARK  status: ('A' for Active; 'I' for Inactive)
REMARK    1  A    between atoms: O_2  and  C_3 
REMARK    2  A    between atoms: C_3  and  C_4 
REMARK    3  A    between atoms: C_4  and  N_5 
REMARK    4  A    between atoms: C_6  and  S_7 
REMARK    5  A    between atoms: S_7  and  C_8 
REMARK    6  A    between atoms: C_8  and  C_9 
REMARK    7  A    between atoms: C_13  and  N_14 
ROOT
HETATM    1  N   UNL     1     -45.077 -51.322  15.031  1.00  0.00    -0.324 N 
HETATM    2  C   UNL     1     -45.968 -52.119  14.347  1.00  0.00     0.148 A 
HETATM    3  N   UNL     1     -47.137 -52.170  14.944  1.00  0.00    -0.335 N 
ATOM      4  HN  UNL     1     -47.962 -52.690  14.645  1.00  0.00     0.168 HD
HETATM    5  C   UNL     1     -47.014 -51.374  16.056  1.00  0.00     0.061 A 
HETATM    6  C   UNL     1     -47.965 -51.057  17.039  1.00  0.00     0.032 A 
HETATM    7  C   UNL     1     -47.597 -50.215  18.096  1.00  0.00     0.002 A 
HETATM    8  C   UNL     1     -46.307 -49.693  18.174  1.00  0.00     0.002 A 
HETATM    9  C   UNL     1     -45.352 -49.981  17.195  1.00  0.00     0.032 A 
HETATM   10  C   UNL     1     -45.733 -50.833  16.146  1.00  0.00     0.063 A 
ENDROOT
BRANCH   2  11
HETATM   11  S   UNL     1     -45.596 -52.922  12.852  1.00  0.00    -0.088 SA
BRANCH  11  12
HETATM   12  C   UNL     1     -44.818 -54.464  13.445  1.00  0.00     0.139 C 
BRANCH  12  13
HETATM   13  C   UNL     1     -43.318 -54.313  13.623  1.00  0.00     0.020 A 
HETATM   14  C   UNL     1     -42.708 -54.713  14.810  1.00  0.00     0.026 A 
HETATM   15  C   UNL     1     -41.321 -54.598  14.926  1.00  0.00     0.005 A 
HETATM   16  C   UNL     1     -40.593 -54.086  13.861  1.00  0.00     0.042 A 
HETATM   17  C   UNL     1     -41.274 -53.682  12.722  1.00  0.00     0.077 A 
HETATM   18  N   UNL     1     -42.608 -53.794  12.586  1.00  0.00    -0.350 N 
ATOM     19  HN  UNL     1     -43.073 -53.497  11.728  1.00  0.00     0.167 HD
BRANCH  17  20
HETATM   20  N   UNL     1     -40.570 -53.172  11.632  1.00  0.00    -0.289 NA
HETATM   21  H   UNL     1     -40.606 -53.799  10.837  1.00  0.00     0.125 HD
HETATM   22  H   UNL     1     -39.618 -53.009  11.947  1.00  0.00     0.125 HD
ENDBRANCH  17  20
ENDBRANCH  12  13
ENDBRANCH  11  12
ENDBRANCH   2  11
BRANCH   1  23
HETATM   23  C   UNL     1     -43.731 -50.939  14.648  1.00  0.00     0.157 C 
BRANCH  23  24
HETATM   24  C   UNL     1     -43.648 -50.168  13.332  1.00  0.00     0.187 C 
BRANCH  24  25
HETATM   25  O   UNL     1     -42.492 -50.610  12.615  1.00  0.00    -0.394 OA
HETATM   26  C   UNL     1     -41.321 -49.907  13.015  1.00  0.00     0.201 C 
ENDBRANCH  24  25
ENDBRANCH  23  24
ENDBRANCH   1  23
TORSDOF 7
ENDMDL
MODEL 5
REMARK VINA RESULT:      -6.0      2.432      6.331
REMARK  7 active torsions:
REMARK  status: ('A' for Active; 'I' for Inactive)
REMARK    1  A    between atoms: O_2  and  C_3 
REMARK    2  A    between atoms: C_3  and  C_4 
REMARK    3  A    between atoms: C_4  and  N_5 
REMARK    4  A    between atoms: C_6  and  S_7 
REMARK    5  A    between atoms: S_7  and  C_8 
REMARK    6  A    between atoms: C_8  and  C_9 
REMARK    7  A    between atoms: C_13  and  N_14 
ROOT
HETATM    1  N   UNL     1     -42.220 -52.003  12.578  1.00  0.00    -0.324 N 
HETATM    2  C   UNL     1     -42.652 -50.696  12.520  1.00  0.00     0.148 A 
HETATM    3  N   UNL     1     -43.913 -50.582  12.871  1.00  0.00    -0.335 N 
ATOM      4  HN  UNL     1     -44.468 -49.728  12.909  1.00  0.00     0.168 HD
HETATM    5  C   UNL     1     -44.324 -51.856  13.176  1.00  0.00     0.061 A 
HETATM    6  C   UNL     1     -45.574 -52.308  13.627  1.00  0.00     0.032 A 
HETATM    7  C   UNL     1     -45.757 -53.676  13.870  1.00  0.00     0.002 A 
HETATM    8  C   UNL     1     -44.714 -54.578  13.673  1.00  0.00     0.002 A 
HETATM    9  C   UNL     1     -43.455 -54.145  13.243  1.00  0.00     0.032 A 
HETATM   10  C   UNL     1     -43.291 -52.773  12.996  1.00  0.00     0.063 A 
ENDROOT
BRANCH   2  11
HETATM   11  S   UNL     1     -41.632 -49.362  12.078  1.00  0.00    -0.088 SA
BRANCH  11  12
HETATM   12  C   UNL     1     -42.726 -47.937  12.408  1.00  0.00     0.139 C 
BRANCH  12  13
HETATM   13  C   UNL     1     -43.287 -47.342  11.130  1.00  0.00     0.020 A 
HETATM   14  C   UNL     1     -42.778 -46.146  10.629  1.00  0.00     0.026 A 
HETATM   15  C   UNL     1     -43.289 -45.647   9.429  1.00  0.00     0.005 A 
HETATM   16  C   UNL     1     -44.288 -46.353   8.774  1.00  0.00     0.042 A 
HETATM   17  C   UNL     1     -44.764 -47.522   9.348  1.00  0.00     0.077 A 
HETATM   18  N   UNL     1     -44.280 -48.025  10.498  1.00  0.00    -0.350 N 
ATOM     19  HN  UNL     1     -44.646 -48.895  10.884  1.00  0.00     0.167 HD
BRANCH  17  20
HETATM   20  N   UNL     1     -45.761 -48.259   8.710  1.00  0.00    -0.289 NA
HETATM   21  H   UNL     1     -46.499 -47.662   8.357  1.00  0.00     0.125 HD
HETATM   22  H   UNL     1     -46.106 -48.934   9.387  1.00  0.00     0.125 HD
ENDBRANCH  17  20
ENDBRANCH  12  13
ENDBRANCH  11  12
ENDBRANCH   2  11
BRANCH   1  23
HETATM   23  C   UNL     1     -40.882 -52.522  12.364  1.00  0.00     0.157 C 
BRANCH  23  24
HETATM   24  C   UNL     1     -39.994 -52.504  13.607  1.00  0.00     0.187 C 
BRANCH  24  25
HETATM   25  O   UNL     1     -38.997 -53.521  13.471  1.00  0.00    -0.394 OA
HETATM   26  C   UNL     1     -39.260 -54.635  14.317  1.00  0.00     0.201 C 
ENDBRANCH  24  25
ENDBRANCH  23  24
ENDBRANCH   1  23
TORSDOF 7
ENDMDL
MODEL 6
REMARK VINA RESULT:      -6.0      3.132      6.878
REMARK  7 active torsions:
REMARK  status: ('A' for Active; 'I' for Inactive)
REMARK    1  A    between atoms: O_2  and  C_3 
REMARK    2  A    between atoms: C_3  and  C_4 
REMARK    3  A    between atoms: C_4  and  N_5 
REMARK    4  A    between atoms: C_6  and  S_7 
REMARK    5  A    between atoms: S_7  and  C_8 
REMARK    6  A    between atoms: C_8  and  C_9 
REMARK    7  A    between atoms: C_13  and  N_14 
ROOT
HETATM    1  N   UNL     1     -43.533 -53.996  14.147  1.00  0.00    -0.324 N 
HETATM    2  C   UNL     1     -42.763 -53.376  13.187  1.00  0.00     0.148 A 
HETATM    3  N   UNL     1     -43.362 -52.319  12.687  1.00  0.00    -0.335 N 
ATOM      4  HN  UNL     1     -43.008 -51.693  11.964  1.00  0.00     0.168 HD
HETATM    5  C   UNL     1     -44.564 -52.236  13.343  1.00  0.00     0.061 A 
HETATM    6  C   UNL     1     -45.590 -51.286  13.214  1.00  0.00     0.032 A 
HETATM    7  C   UNL     1     -46.742 -51.416  14.001  1.00  0.00     0.002 A 
HETATM    8  C   UNL     1     -46.871 -52.469  14.903  1.00  0.00     0.002 A 
HETATM    9  C   UNL     1     -45.853 -53.414  15.061  1.00  0.00     0.032 A 
HETATM   10  C   UNL     1     -44.709 -53.275  14.260  1.00  0.00     0.063 A 
ENDROOT
BRANCH   2  11
HETATM   11  S   UNL     1     -41.174 -53.910  12.732  1.00  0.00    -0.088 SA
BRANCH  11  12
HETATM   12  C   UNL     1     -40.118 -52.911  13.837  1.00  0.00     0.139 C 
BRANCH  12  13
HETATM   13  C   UNL     1     -39.569 -51.680  13.139  1.00  0.00     0.020 A 
HETATM   14  C   UNL     1     -38.425 -51.049  13.623  1.00  0.00     0.026 A 
HETATM   15  C   UNL     1     -37.923 -49.944  12.934  1.00  0.00     0.005 A 
HETATM   16  C   UNL     1     -38.578 -49.504  11.792  1.00  0.00     0.042 A 
HETATM   17  C   UNL     1     -39.727 -50.165  11.386  1.00  0.00     0.077 A 
HETATM   18  N   UNL     1     -40.222 -51.239  12.030  1.00  0.00    -0.350 N 
ATOM     19  HN  UNL     1     -41.063 -51.708  11.695  1.00  0.00     0.167 HD
BRANCH  17  20
HETATM   20  N   UNL     1     -40.402 -49.754  10.238  1.00  0.00    -0.289 NA
HETATM   21  H   UNL     1     -41.397 -49.930  10.306  1.00  0.00     0.125 HD
HETATM   22  H   UNL     1     -39.979 -50.247   9.456  1.00  0.00     0.125 HD
ENDBRANCH  17  20
ENDBRANCH  12  13
ENDBRANCH  11  12
ENDBRANCH   2  11
BRANCH   1  23
HETATM   23  C   UNL     1     -43.187 -55.123  14.992  1.00  0.00     0.157 C 
BRANCH  23  24
HETATM   24  C   UNL     1     -42.788 -54.741  16.417  1.00  0.00     0.187 C 
BRANCH  24  25
HETATM   25  O   UNL     1     -42.753 -55.927  17.215  1.00  0.00    -0.394 OA
HETATM   26  C   UNL     1     -41.520 -56.623  17.075  1.00  0.00     0.201 C 
ENDBRANCH  24  25
ENDBRANCH  23  24
ENDBRANCH   1  23
TORSDOF 7
ENDMDL
MODEL 7
REMARK VINA RESULT:      -6.0      2.457      3.662
REMARK  7 active torsions:
REMARK  status: ('A' for Active; 'I' for Inactive)
REMARK    1  A    between atoms: O_2  and  C_3 
REMARK    2  A    between atoms: C_3  and  C_4 
REMARK    3  A    between atoms: C_4  and  N_5 
REMARK    4  A    between atoms: C_6  and  S_7 
REMARK    5  A    between atoms: S_7  and  C_8 
REMARK    6  A    between atoms: C_8  and  C_9 
REMARK    7  A    between atoms: C_13  and  N_14 
ROOT
HETATM    1  N   UNL     1     -41.549 -47.126  11.000  1.00  0.00    -0.324 N 
HETATM    2  C   UNL     1     -41.854 -48.311  11.631  1.00  0.00     0.148 A 
HETATM    3  N   UNL     1     -43.077 -48.708  11.363  1.00  0.00    -0.335 N 
ATOM      4  HN  UNL     1     -43.544 -49.547  11.707  1.00  0.00     0.168 HD
HETATM    5  C   UNL     1     -43.595 -47.754  10.522  1.00  0.00     0.061 A 
HETATM    6  C   UNL     1     -44.857 -47.689   9.913  1.00  0.00     0.032 A 
HETATM    7  C   UNL     1     -45.160 -46.599   9.087  1.00  0.00     0.002 A 
HETATM    8  C   UNL     1     -44.222 -45.592   8.865  1.00  0.00     0.002 A 
HETATM    9  C   UNL     1     -42.952 -45.649   9.447  1.00  0.00     0.032 A 
HETATM   10  C   UNL     1     -42.667 -46.743  10.279  1.00  0.00     0.063 A 
ENDROOT
BRANCH   2  11
HETATM   11  S   UNL     1     -40.733 -49.191  12.624  1.00  0.00    -0.088 SA
BRANCH  11  12
HETATM   12  C   UNL     1     -40.470 -50.703  11.634  1.00  0.00     0.139 C 
BRANCH  12  13
HETATM   13  C   UNL     1     -41.163 -51.909  12.241  1.00  0.00     0.020 A 
HETATM   14  C   UNL     1     -40.509 -52.690  13.191  1.00  0.00     0.026 A 
HETATM   15  C   UNL     1     -41.190 -53.768  13.761  1.00  0.00     0.005 A 
HETATM   16  C   UNL     1     -42.492 -54.032  13.361  1.00  0.00     0.042 A 
HETATM   17  C   UNL     1     -43.067 -53.228  12.389  1.00  0.00     0.077 A 
HETATM   18  N   UNL     1     -42.433 -52.178  11.836  1.00  0.00    -0.350 N 
ATOM     19  HN  UNL     1     -42.892 -51.601  11.132  1.00  0.00     0.167 HD
BRANCH  17  20
HETATM   20  N   UNL     1     -44.378 -53.462  11.973  1.00  0.00    -0.289 NA
HETATM   21  H   UNL     1     -44.795 -54.238  12.471  1.00  0.00     0.125 HD
HETATM   22  H   UNL     1     -44.342 -53.625  10.971  1.00  0.00     0.125 HD
ENDBRANCH  17  20
ENDBRANCH  12  13
ENDBRANCH  11  12
ENDBRANCH   2  11
BRANCH   1  23
HETATM   23  C   UNL     1     -40.282 -46.420  10.966  1.00  0.00     0.157 C 
BRANCH  23  24
HETATM   24  C   UNL     1     -40.044 -45.498  12.160  1.00  0.00     0.187 C 
BRANCH  24  25
HETATM   25  O   UNL     1     -40.925 -44.375  12.053  1.00  0.00    -0.394 OA
HETATM   26  C   UNL     1     -40.440 -43.410  11.127  1.00  0.00     0.201 C 
ENDBRANCH  24  25
ENDBRANCH  23  24
ENDBRANCH   1  23
TORSDOF 7
ENDMDL
MODEL 8
REMARK VINA RESULT:      -5.8      2.195      6.901
REMARK  7 active torsions:
REMARK  status: ('A' for Active; 'I' for Inactive)
REMARK    1  A    between atoms: O_2  and  C_3 
REMARK    2  A    between atoms: C_3  and  C_4 
REMARK    3  A    between atoms: C_4  and  N_5 
REMARK    4  A    between atoms: C_6  and  S_7 
REMARK    5  A    between atoms: S_7  and  C_8 
REMARK    6  A    between atoms: C_8  and  C_9 
REMARK    7  A    between atoms: C_13  and  N_14 
ROOT
HETATM    1  N   UNL     1     -40.371 -51.826  12.997  1.00  0.00    -0.324 N 
HETATM    2  C   UNL     1     -40.925 -50.996  12.047  1.00  0.00     0.148 A 
HETATM    3  N   UNL     1     -42.162 -51.335  11.763  1.00  0.00    -0.335 N 
ATOM      4  HN  UNL     1     -42.788 -50.886  11.094  1.00  0.00     0.168 HD
HETATM    5  C   UNL     1     -42.435 -52.421  12.557  1.00  0.00     0.061 A 
HETATM    6  C   UNL     1     -43.617 -53.170  12.673  1.00  0.00     0.032 A 
HETATM    7  C   UNL     1     -43.653 -54.253  13.561  1.00  0.00     0.002 A 
HETATM    8  C   UNL     1     -42.535 -54.584  14.324  1.00  0.00     0.002 A 
HETATM    9  C   UNL     1     -41.356 -53.838  14.238  1.00  0.00     0.032 A 
HETATM   10  C   UNL     1     -41.333 -52.762  13.338  1.00  0.00     0.063 A 
ENDROOT
BRANCH   2  11
HETATM   11  S   UNL     1     -40.094 -49.641  11.347  1.00  0.00    -0.088 SA
BRANCH  11  12
HETATM   12  C   UNL     1     -41.401 -48.366  11.349  1.00  0.00     0.139 C 
BRANCH  12  13
HETATM   13  C   UNL     1     -40.827 -46.963  11.413  1.00  0.00     0.020 A 
HETATM   14  C   UNL     1     -40.801 -46.269  12.621  1.00  0.00     0.026 A 
HETATM   15  C   UNL     1     -40.228 -44.996  12.655  1.00  0.00     0.005 A 
HETATM   16  C   UNL     1     -39.707 -44.458  11.487  1.00  0.00     0.042 A 
HETATM   17  C   UNL     1     -39.794 -45.196  10.316  1.00  0.00     0.077 A 
HETATM   18  N   UNL     1     -40.333 -46.428  10.264  1.00  0.00    -0.350 N 
ATOM     19  HN  UNL     1     -40.369 -46.947   9.387  1.00  0.00     0.167 HD
BRANCH  17  20
HETATM   20  N   UNL     1     -39.272 -44.687   9.128  1.00  0.00    -0.289 NA
HETATM   21  H   UNL     1     -38.598 -45.320   8.715  1.00  0.00     0.125 HD
HETATM   22  H   UNL     1     -38.862 -43.784   9.351  1.00  0.00     0.125 HD
ENDBRANCH  17  20
ENDBRANCH  12  13
ENDBRANCH  11  12
ENDBRANCH   2  11
BRANCH   1  23
HETATM   23  C   UNL     1     -39.075 -51.724  13.640  1.00  0.00     0.157 C 
BRANCH  23  24
HETATM   24  C   UNL     1     -39.047 -50.797  14.854  1.00  0.00     0.187 C 
BRANCH  24  25
HETATM   25  O   UNL     1     -38.178 -49.697  14.570  1.00  0.00    -0.394 OA
HETATM   26  C   UNL     1     -38.791 -48.448  14.868  1.00  0.00     0.201 C 
ENDBRANCH  24  25
ENDBRANCH  23  24
ENDBRANCH   1  23
TORSDOF 7
ENDMDL
MODEL 9
REMARK VINA RESULT:      -5.8      2.226      6.256
REMARK  7 active torsions:
REMARK  status: ('A' for Active; 'I' for Inactive)
REMARK    1  A    between atoms: O_2  and  C_3 
REMARK    2  A    between atoms: C_3  and  C_4 
REMARK    3  A    between atoms: C_4  and  N_5 
REMARK    4  A    between atoms: C_6  and  S_7 
REMARK    5  A    between atoms: S_7  and  C_8 
REMARK    6  A    between atoms: C_8  and  C_9 
REMARK    7  A    between atoms: C_13  and  N_14 
ROOT
HETATM    1  N   UNL     1     -40.438 -51.608  13.153  1.00  0.00    -0.324 N 
HETATM    2  C   UNL     1     -41.070 -51.069  12.054  1.00  0.00     0.148 A 
HETATM    3  N   UNL     1     -42.199 -51.685  11.788  1.00  0.00    -0.335 N 
ATOM      4  HN  UNL     1     -42.849 -51.482  11.028  1.00  0.00     0.168 HD
HETATM    5  C   UNL     1     -42.320 -52.659  12.747  1.00  0.00     0.061 A 
HETATM    6  C   UNL     1     -43.346 -53.595  12.948  1.00  0.00     0.032 A 
HETATM    7  C   UNL     1     -43.242 -54.504  14.009  1.00  0.00     0.002 A 
HETATM    8  C   UNL     1     -42.138 -54.481  14.859  1.00  0.00     0.002 A 
HETATM    9  C   UNL     1     -41.114 -53.543  14.688  1.00  0.00     0.032 A 
HETATM   10  C   UNL     1     -41.230 -52.645  13.615  1.00  0.00     0.063 A 
ENDROOT
BRANCH   2  11
HETATM   11  S   UNL     1     -40.459 -49.711  11.160  1.00  0.00    -0.088 SA
BRANCH  11  12
HETATM   12  C   UNL     1     -41.518 -48.357  11.776  1.00  0.00     0.139 C 
BRANCH  12  13
HETATM   13  C   UNL     1     -42.254 -47.653  10.651  1.00  0.00     0.020 A 
HETATM   14  C   UNL     1     -42.791 -46.383  10.850  1.00  0.00     0.026 A 
HETATM   15  C   UNL     1     -43.425 -45.746   9.782  1.00  0.00     0.005 A 
HETATM   16  C   UNL     1     -43.508 -46.396   8.559  1.00  0.00     0.042 A 
HETATM   17  C   UNL     1     -42.975 -47.671   8.445  1.00  0.00     0.077 A 
HETATM   18  N   UNL     1     -42.350 -48.298   9.458  1.00  0.00    -0.350 N 
ATOM     19  HN  UNL     1     -41.959 -49.232   9.334  1.00  0.00     0.167 HD
BRANCH  17  20
HETATM   20  N   UNL     1     -43.033 -48.347   7.226  1.00  0.00    -0.289 NA
HETATM   21  H   UNL     1     -43.989 -48.499   6.929  1.00  0.00     0.125 HD
HETATM   22  H   UNL     1     -42.527 -49.220   7.351  1.00  0.00     0.125 HD
ENDBRANCH  17  20
ENDBRANCH  12  13
ENDBRANCH  11  12
ENDBRANCH   2  11
BRANCH   1  23
HETATM   23  C   UNL     1     -39.232 -51.151  13.815  1.00  0.00     0.157 C 
BRANCH  23  24
HETATM   24  C   UNL     1     -39.458 -50.029  14.828  1.00  0.00     0.187 C 
BRANCH  24  25
HETATM   25  O   UNL     1     -38.383 -50.042  15.772  1.00  0.00    -0.394 OA
HETATM   26  C   UNL     1     -37.114 -50.043  15.128  1.00  0.00     0.201 C 
ENDBRANCH  24  25
ENDBRANCH  23  24
ENDBRANCH   1  23
TORSDOF 7
ENDMDL
