MODEL 1
REMARK VINA RESULT:      -6.1      0.000      0.000
REMARK  6 active torsions:
REMARK  status: ('A' for Active; 'I' for Inactive)
REMARK    1  A    between atoms: O_2  and  C_3 
REMARK    2  A    between atoms: C_3  and  C_4 
REMARK    3  A    between atoms: C_4  and  O_5 
REMARK    4  A    between atoms: O_5  and  C_6 
REMARK    5  A    between atoms: C_9  and  N_10 
REMARK       I    between atoms: N_10  and  C_11 
REMARK    6  A    between atoms: C_11  and  C_13 
REMARK       I    between atoms: N_17  and  C_18 
ROOT
HETATM    1  C   UNL     1     -41.057 -45.926  10.421  1.00  0.00     0.141 A 
HETATM    2  C   UNL     1     -40.100 -46.439  11.272  1.00  0.00     0.058 A 
HETATM    3  C   UNL     1     -40.133 -47.800  11.559  1.00  0.00     0.035 A 
HETATM    4  C   UNL     1     -41.104 -48.614  10.976  1.00  0.00     0.050 A 
HETATM    5  C   UNL     1     -42.034 -47.988  10.139  1.00  0.00     0.119 A 
HETATM    6  N   UNL     1     -42.030 -46.666   9.849  1.00  0.00    -0.345 N 
ATOM      7  HN  UNL     1     -42.726 -46.251   9.230  1.00  0.00     0.167 HD
ENDROOT
BRANCH   4   8
HETATM    8  N   UNL     1     -41.186 -50.009  11.194  1.00  0.00    -0.324 N 
HETATM    9  C   UNL     1     -41.794 -50.606  12.284  1.00  0.00     0.245 C 
HETATM   10  O   UNL     1     -42.271 -50.007  13.248  1.00  0.00    -0.271 OA
HETATM   11  H   UNL     1     -40.689 -50.615  10.545  1.00  0.00     0.169 HD
BRANCH   9  12
HETATM   12  C   UNL     1     -41.774 -52.142  12.313  1.00  0.00     0.179 C 
HETATM   13  C   UNL     1     -43.201 -52.705  12.473  1.00  0.00     0.037 C 
HETATM   14  C   UNL     1     -43.047 -54.018  13.246  1.00  0.00     0.022 C 
HETATM   15  C   UNL     1     -41.551 -54.215  13.376  1.00  0.00     0.127 C 
HETATM   16  N   UNL     1     -41.015 -52.867  13.335  1.00  0.00    -0.339 N 
HETATM   17  C   UNL     1     -39.642 -52.758  13.522  1.00  0.00     0.216 C 
HETATM   18  O   UNL     1     -38.938 -53.737  13.777  1.00  0.00    -0.274 OA
HETATM   19  C   UNL     1     -39.026 -51.385  13.493  1.00  0.00     0.117 C 
ENDBRANCH   9  12
ENDBRANCH   4   8
BRANCH   1  20
HETATM   20  O   UNL     1     -40.948 -44.584  10.129  1.00  0.00    -0.334 OA
BRANCH  20  21
HETATM   21  C   UNL     1     -40.234 -43.859  11.130  1.00  0.00     0.203 C 
BRANCH  21  22
HETATM   22  C   UNL     1     -41.015 -42.590  11.447  1.00  0.00     0.193 C 
BRANCH  22  23
HETATM   23  O   UNL     1     -42.089 -42.453  10.517  1.00  0.00    -0.394 OA
HETATM   24  C   UNL     1     -43.330 -42.253  11.178  1.00  0.00     0.201 C 
ENDBRANCH  22  23
ENDBRANCH  21  22
ENDBRANCH  20  21
ENDBRANCH   1  20
TORSDOF 6
ENDMDL
MODEL 2
REMARK VINA RESULT:      -5.6      1.827      2.832
REMARK  6 active torsions:
REMARK  status: ('A' for Active; 'I' for Inactive)
REMARK    1  A    between atoms: O_2  and  C_3 
REMARK    2  A    between atoms: C_3  and  C_4 
REMARK    3  A    between atoms: C_4  and  O_5 
REMARK    4  A    between atoms: O_5  and  C_6 
REMARK    5  A    between atoms: C_9  and  N_10 
REMARK       I    between atoms: N_10  and  C_11 
REMARK    6  A    between atoms: C_11  and  C_13 
REMARK       I    between atoms: N_17  and  C_18 
ROOT
HETATM    1  C   UNL     1     -41.531 -46.468  10.456  1.00  0.00     0.141 A 
HETATM    2  C   UNL     1     -42.840 -46.825  10.701  1.00  0.00     0.058 A 
HETATM    3  C   UNL     1     -43.094 -48.088  11.228  1.00  0.00     0.035 A 
HETATM    4  C   UNL     1     -42.036 -48.950  11.515  1.00  0.00     0.050 A 
HETATM    5  C   UNL     1     -40.748 -48.492  11.215  1.00  0.00     0.119 A 
HETATM    6  N   UNL     1     -40.474 -47.273  10.695  1.00  0.00    -0.345 N 
ATOM      7  HN  UNL     1     -39.519 -46.978  10.494  1.00  0.00     0.167 HD
ENDROOT
BRANCH   4   8
HETATM    8  N   UNL     1     -42.208 -50.236  12.078  1.00  0.00    -0.324 N 
HETATM    9  C   UNL     1     -42.576 -50.483  13.389  1.00  0.00     0.245 C 
HETATM   10  O   UNL     1     -42.721 -49.626  14.259  1.00  0.00    -0.271 OA
HETATM   11  H   UNL     1     -41.963 -51.037  11.501  1.00  0.00     0.169 HD
BRANCH   9  12
HETATM   12  C   UNL     1     -42.714 -51.961  13.785  1.00  0.00     0.179 C 
HETATM   13  C   UNL     1     -41.403 -52.726  13.511  1.00  0.00     0.037 C 
HETATM   14  C   UNL     1     -41.818 -54.160  13.171  1.00  0.00     0.022 C 
HETATM   15  C   UNL     1     -43.316 -54.189  13.392  1.00  0.00     0.127 C 
HETATM   16  N   UNL     1     -43.731 -52.816  13.166  1.00  0.00    -0.339 N 
HETATM   17  C   UNL     1     -45.100 -52.582  13.226  1.00  0.00     0.216 C 
HETATM   18  O   UNL     1     -45.911 -53.495  13.389  1.00  0.00    -0.274 OA
HETATM   19  C   UNL     1     -45.592 -51.179  12.998  1.00  0.00     0.117 C 
ENDBRANCH   9  12
ENDBRANCH   4   8
BRANCH   1  20
HETATM   20  O   UNL     1     -41.332 -45.190   9.984  1.00  0.00    -0.334 OA
BRANCH  20  21
HETATM   21  C   UNL     1     -40.165 -44.576  10.530  1.00  0.00     0.203 C 
BRANCH  21  22
HETATM   22  C   UNL     1     -40.577 -43.259  11.176  1.00  0.00     0.193 C 
BRANCH  22  23
HETATM   23  O   UNL     1     -41.867 -42.882  10.697  1.00  0.00    -0.394 OA
HETATM   24  C   UNL     1     -42.140 -41.513  10.956  1.00  0.00     0.201 C 
ENDBRANCH  22  23
ENDBRANCH  21  22
ENDBRANCH  20  21
ENDBRANCH   1  20
TORSDOF 6
ENDMDL
MODEL 3
REMARK VINA RESULT:      -5.4      2.897      3.995
REMARK  6 active torsions:
REMARK  status: ('A' for Active; 'I' for Inactive)
REMARK    1  A    between atoms: O_2  and  C_3 
REMARK    2  A    between atoms: C_3  and  C_4 
REMARK    3  A    between atoms: C_4  and  O_5 
REMARK    4  A    between atoms: O_5  and  C_6 
REMARK    5  A    between atoms: C_9  and  N_10 
REMARK       I    between atoms: N_10  and  C_11 
REMARK    6  A    between atoms: C_11  and  C_13 
REMARK       I    between atoms: N_17  and  C_18 
ROOT
HETATM    1  C   UNL     1     -42.199 -48.104  10.647  1.00  0.00     0.141 A 
HETATM    2  C   UNL     1     -43.012 -48.213  11.755  1.00  0.00     0.058 A 
HETATM    3  C   UNL     1     -42.674 -49.144  12.733  1.00  0.00     0.035 A 
HETATM    4  C   UNL     1     -41.527 -49.924  12.588  1.00  0.00     0.050 A 
HETATM    5  C   UNL     1     -40.782 -49.742  11.418  1.00  0.00     0.119 A 
HETATM    6  N   UNL     1     -41.092 -48.850  10.449  1.00  0.00    -0.345 N 
ATOM      7  HN  UNL     1     -40.519 -48.747   9.612  1.00  0.00     0.167 HD
ENDROOT
BRANCH   4   8
HETATM    8  N   UNL     1     -41.101 -50.870  13.550  1.00  0.00    -0.324 N 
HETATM    9  C   UNL     1     -40.949 -52.225  13.315  1.00  0.00     0.245 C 
HETATM   10  O   UNL     1     -41.243 -52.801  12.268  1.00  0.00    -0.271 OA
HETATM   11  H   UNL     1     -40.976 -50.543  14.505  1.00  0.00     0.169 HD
BRANCH   9  12
HETATM   12  C   UNL     1     -40.464 -53.068  14.504  1.00  0.00     0.179 C 
HETATM   13  C   UNL     1     -39.080 -53.683  14.211  1.00  0.00     0.037 C 
HETATM   14  C   UNL     1     -39.044 -55.011  14.972  1.00  0.00     0.022 C 
HETATM   15  C   UNL     1     -40.334 -55.036  15.763  1.00  0.00     0.127 C 
HETATM   16  N   UNL     1     -41.241 -54.214  14.983  1.00  0.00    -0.339 N 
HETATM   17  C   UNL     1     -42.546 -54.139  15.456  1.00  0.00     0.216 C 
HETATM   18  O   UNL     1     -42.924 -54.787  16.434  1.00  0.00    -0.274 OA
HETATM   19  C   UNL     1     -43.534 -53.303  14.689  1.00  0.00     0.117 C 
ENDBRANCH   9  12
ENDBRANCH   4   8
BRANCH   1  20
HETATM   20  O   UNL     1     -42.549 -47.132   9.735  1.00  0.00    -0.334 OA
BRANCH  20  21
HETATM   21  C   UNL     1     -43.475 -47.604   8.756  1.00  0.00     0.203 C 
BRANCH  21  22
HETATM   22  C   UNL     1     -44.750 -46.777   8.870  1.00  0.00     0.193 C 
BRANCH  22  23
HETATM   23  O   UNL     1     -45.699 -47.481   9.670  1.00  0.00    -0.394 OA
HETATM   24  C   UNL     1     -46.981 -47.505   9.058  1.00  0.00     0.201 C 
ENDBRANCH  22  23
ENDBRANCH  21  22
ENDBRANCH  20  21
ENDBRANCH   1  20
TORSDOF 6
ENDMDL
MODEL 4
REMARK VINA RESULT:      -5.3      2.528      4.082
REMARK  6 active torsions:
REMARK  status: ('A' for Active; 'I' for Inactive)
REMARK    1  A    between atoms: O_2  and  C_3 
REMARK    2  A    between atoms: C_3  and  C_4 
REMARK    3  A    between atoms: C_4  and  O_5 
REMARK    4  A    between atoms: O_5  and  C_6 
REMARK    5  A    between atoms: C_9  and  N_10 
REMARK       I    between atoms: N_10  and  C_11 
REMARK    6  A    between atoms: C_11  and  C_13 
REMARK       I    between atoms: N_17  and  C_18 
ROOT
HETATM    1  C   UNL     1     -41.204 -48.992  11.378  1.00  0.00     0.141 A 
HETATM    2  C   UNL     1     -40.040 -48.931  12.114  1.00  0.00     0.058 A 
HETATM    3  C   UNL     1     -39.869 -49.834  13.159  1.00  0.00     0.035 A 
HETATM    4  C   UNL     1     -40.854 -50.784  13.427  1.00  0.00     0.050 A 
HETATM    5  C   UNL     1     -42.002 -50.749  12.627  1.00  0.00     0.119 A 
HETATM    6  N   UNL     1     -42.196 -49.877  11.611  1.00  0.00    -0.345 N 
ATOM      7  HN  UNL     1     -43.047 -49.888  11.050  1.00  0.00     0.167 HD
ENDROOT
BRANCH   4   8
HETATM    8  N   UNL     1     -40.744 -51.754  14.451  1.00  0.00    -0.324 N 
HETATM    9  C   UNL     1     -40.249 -53.035  14.278  1.00  0.00     0.245 C 
HETATM   10  O   UNL     1     -39.919 -53.529  13.201  1.00  0.00    -0.271 OA
HETATM   11  H   UNL     1     -41.133 -51.521  15.361  1.00  0.00     0.169 HD
BRANCH   9  12
HETATM   12  C   UNL     1     -40.212 -53.920  15.534  1.00  0.00     0.179 C 
HETATM   13  C   UNL     1     -38.779 -54.421  15.807  1.00  0.00     0.037 C 
HETATM   14  C   UNL     1     -38.935 -55.791  16.472  1.00  0.00     0.022 C 
HETATM   15  C   UNL     1     -40.427 -55.955  16.670  1.00  0.00     0.127 C 
HETATM   16  N   UNL     1     -41.012 -55.145  15.617  1.00  0.00    -0.339 N 
HETATM   17  C   UNL     1     -42.398 -55.188  15.521  1.00  0.00     0.216 C 
HETATM   18  O   UNL     1     -43.079 -55.923  16.239  1.00  0.00    -0.274 OA
HETATM   19  C   UNL     1     -43.063 -54.371  14.448  1.00  0.00     0.117 C 
ENDBRANCH   9  12
ENDBRANCH   4   8
BRANCH   1  20
HETATM   20  O   UNL     1     -41.299 -48.111  10.323  1.00  0.00    -0.334 OA
BRANCH  20  21
HETATM   21  C   UNL     1     -42.585 -47.500  10.231  1.00  0.00     0.203 C 
BRANCH  21  22
HETATM   22  C   UNL     1     -42.388 -46.001  10.044  1.00  0.00     0.193 C 
BRANCH  22  23
HETATM   23  O   UNL     1     -43.159 -45.559   8.928  1.00  0.00    -0.394 OA
HETATM   24  C   UNL     1     -44.409 -46.230   8.859  1.00  0.00     0.201 C 
ENDBRANCH  22  23
ENDBRANCH  21  22
ENDBRANCH  20  21
ENDBRANCH   1  20
TORSDOF 6
ENDMDL
MODEL 5
REMARK VINA RESULT:      -5.2      2.015      8.264
REMARK  6 active torsions:
REMARK  status: ('A' for Active; 'I' for Inactive)
REMARK    1  A    between atoms: O_2  and  C_3 
REMARK    2  A    between atoms: C_3  and  C_4 
REMARK    3  A    between atoms: C_4  and  O_5 
REMARK    4  A    between atoms: O_5  and  C_6 
REMARK    5  A    between atoms: C_9  and  N_10 
REMARK       I    between atoms: N_10  and  C_11 
REMARK    6  A    between atoms: C_11  and  C_13 
REMARK       I    between atoms: N_17  and  C_18 
ROOT
HETATM    1  C   UNL     1     -41.042 -52.828  13.763  1.00  0.00     0.141 A 
HETATM    2  C   UNL     1     -40.137 -51.797  13.616  1.00  0.00     0.058 A 
HETATM    3  C   UNL     1     -40.520 -50.682  12.878  1.00  0.00     0.035 A 
HETATM    4  C   UNL     1     -41.798 -50.616  12.324  1.00  0.00     0.050 A 
HETATM    5  C   UNL     1     -42.631 -51.723  12.523  1.00  0.00     0.119 A 
HETATM    6  N   UNL     1     -42.281 -52.822  13.229  1.00  0.00    -0.345 N 
ATOM      7  HN  UNL     1     -42.921 -53.607  13.352  1.00  0.00     0.167 HD
ENDROOT
BRANCH   4   8
HETATM    8  N   UNL     1     -42.273 -49.506  11.587  1.00  0.00    -0.324 N 
HETATM    9  C   UNL     1     -42.756 -48.334  12.142  1.00  0.00     0.245 C 
HETATM   10  O   UNL     1     -42.916 -48.132  13.345  1.00  0.00    -0.271 OA
HETATM   11  H   UNL     1     -42.341 -49.609  10.577  1.00  0.00     0.169 HD
BRANCH   9  12
HETATM   12  C   UNL     1     -43.211 -47.253  11.149  1.00  0.00     0.179 C 
HETATM   13  C   UNL     1     -44.358 -47.776  10.260  1.00  0.00     0.037 C 
HETATM   14  C   UNL     1     -44.207 -47.055   8.917  1.00  0.00     0.022 C 
HETATM   15  C   UNL     1     -43.080 -46.068   9.136  1.00  0.00     0.127 C 
HETATM   16  N   UNL     1     -42.276 -46.677  10.180  1.00  0.00    -0.339 N 
HETATM   17  C   UNL     1     -41.110 -46.001  10.516  1.00  0.00     0.216 C 
HETATM   18  O   UNL     1     -40.747 -44.986   9.917  1.00  0.00    -0.274 OA
HETATM   19  C   UNL     1     -40.233 -46.584  11.591  1.00  0.00     0.117 C 
ENDBRANCH   9  12
ENDBRANCH   4   8
BRANCH   1  20
HETATM   20  O   UNL     1     -40.631 -53.884  14.546  1.00  0.00    -0.334 OA
BRANCH  20  21
HETATM   21  C   UNL     1     -39.394 -54.446  14.108  1.00  0.00     0.203 C 
BRANCH  21  22
HETATM   22  C   UNL     1     -38.766 -55.185  15.282  1.00  0.00     0.193 C 
BRANCH  22  23
HETATM   23  O   UNL     1     -39.772 -55.474  16.252  1.00  0.00    -0.394 OA
HETATM   24  C   UNL     1     -39.422 -56.596  17.048  1.00  0.00     0.201 C 
ENDBRANCH  22  23
ENDBRANCH  21  22
ENDBRANCH  20  21
ENDBRANCH   1  20
TORSDOF 6
ENDMDL
MODEL 6
REMARK VINA RESULT:      -5.2      3.096      8.025
REMARK  6 active torsions:
REMARK  status: ('A' for Active; 'I' for Inactive)
REMARK    1  A    between atoms: O_2  and  C_3 
REMARK    2  A    between atoms: C_3  and  C_4 
REMARK    3  A    between atoms: C_4  and  O_5 
REMARK    4  A    between atoms: O_5  and  C_6 
REMARK    5  A    between atoms: C_9  and  N_10 
REMARK       I    between atoms: N_10  and  C_11 
REMARK    6  A    between atoms: C_11  and  C_13 
REMARK       I    between atoms: N_17  and  C_18 
ROOT
HETATM    1  C   UNL     1     -44.356 -52.926  12.771  1.00  0.00     0.141 A 
HETATM    2  C   UNL     1     -44.762 -51.711  13.281  1.00  0.00     0.058 A 
HETATM    3  C   UNL     1     -43.808 -50.712  13.449  1.00  0.00     0.035 A 
HETATM    4  C   UNL     1     -42.482 -50.946  13.086  1.00  0.00     0.050 A 
HETATM    5  C   UNL     1     -42.177 -52.218  12.591  1.00  0.00     0.119 A 
HETATM    6  N   UNL     1     -43.083 -53.209  12.425  1.00  0.00    -0.345 N 
ATOM      7  HN  UNL     1     -42.818 -54.123  12.058  1.00  0.00     0.167 HD
ENDROOT
BRANCH   4   8
HETATM    8  N   UNL     1     -41.460 -49.974  13.197  1.00  0.00    -0.324 N 
HETATM    9  C   UNL     1     -41.115 -49.070  12.209  1.00  0.00     0.245 C 
HETATM   10  O   UNL     1     -41.591 -49.043  11.074  1.00  0.00    -0.271 OA
HETATM   11  H   UNL     1     -40.881 -49.997  14.034  1.00  0.00     0.169 HD
BRANCH   9  12
HETATM   12  C   UNL     1     -39.977 -48.095  12.550  1.00  0.00     0.179 C 
HETATM   13  C   UNL     1     -38.690 -48.864  12.914  1.00  0.00     0.037 C 
HETATM   14  C   UNL     1     -37.952 -47.985  13.928  1.00  0.00     0.022 C 
HETATM   15  C   UNL     1     -38.768 -46.711  13.998  1.00  0.00     0.127 C 
HETATM   16  N   UNL     1     -40.111 -47.134  13.648  1.00  0.00    -0.339 N 
HETATM   17  C   UNL     1     -41.091 -46.152  13.720  1.00  0.00     0.216 C 
HETATM   18  O   UNL     1     -40.846 -45.013  14.124  1.00  0.00    -0.274 OA
HETATM   19  C   UNL     1     -42.505 -46.529  13.370  1.00  0.00     0.117 C 
ENDBRANCH   9  12
ENDBRANCH   4   8
BRANCH   1  20
HETATM   20  O   UNL     1     -45.349 -53.861  12.577  1.00  0.00    -0.334 OA
BRANCH  20  21
HETATM   21  C   UNL     1     -45.309 -54.915  13.538  1.00  0.00     0.203 C 
BRANCH  21  22
HETATM   22  C   UNL     1     -46.250 -54.553  14.681  1.00  0.00     0.193 C 
BRANCH  22  23
HETATM   23  O   UNL     1     -45.518 -54.526  15.905  1.00  0.00    -0.394 OA
HETATM   24  C   UNL     1     -45.924 -53.444  16.731  1.00  0.00     0.201 C 
ENDBRANCH  22  23
ENDBRANCH  21  22
ENDBRANCH  20  21
ENDBRANCH   1  20
TORSDOF 6
ENDMDL
MODEL 7
REMARK VINA RESULT:      -5.2      3.659      5.014
REMARK  6 active torsions:
REMARK  status: ('A' for Active; 'I' for Inactive)
REMARK    1  A    between atoms: O_2  and  C_3 
REMARK    2  A    between atoms: C_3  and  C_4 
REMARK    3  A    between atoms: C_4  and  O_5 
REMARK    4  A    between atoms: O_5  and  C_6 
REMARK    5  A    between atoms: C_9  and  N_10 
REMARK       I    between atoms: N_10  and  C_11 
REMARK    6  A    between atoms: C_11  and  C_13 
REMARK       I    between atoms: N_17  and  C_18 
ROOT
HETATM    1  C   UNL     1     -41.530 -48.175  10.598  1.00  0.00     0.141 A 
HETATM    2  C   UNL     1     -40.739 -47.280  11.287  1.00  0.00     0.058 A 
HETATM    3  C   UNL     1     -39.823 -47.779  12.208  1.00  0.00     0.035 A 
HETATM    4  C   UNL     1     -39.707 -49.156  12.401  1.00  0.00     0.050 A 
HETATM    5  C   UNL     1     -40.568 -49.973  11.659  1.00  0.00     0.119 A 
HETATM    6  N   UNL     1     -41.472 -49.513  10.764  1.00  0.00    -0.345 N 
ATOM      7  HN  UNL     1     -42.079 -50.145  10.242  1.00  0.00     0.167 HD
ENDROOT
BRANCH   4   8
HETATM    8  N   UNL     1     -38.782 -49.743  13.295  1.00  0.00    -0.324 N 
HETATM    9  C   UNL     1     -38.954 -49.838  14.664  1.00  0.00     0.245 C 
HETATM   10  O   UNL     1     -39.892 -49.353  15.297  1.00  0.00    -0.271 OA
HETATM   11  H   UNL     1     -37.888 -50.043  12.913  1.00  0.00     0.169 HD
BRANCH   9  12
HETATM   12  C   UNL     1     -37.822 -50.525  15.443  1.00  0.00     0.179 C 
HETATM   13  C   UNL     1     -38.378 -51.655  16.334  1.00  0.00     0.037 C 
HETATM   14  C   UNL     1     -37.451 -51.721  17.551  1.00  0.00     0.022 C 
HETATM   15  C   UNL     1     -36.345 -50.733  17.246  1.00  0.00     0.127 C 
HETATM   16  N   UNL     1     -36.970 -49.766  16.362  1.00  0.00    -0.339 N 
HETATM   17  C   UNL     1     -36.179 -48.685  15.993  1.00  0.00     0.216 C 
HETATM   18  O   UNL     1     -35.043 -48.523  16.444  1.00  0.00    -0.274 OA
HETATM   19  C   UNL     1     -36.772 -47.648  15.079  1.00  0.00     0.117 C 
ENDBRANCH   9  12
ENDBRANCH   4   8
BRANCH   1  20
HETATM   20  O   UNL     1     -42.382 -47.631   9.662  1.00  0.00    -0.334 OA
BRANCH  20  21
HETATM   21  C   UNL     1     -43.730 -47.552  10.125  1.00  0.00     0.203 C 
BRANCH  21  22
HETATM   22  C   UNL     1     -44.631 -47.296   8.924  1.00  0.00     0.193 C 
BRANCH  22  23
HETATM   23  O   UNL     1     -45.982 -47.168   9.367  1.00  0.00    -0.394 OA
HETATM   24  C   UNL     1     -46.768 -48.283   8.972  1.00  0.00     0.201 C 
ENDBRANCH  22  23
ENDBRANCH  21  22
ENDBRANCH  20  21
ENDBRANCH   1  20
TORSDOF 6
ENDMDL
MODEL 8
REMARK VINA RESULT:      -5.1      2.572      3.575
REMARK  6 active torsions:
REMARK  status: ('A' for Active; 'I' for Inactive)
REMARK    1  A    between atoms: O_2  and  C_3 
REMARK    2  A    between atoms: C_3  and  C_4 
REMARK    3  A    between atoms: C_4  and  O_5 
REMARK    4  A    between atoms: O_5  and  C_6 
REMARK    5  A    between atoms: C_9  and  N_10 
REMARK       I    between atoms: N_10  and  C_11 
REMARK    6  A    between atoms: C_11  and  C_13 
REMARK       I    between atoms: N_17  and  C_18 
ROOT
HETATM    1  C   UNL     1     -40.849 -47.628  11.044  1.00  0.00     0.141 A 
HETATM    2  C   UNL     1     -40.221 -47.359  12.241  1.00  0.00     0.058 A 
HETATM    3  C   UNL     1     -39.680 -48.422  12.958  1.00  0.00     0.035 A 
HETATM    4  C   UNL     1     -39.761 -49.719  12.451  1.00  0.00     0.050 A 
HETATM    5  C   UNL     1     -40.431 -49.881  11.233  1.00  0.00     0.119 A 
HETATM    6  N   UNL     1     -40.973 -48.867  10.521  1.00  0.00    -0.345 N 
ATOM      7  HN  UNL     1     -41.451 -49.029   9.635  1.00  0.00     0.167 HD
ENDROOT
BRANCH   4   8
HETATM    8  N   UNL     1     -39.211 -50.847  13.103  1.00  0.00    -0.324 N 
HETATM    9  C   UNL     1     -39.918 -51.716  13.914  1.00  0.00     0.245 C 
HETATM   10  O   UNL     1     -41.096 -51.580  14.245  1.00  0.00    -0.271 OA
HETATM   11  H   UNL     1     -38.204 -50.981  13.038  1.00  0.00     0.169 HD
BRANCH   9  12
HETATM   12  C   UNL     1     -39.119 -52.883  14.515  1.00  0.00     0.179 C 
HETATM   13  C   UNL     1     -39.724 -54.237  14.089  1.00  0.00     0.037 C 
HETATM   14  C   UNL     1     -39.444 -55.201  15.245  1.00  0.00     0.022 C 
HETATM   15  C   UNL     1     -38.589 -54.408  16.209  1.00  0.00     0.127 C 
HETATM   16  N   UNL     1     -38.970 -53.029  15.965  1.00  0.00    -0.339 N 
HETATM   17  C   UNL     1     -38.380 -52.083  16.795  1.00  0.00     0.216 C 
HETATM   18  O   UNL     1     -37.636 -52.403  17.724  1.00  0.00    -0.274 OA
HETATM   19  C   UNL     1     -38.737 -50.636  16.592  1.00  0.00     0.117 C 
ENDBRANCH   9  12
ENDBRANCH   4   8
BRANCH   1  20
HETATM   20  O   UNL     1     -41.321 -46.536  10.350  1.00  0.00    -0.334 OA
BRANCH  20  21
HETATM   21  C   UNL     1     -42.663 -46.200  10.701  1.00  0.00     0.203 C 
BRANCH  21  22
HETATM   22  C   UNL     1     -43.533 -46.358   9.459  1.00  0.00     0.193 C 
BRANCH  22  23
HETATM   23  O   UNL     1     -43.548 -47.729   9.066  1.00  0.00    -0.394 OA
HETATM   24  C   UNL     1     -43.483 -47.867   7.654  1.00  0.00     0.201 C 
ENDBRANCH  22  23
ENDBRANCH  21  22
ENDBRANCH  20  21
ENDBRANCH   1  20
TORSDOF 6
ENDMDL
MODEL 9
REMARK VINA RESULT:      -4.9      5.141      6.630
REMARK  6 active torsions:
REMARK  status: ('A' for Active; 'I' for Inactive)
REMARK    1  A    between atoms: O_2  and  C_3 
REMARK    2  A    between atoms: C_3  and  C_4 
REMARK    3  A    between atoms: C_4  and  O_5 
REMARK    4  A    between atoms: O_5  and  C_6 
REMARK    5  A    between atoms: C_9  and  N_10 
REMARK       I    between atoms: N_10  and  C_11 
REMARK    6  A    between atoms: C_11  and  C_13 
REMARK       I    between atoms: N_17  and  C_18 
ROOT
HETATM    1  C   UNL     1     -38.417 -50.734  14.549  1.00  0.00     0.141 A 
HETATM    2  C   UNL     1     -39.296 -49.676  14.644  1.00  0.00     0.058 A 
HETATM    3  C   UNL     1     -40.650 -49.921  14.432  1.00  0.00     0.035 A 
HETATM    4  C   UNL     1     -41.090 -51.214  14.152  1.00  0.00     0.050 A 
HETATM    5  C   UNL     1     -40.111 -52.210  14.065  1.00  0.00     0.119 A 
HETATM    6  N   UNL     1     -38.789 -51.998  14.259  1.00  0.00    -0.345 N 
ATOM      7  HN  UNL     1     -38.109 -52.755  14.189  1.00  0.00     0.167 HD
ENDROOT
BRANCH   4   8
HETATM    8  N   UNL     1     -42.450 -51.549  13.953  1.00  0.00    -0.324 N 
HETATM    9  C   UNL     1     -43.357 -51.811  14.964  1.00  0.00     0.245 C 
HETATM   10  O   UNL     1     -43.085 -51.870  16.164  1.00  0.00    -0.271 OA
HETATM   11  H   UNL     1     -42.763 -51.689  12.995  1.00  0.00     0.169 HD
BRANCH   9  12
HETATM   12  C   UNL     1     -44.789 -52.146  14.519  1.00  0.00     0.179 C 
HETATM   13  C   UNL     1     -45.799 -51.155  15.133  1.00  0.00     0.037 C 
HETATM   14  C   UNL     1     -47.098 -51.944  15.318  1.00  0.00     0.022 C 
HETATM   15  C   UNL     1     -46.821 -53.293  14.689  1.00  0.00     0.127 C 
HETATM   16  N   UNL     1     -45.384 -53.452  14.815  1.00  0.00    -0.339 N 
HETATM   17  C   UNL     1     -44.871 -54.669  14.381  1.00  0.00     0.216 C 
HETATM   18  O   UNL     1     -45.599 -55.579  13.982  1.00  0.00    -0.274 OA
HETATM   19  C   UNL     1     -43.387 -54.894  14.488  1.00  0.00     0.117 C 
ENDBRANCH   9  12
ENDBRANCH   4   8
BRANCH   1  20
HETATM   20  O   UNL     1     -37.097 -50.447  14.819  1.00  0.00    -0.334 OA
BRANCH  20  21
HETATM   21  C   UNL     1     -36.914 -49.858  16.106  1.00  0.00     0.203 C 
BRANCH  21  22
HETATM   22  C   UNL     1     -35.505 -50.189  16.585  1.00  0.00     0.193 C 
BRANCH  22  23
HETATM   23  O   UNL     1     -34.909 -49.017  17.139  1.00  0.00    -0.394 OA
HETATM   24  C   UNL     1     -35.539 -47.836  16.664  1.00  0.00     0.201 C 
ENDBRANCH  22  23
ENDBRANCH  21  22
ENDBRANCH  20  21
ENDBRANCH   1  20
TORSDOF 6
ENDMDL
