MODEL 1
REMARK VINA RESULT:      -6.3      0.000      0.000
REMARK  4 active torsions:
REMARK  status: ('A' for Active; 'I' for Inactive)
REMARK    1  A    between atoms: C_2  and  C_3 
REMARK    2  A    between atoms: C_2  and  N_10 
REMARK    3  A    between atoms: C_3  and  N_4 
REMARK       I    between atoms: N_10  and  C_11 
REMARK    4  A    between atoms: C_11  and  C_13 
ROOT
HETATM    1  N   UNL     1     -41.353 -50.224  11.748  1.00  0.00    -0.350 N 
HETATM    2  C   UNL     1     -40.703 -49.064  11.399  1.00  0.00     0.265 C 
HETATM    3  O   UNL     1     -39.520 -48.826  11.593  1.00  0.00    -0.266 OA
HETATM    4  H   UNL     1     -42.369 -50.200  11.691  1.00  0.00     0.163 HD
ENDROOT
BRANCH   1   5
HETATM    5  C   UNL     1     -40.687 -51.320  12.466  1.00  0.00     0.100 C 
HETATM    6  C   UNL     1     -40.984 -51.184  13.962  1.00  0.00     0.034 C 
BRANCH   5   7
HETATM    7  C   UNL     1     -41.108 -52.700  11.916  1.00  0.00     0.172 C 
BRANCH   7   8
HETATM    8  N   UNL     1     -42.321 -53.220  12.516  1.00  0.00    -0.302 N 
HETATM    9  C   UNL     1     -42.411 -54.069  13.582  1.00  0.00     0.111 A 
HETATM   10  C   UNL     1     -43.755 -54.287  13.780  1.00  0.00     0.037 A 
HETATM   11  C   UNL     1     -44.389 -53.541  12.771  1.00  0.00     0.108 A 
HETATM   12  N   UNL     1     -43.519 -52.898  11.990  1.00  0.00    -0.310 N 
ATOM     13  HN  UNL     1     -43.714 -52.303  11.185  1.00  0.00     0.186 HD
ENDBRANCH   7   8
ENDBRANCH   5   7
ENDBRANCH   1   5
BRANCH   2  14
HETATM   14  C   UNL     1     -41.568 -48.041  10.671  1.00  0.00     0.094 C 
HETATM   15  N   UNL     1     -42.108 -48.378   9.543  1.00  0.00    -0.295 N 
HETATM   16  N   UNL     1     -42.909 -47.473   8.897  1.00  0.00    -0.265 N 
ATOM     17  HN  UNL     1     -41.940 -49.301   9.143  1.00  0.00     0.187 HD
HETATM   18  C   UNL     1     -43.543 -47.931   7.672  1.00  0.00     0.181 C 
HETATM   19  C   UNL     1     -43.174 -46.181   9.322  1.00  0.00     0.238 C 
HETATM   20  O   UNL     1     -43.920 -45.416   8.705  1.00  0.00    -0.272 OA
HETATM   21  C   UNL     1     -42.487 -45.697  10.567  1.00  0.00     0.111 C 
HETATM   22  C   UNL     1     -41.709 -46.720  11.352  1.00  0.00     0.073 C 
ENDBRANCH   2  14
TORSDOF 4
ENDMDL
MODEL 2
REMARK VINA RESULT:      -6.2      2.584      3.241
REMARK  4 active torsions:
REMARK  status: ('A' for Active; 'I' for Inactive)
REMARK    1  A    between atoms: C_2  and  C_3 
REMARK    2  A    between atoms: C_2  and  N_10 
REMARK    3  A    between atoms: C_3  and  N_4 
REMARK       I    between atoms: N_10  and  C_11 
REMARK    4  A    between atoms: C_11  and  C_13 
ROOT
HETATM    1  N   UNL     1     -39.355 -49.053  11.221  1.00  0.00    -0.350 N 
HETATM    2  C   UNL     1     -40.717 -49.240  11.261  1.00  0.00     0.265 C 
HETATM    3  O   UNL     1     -41.289 -50.189  11.778  1.00  0.00    -0.266 OA
HETATM    4  H   UNL     1     -39.024 -48.318  10.599  1.00  0.00     0.163 HD
ENDROOT
BRANCH   1   5
HETATM    5  C   UNL     1     -38.405 -50.035  11.762  1.00  0.00     0.100 C 
HETATM    6  C   UNL     1     -37.144 -50.036  10.892  1.00  0.00     0.034 C 
BRANCH   5   7
HETATM    7  C   UNL     1     -38.081 -49.756  13.246  1.00  0.00     0.172 C 
BRANCH   7   8
HETATM    8  N   UNL     1     -38.559 -50.783  14.150  1.00  0.00    -0.302 N 
HETATM    9  C   UNL     1     -38.265 -50.911  15.477  1.00  0.00     0.111 A 
HETATM   10  C   UNL     1     -38.936 -52.033  15.908  1.00  0.00     0.037 A 
HETATM   11  C   UNL     1     -39.590 -52.518  14.761  1.00  0.00     0.108 A 
HETATM   12  N   UNL     1     -39.354 -51.766  13.684  1.00  0.00    -0.310 N 
ATOM     13  HN  UNL     1     -39.695 -51.904  12.732  1.00  0.00     0.186 HD
ENDBRANCH   7   8
ENDBRANCH   5   7
ENDBRANCH   1   5
BRANCH   2  14
HETATM   14  C   UNL     1     -41.534 -48.116  10.636  1.00  0.00     0.094 C 
HETATM   15  N   UNL     1     -42.248 -48.378   9.588  1.00  0.00    -0.295 N 
HETATM   16  N   UNL     1     -43.006 -47.378   9.037  1.00  0.00    -0.265 N 
ATOM     17  HN  UNL     1     -42.245 -49.313   9.178  1.00  0.00     0.187 HD
HETATM   18  C   UNL     1     -43.839 -47.749   7.905  1.00  0.00     0.181 C 
HETATM   19  C   UNL     1     -43.058 -46.067   9.478  1.00  0.00     0.238 C 
HETATM   20  O   UNL     1     -43.776 -45.213   8.951  1.00  0.00    -0.272 OA
HETATM   21  C   UNL     1     -42.167 -45.677  10.624  1.00  0.00     0.111 C 
HETATM   22  C   UNL     1     -41.428 -46.791  11.316  1.00  0.00     0.073 C 
ENDBRANCH   2  14
TORSDOF 4
ENDMDL
MODEL 3
REMARK VINA RESULT:      -6.2      1.887      2.699
REMARK  4 active torsions:
REMARK  status: ('A' for Active; 'I' for Inactive)
REMARK    1  A    between atoms: C_2  and  C_3 
REMARK    2  A    between atoms: C_2  and  N_10 
REMARK    3  A    between atoms: C_3  and  N_4 
REMARK       I    between atoms: N_10  and  C_11 
REMARK    4  A    between atoms: C_11  and  C_13 
ROOT
HETATM    1  N   UNL     1     -44.457 -50.379  12.691  1.00  0.00    -0.350 N 
HETATM    2  C   UNL     1     -43.299 -49.694  12.976  1.00  0.00     0.265 C 
HETATM    3  O   UNL     1     -42.446 -50.042  13.778  1.00  0.00    -0.266 OA
HETATM    4  H   UNL     1     -45.150 -49.874  12.143  1.00  0.00     0.163 HD
ENDROOT
BRANCH   1   5
HETATM    5  C   UNL     1     -44.834 -51.618  13.386  1.00  0.00     0.100 C 
HETATM    6  C   UNL     1     -46.338 -51.585  13.676  1.00  0.00     0.034 C 
BRANCH   5   7
HETATM    7  C   UNL     1     -44.430 -52.870  12.577  1.00  0.00     0.172 C 
BRANCH   7   8
HETATM    8  N   UNL     1     -43.011 -53.160  12.623  1.00  0.00    -0.302 N 
HETATM    9  C   UNL     1     -42.358 -53.921  13.550  1.00  0.00     0.111 A 
HETATM   10  C   UNL     1     -41.030 -53.901  13.190  1.00  0.00     0.037 A 
HETATM   11  C   UNL     1     -40.985 -53.087  12.044  1.00  0.00     0.108 A 
HETATM   12  N   UNL     1     -42.188 -52.623  11.702  1.00  0.00    -0.310 N 
ATOM     13  HN  UNL     1     -42.428 -52.006  10.925  1.00  0.00     0.186 HD
ENDBRANCH   7   8
ENDBRANCH   5   7
ENDBRANCH   1   5
BRANCH   2  14
HETATM   14  C   UNL     1     -43.091 -48.425  12.158  1.00  0.00     0.094 C 
HETATM   15  N   UNL     1     -43.306 -48.469  10.881  1.00  0.00    -0.295 N 
HETATM   16  N   UNL     1     -43.147 -47.324  10.144  1.00  0.00    -0.265 N 
ATOM     17  HN  UNL     1     -43.588 -49.339  10.432  1.00  0.00     0.187 HD
HETATM   18  C   UNL     1     -43.469 -47.417   8.730  1.00  0.00     0.181 C 
HETATM   19  C   UNL     1     -42.729 -46.098  10.636  1.00  0.00     0.238 C 
HETATM   20  O   UNL     1     -42.622 -45.095   9.924  1.00  0.00    -0.272 OA
HETATM   21  C   UNL     1     -42.359 -46.015  12.089  1.00  0.00     0.111 C 
HETATM   22  C   UNL     1     -42.651 -47.228  12.933  1.00  0.00     0.073 C 
ENDBRANCH   2  14
TORSDOF 4
ENDMDL
MODEL 4
REMARK VINA RESULT:      -6.1      2.942      6.424
REMARK  4 active torsions:
REMARK  status: ('A' for Active; 'I' for Inactive)
REMARK    1  A    between atoms: C_2  and  C_3 
REMARK    2  A    between atoms: C_2  and  N_10 
REMARK    3  A    between atoms: C_3  and  N_4 
REMARK       I    between atoms: N_10  and  C_11 
REMARK    4  A    between atoms: C_11  and  C_13 
ROOT
HETATM    1  N   UNL     1     -42.033 -50.385  11.797  1.00  0.00    -0.350 N 
HETATM    2  C   UNL     1     -41.708 -51.708  11.983  1.00  0.00     0.265 C 
HETATM    3  O   UNL     1     -40.623 -52.214  11.741  1.00  0.00    -0.266 OA
HETATM    4  H   UNL     1     -43.022 -50.154  11.868  1.00  0.00     0.163 HD
ENDROOT
BRANCH   1   5
HETATM    5  C   UNL     1     -41.096 -49.415  11.213  1.00  0.00     0.100 C 
HETATM    6  C   UNL     1     -41.897 -48.267  10.590  1.00  0.00     0.034 C 
BRANCH   5   7
HETATM    7  C   UNL     1     -40.077 -48.908  12.256  1.00  0.00     0.172 C 
BRANCH   7   8
HETATM    8  N   UNL     1     -38.860 -49.694  12.311  1.00  0.00    -0.302 N 
HETATM    9  C   UNL     1     -38.199 -50.105  13.433  1.00  0.00     0.111 A 
HETATM   10  C   UNL     1     -37.103 -50.809  12.990  1.00  0.00     0.037 A 
HETATM   11  C   UNL     1     -37.184 -50.749  11.588  1.00  0.00     0.108 A 
HETATM   12  N   UNL     1     -38.248 -50.060  11.169  1.00  0.00    -0.310 N 
ATOM     13  HN  UNL     1     -38.530 -49.858  10.210  1.00  0.00     0.186 HD
ENDBRANCH   7   8
ENDBRANCH   5   7
ENDBRANCH   1   5
BRANCH   2  14
HETATM   14  C   UNL     1     -42.818 -52.558  12.590  1.00  0.00     0.094 C 
HETATM   15  N   UNL     1     -44.045 -52.169  12.446  1.00  0.00    -0.295 N 
HETATM   16  N   UNL     1     -45.050 -52.943  12.966  1.00  0.00    -0.265 N 
ATOM     17  HN  UNL     1     -44.260 -51.301  11.955  1.00  0.00     0.187 HD
HETATM   18  C   UNL     1     -46.408 -52.492  12.714  1.00  0.00     0.181 C 
HETATM   19  C   UNL     1     -44.878 -54.114  13.685  1.00  0.00     0.238 C 
HETATM   20  O   UNL     1     -45.825 -54.779  14.115  1.00  0.00    -0.272 OA
HETATM   21  C   UNL     1     -43.472 -54.556  13.979  1.00  0.00     0.111 C 
HETATM   22  C   UNL     1     -42.366 -53.787  13.306  1.00  0.00     0.073 C 
ENDBRANCH   2  14
TORSDOF 4
ENDMDL
MODEL 5
REMARK VINA RESULT:      -6.0      2.011      3.578
REMARK  4 active torsions:
REMARK  status: ('A' for Active; 'I' for Inactive)
REMARK    1  A    between atoms: C_2  and  C_3 
REMARK    2  A    between atoms: C_2  and  N_10 
REMARK    3  A    between atoms: C_3  and  N_4 
REMARK       I    between atoms: N_10  and  C_11 
REMARK    4  A    between atoms: C_11  and  C_13 
ROOT
HETATM    1  N   UNL     1     -42.526 -52.591  12.872  1.00  0.00    -0.350 N 
HETATM    2  C   UNL     1     -41.279 -52.305  12.367  1.00  0.00     0.265 C 
HETATM    3  O   UNL     1     -40.399 -53.122  12.141  1.00  0.00    -0.266 OA
HETATM    4  H   UNL     1     -43.077 -51.791  13.178  1.00  0.00     0.163 HD
ENDROOT
BRANCH   1   5
HETATM    5  C   UNL     1     -42.929 -53.948  13.263  1.00  0.00     0.100 C 
HETATM    6  C   UNL     1     -42.651 -54.137  14.757  1.00  0.00     0.034 C 
BRANCH   5   7
HETATM    7  C   UNL     1     -44.407 -54.227  12.912  1.00  0.00     0.172 C 
BRANCH   7   8
HETATM    8  N   UNL     1     -45.279 -53.088  13.118  1.00  0.00    -0.302 N 
HETATM    9  C   UNL     1     -45.736 -52.610  14.313  1.00  0.00     0.111 A 
HETATM   10  C   UNL     1     -46.534 -51.531  14.009  1.00  0.00     0.037 A 
HETATM   11  C   UNL     1     -46.507 -51.452  12.605  1.00  0.00     0.108 A 
HETATM   12  N   UNL     1     -45.753 -52.407  12.057  1.00  0.00    -0.310 N 
ATOM     13  HN  UNL     1     -45.577 -52.581  11.067  1.00  0.00     0.186 HD
ENDBRANCH   7   8
ENDBRANCH   5   7
ENDBRANCH   1   5
BRANCH   2  14
HETATM   14  C   UNL     1     -41.047 -50.835  12.034  1.00  0.00     0.094 C 
HETATM   15  N   UNL     1     -42.062 -50.113  11.679  1.00  0.00    -0.295 N 
HETATM   16  N   UNL     1     -41.865 -48.784  11.404  1.00  0.00    -0.265 N 
ATOM     17  HN  UNL     1     -42.992 -50.525  11.605  1.00  0.00     0.187 HD
HETATM   18  C   UNL     1     -43.051 -48.010  11.079  1.00  0.00     0.181 C 
HETATM   19  C   UNL     1     -40.647 -48.127  11.430  1.00  0.00     0.238 C 
HETATM   20  O   UNL     1     -40.534 -46.921  11.190  1.00  0.00    -0.272 OA
HETATM   21  C   UNL     1     -39.418 -48.938  11.728  1.00  0.00     0.111 C 
HETATM   22  C   UNL     1     -39.636 -50.365  12.155  1.00  0.00     0.073 C 
ENDBRANCH   2  14
TORSDOF 4
ENDMDL
MODEL 6
REMARK VINA RESULT:      -5.9      2.575      7.158
REMARK  4 active torsions:
REMARK  status: ('A' for Active; 'I' for Inactive)
REMARK    1  A    between atoms: C_2  and  C_3 
REMARK    2  A    between atoms: C_2  and  N_10 
REMARK    3  A    between atoms: C_3  and  N_4 
REMARK       I    between atoms: N_10  and  C_11 
REMARK    4  A    between atoms: C_11  and  C_13 
ROOT
HETATM    1  N   UNL     1     -42.082 -49.700  11.438  1.00  0.00    -0.350 N 
HETATM    2  C   UNL     1     -41.325 -50.759  11.881  1.00  0.00     0.265 C 
HETATM    3  O   UNL     1     -40.105 -50.815  11.869  1.00  0.00    -0.266 OA
HETATM    4  H   UNL     1     -43.080 -49.875  11.340  1.00  0.00     0.163 HD
ENDROOT
BRANCH   1   5
HETATM    5  C   UNL     1     -41.487 -48.502  10.830  1.00  0.00     0.100 C 
HETATM    6  C   UNL     1     -42.517 -47.855   9.899  1.00  0.00     0.034 C 
BRANCH   5   7
HETATM    7  C   UNL     1     -40.977 -47.513  11.901  1.00  0.00     0.172 C 
BRANCH   7   8
HETATM    8  N   UNL     1     -40.577 -46.227  11.364  1.00  0.00    -0.302 N 
HETATM    9  C   UNL     1     -41.042 -45.000  11.741  1.00  0.00     0.111 A 
HETATM   10  C   UNL     1     -40.383 -44.086  10.951  1.00  0.00     0.037 A 
HETATM   11  C   UNL     1     -39.557 -44.865  10.120  1.00  0.00     0.108 A 
HETATM   12  N   UNL     1     -39.681 -46.172  10.360  1.00  0.00    -0.310 N 
ATOM     13  HN  UNL     1     -39.208 -46.946   9.893  1.00  0.00     0.186 HD
ENDBRANCH   7   8
ENDBRANCH   5   7
ENDBRANCH   1   5
BRANCH   2  14
HETATM   14  C   UNL     1     -42.127 -51.915  12.469  1.00  0.00     0.094 C 
HETATM   15  N   UNL     1     -43.420 -51.852  12.433  1.00  0.00    -0.295 N 
HETATM   16  N   UNL     1     -44.147 -52.901  12.936  1.00  0.00    -0.265 N 
ATOM     17  HN  UNL     1     -43.890 -51.038  12.039  1.00  0.00     0.187 HD
HETATM   18  C   UNL     1     -45.591 -52.805  12.806  1.00  0.00     0.181 C 
HETATM   19  C   UNL     1     -43.622 -54.036  13.531  1.00  0.00     0.238 C 
HETATM   20  O   UNL     1     -44.328 -54.957  13.950  1.00  0.00    -0.272 OA
HETATM   21  C   UNL     1     -42.131 -54.114  13.699  1.00  0.00     0.111 C 
HETATM   22  C   UNL     1     -41.317 -53.032  13.039  1.00  0.00     0.073 C 
ENDBRANCH   2  14
TORSDOF 4
ENDMDL
MODEL 7
REMARK VINA RESULT:      -5.8      1.790      2.315
REMARK  4 active torsions:
REMARK  status: ('A' for Active; 'I' for Inactive)
REMARK    1  A    between atoms: C_2  and  C_3 
REMARK    2  A    between atoms: C_2  and  N_10 
REMARK    3  A    between atoms: C_3  and  N_4 
REMARK       I    between atoms: N_10  and  C_11 
REMARK    4  A    between atoms: C_11  and  C_13 
ROOT
HETATM    1  N   UNL     1     -42.124 -51.214  11.770  1.00  0.00    -0.350 N 
HETATM    2  C   UNL     1     -41.501 -50.193  12.449  1.00  0.00     0.265 C 
HETATM    3  O   UNL     1     -40.943 -50.295  13.531  1.00  0.00    -0.266 OA
HETATM    4  H   UNL     1     -42.699 -50.937  10.978  1.00  0.00     0.163 HD
ENDROOT
BRANCH   1   5
HETATM    5  C   UNL     1     -42.240 -52.573  12.318  1.00  0.00     0.100 C 
HETATM    6  C   UNL     1     -40.835 -53.138  12.544  1.00  0.00     0.034 C 
BRANCH   5   7
HETATM    7  C   UNL     1     -43.086 -52.596  13.610  1.00  0.00     0.172 C 
BRANCH   7   8
HETATM    8  N   UNL     1     -44.478 -52.249  13.401  1.00  0.00    -0.302 N 
HETATM    9  C   UNL     1     -45.285 -51.545  14.248  1.00  0.00     0.111 A 
HETATM   10  C   UNL     1     -46.513 -51.476  13.631  1.00  0.00     0.037 A 
HETATM   11  C   UNL     1     -46.347 -52.184  12.428  1.00  0.00     0.108 A 
HETATM   12  N   UNL     1     -45.111 -52.668  12.288  1.00  0.00    -0.310 N 
ATOM     13  HN  UNL     1     -44.735 -53.224  11.520  1.00  0.00     0.186 HD
ENDBRANCH   7   8
ENDBRANCH   5   7
ENDBRANCH   1   5
BRANCH   2  14
HETATM   14  C   UNL     1     -41.495 -48.853  11.721  1.00  0.00     0.094 C 
HETATM   15  N   UNL     1     -42.328 -48.675  10.746  1.00  0.00    -0.295 N 
HETATM   16  N   UNL     1     -42.347 -47.463  10.105  1.00  0.00    -0.265 N 
ATOM     17  HN  UNL     1     -42.960 -49.423  10.459  1.00  0.00     0.187 HD
HETATM   18  C   UNL     1     -43.350 -47.298   9.066  1.00  0.00     0.181 C 
HETATM   19  C   UNL     1     -41.512 -46.393  10.377  1.00  0.00     0.238 C 
HETATM   20  O   UNL     1     -41.588 -45.317   9.777  1.00  0.00    -0.272 OA
HETATM   21  C   UNL     1     -40.451 -46.580  11.424  1.00  0.00     0.111 C 
HETATM   22  C   UNL     1     -40.503 -47.856  12.221  1.00  0.00     0.073 C 
ENDBRANCH   2  14
TORSDOF 4
ENDMDL
MODEL 8
REMARK VINA RESULT:      -5.8      4.246      6.330
REMARK  4 active torsions:
REMARK  status: ('A' for Active; 'I' for Inactive)
REMARK    1  A    between atoms: C_2  and  C_3 
REMARK    2  A    between atoms: C_2  and  N_10 
REMARK    3  A    between atoms: C_3  and  N_4 
REMARK       I    between atoms: N_10  and  C_11 
REMARK    4  A    between atoms: C_11  and  C_13 
ROOT
HETATM    1  N   UNL     1     -40.970 -45.517  11.455  1.00  0.00    -0.350 N 
HETATM    2  C   UNL     1     -40.370 -44.482  10.777  1.00  0.00     0.265 C 
HETATM    3  O   UNL     1     -39.831 -44.567   9.684  1.00  0.00    -0.266 OA
HETATM    4  H   UNL     1     -41.208 -45.334  12.428  1.00  0.00     0.163 HD
ENDROOT
BRANCH   1   5
HETATM    5  C   UNL     1     -40.978 -46.896  10.948  1.00  0.00     0.100 C 
HETATM    6  C   UNL     1     -39.834 -47.673  11.606  1.00  0.00     0.034 C 
BRANCH   5   7
HETATM    7  C   UNL     1     -42.345 -47.578  11.176  1.00  0.00     0.172 C 
BRANCH   7   8
HETATM    8  N   UNL     1     -43.180 -47.619   9.992  1.00  0.00    -0.302 N 
HETATM    9  C   UNL     1     -44.535 -47.456   9.937  1.00  0.00     0.111 A 
HETATM   10  C   UNL     1     -44.879 -47.585   8.611  1.00  0.00     0.037 A 
HETATM   11  C   UNL     1     -43.664 -47.842   7.952  1.00  0.00     0.108 A 
HETATM   12  N   UNL     1     -42.626 -47.876   8.791  1.00  0.00    -0.310 N 
ATOM     13  HN  UNL     1     -41.646 -48.054   8.574  1.00  0.00     0.186 HD
ENDBRANCH   7   8
ENDBRANCH   5   7
ENDBRANCH   1   5
BRANCH   2  14
HETATM   14  C   UNL     1     -40.457 -43.128  11.472  1.00  0.00     0.094 C 
HETATM   15  N   UNL     1     -41.122 -42.178  10.896  1.00  0.00    -0.295 N 
HETATM   16  N   UNL     1     -41.226 -40.966  11.529  1.00  0.00    -0.265 N 
ATOM     17  HN  UNL     1     -41.560 -42.328   9.988  1.00  0.00     0.187 HD
HETATM   18  C   UNL     1     -42.041 -39.961  10.868  1.00  0.00     0.181 C 
HETATM   19  C   UNL     1     -40.641 -40.634  12.740  1.00  0.00     0.238 C 
HETATM   20  O   UNL     1     -40.785 -39.529  13.270  1.00  0.00    -0.272 OA
HETATM   21  C   UNL     1     -39.766 -41.662  13.401  1.00  0.00     0.111 C 
HETATM   22  C   UNL     1     -39.748 -43.034  12.783  1.00  0.00     0.073 C 
ENDBRANCH   2  14
TORSDOF 4
ENDMDL
MODEL 9
REMARK VINA RESULT:      -5.7      5.657      7.668
REMARK  4 active torsions:
REMARK  status: ('A' for Active; 'I' for Inactive)
REMARK    1  A    between atoms: C_2  and  C_3 
REMARK    2  A    between atoms: C_2  and  N_10 
REMARK    3  A    between atoms: C_3  and  N_4 
REMARK       I    between atoms: N_10  and  C_11 
REMARK    4  A    between atoms: C_11  and  C_13 
ROOT
HETATM    1  N   UNL     1     -44.327 -53.915  16.104  1.00  0.00    -0.350 N 
HETATM    2  C   UNL     1     -43.921 -54.703  15.053  1.00  0.00     0.265 C 
HETATM    3  O   UNL     1     -44.627 -55.489  14.440  1.00  0.00    -0.266 OA
HETATM    4  H   UNL     1     -43.586 -53.453  16.628  1.00  0.00     0.163 HD
ENDROOT
BRANCH   1   5
HETATM    5  C   UNL     1     -45.686 -53.976  16.660  1.00  0.00     0.100 C 
HETATM    6  C   UNL     1     -45.594 -54.066  18.186  1.00  0.00     0.034 C 
BRANCH   5   7
HETATM    7  C   UNL     1     -46.542 -52.774  16.204  1.00  0.00     0.172 C 
BRANCH   7   8
HETATM    8  N   UNL     1     -46.316 -52.387  14.825  1.00  0.00    -0.302 N 
HETATM    9  C   UNL     1     -45.701 -51.252  14.381  1.00  0.00     0.111 A 
HETATM   10  C   UNL     1     -45.729 -51.318  13.007  1.00  0.00     0.037 A 
HETATM   11  C   UNL     1     -46.398 -52.522  12.723  1.00  0.00     0.108 A 
HETATM   12  N   UNL     1     -46.768 -53.172  13.828  1.00  0.00    -0.310 N 
ATOM     13  HN  UNL     1     -47.275 -54.054  13.901  1.00  0.00     0.186 HD
ENDBRANCH   7   8
ENDBRANCH   5   7
ENDBRANCH   1   5
BRANCH   2  14
HETATM   14  C   UNL     1     -42.470 -54.504  14.629  1.00  0.00     0.094 C 
HETATM   15  N   UNL     1     -41.532 -54.809  15.469  1.00  0.00    -0.295 N 
HETATM   16  N   UNL     1     -40.225 -54.658  15.085  1.00  0.00    -0.265 N 
ATOM     17  HN  UNL     1     -41.762 -55.156  16.400  1.00  0.00     0.187 HD
HETATM   18  C   UNL     1     -39.218 -55.082  16.042  1.00  0.00     0.181 C 
HETATM   19  C   UNL     1     -39.794 -54.159  13.867  1.00  0.00     0.238 C 
HETATM   20  O   UNL     1     -38.600 -54.062  13.570  1.00  0.00    -0.272 OA
HETATM   21  C   UNL     1     -40.837 -53.685  12.894  1.00  0.00     0.111 C 
HETATM   22  C   UNL     1     -42.273 -53.963  13.252  1.00  0.00     0.073 C 
ENDBRANCH   2  14
TORSDOF 4
ENDMDL
