MODEL 1
REMARK VINA RESULT:      -5.9      0.000      0.000
REMARK  9 active torsions:
REMARK  status: ('A' for Active; 'I' for Inactive)
REMARK    1  A    between atoms: O_1  and  C_2 
REMARK    2  A    between atoms: C_2  and  C_3 
REMARK    3  A    between atoms: C_3  and  O_4 
REMARK    4  A    between atoms: O_4  and  C_5 
REMARK    5  A    between atoms: C_5  and  C_6 
REMARK    6  A    between atoms: C_6  and  N_7 
REMARK    7  A    between atoms: N_7  and  C_8 
REMARK    8  A    between atoms: C_11  and  S_15 
REMARK    9  A    between atoms: S_15  and  N_18 
ROOT
HETATM    1  C   UNL     1     -40.715 -52.488  12.464  1.00  0.00     0.079 A 
HETATM    2  C   UNL     1     -40.558 -53.532  13.381  1.00  0.00     0.044 A 
HETATM    3  C   UNL     1     -41.679 -54.210  13.862  1.00  0.00     0.030 A 
HETATM    4  C   UNL     1     -42.930 -53.858  13.370  1.00  0.00     0.095 A 
HETATM    5  C   UNL     1     -43.009 -52.852  12.426  1.00  0.00     0.114 A 
HETATM    6  N   UNL     1     -41.926 -52.161  11.976  1.00  0.00    -0.355 N 
ATOM      7  HN  UNL     1     -42.030 -51.414  11.289  1.00  0.00     0.166 HD
ENDROOT
BRANCH   1   8
HETATM    8  N   UNL     1     -39.561 -51.792  12.074  1.00  0.00    -0.277 NA
HETATM    9  H   UNL     1     -39.819 -51.067  11.406  1.00  0.00     0.129 HD
BRANCH   8  10
HETATM   10  C   UNL     1     -38.773 -51.233  13.173  1.00  0.00     0.120 C 
BRANCH  10  11
HETATM   11  C   UNL     1     -39.009 -49.718  13.259  1.00  0.00     0.182 C 
BRANCH  11  12
HETATM   12  O   UNL     1     -38.938 -49.139  11.948  1.00  0.00    -0.388 OA
BRANCH  12  13
HETATM   13  C   UNL     1     -39.972 -48.173  11.760  1.00  0.00     0.193 C 
BRANCH  13  14
HETATM   14  C   UNL     1     -41.095 -48.778  10.924  1.00  0.00     0.190 C 
BRANCH  14  15
HETATM   15  O   UNL     1     -40.593 -49.852  10.136  1.00  0.00    -0.399 OA
HETATM   16  H   UNL     1     -39.868 -50.258  10.642  1.00  0.00     0.209 HD
ENDBRANCH  14  15
ENDBRANCH  13  14
ENDBRANCH  12  13
ENDBRANCH  11  12
ENDBRANCH  10  11
ENDBRANCH   8  10
ENDBRANCH   1   8
BRANCH   4  17
HETATM   17  S   UNL     1     -44.400 -54.575  14.038  1.00  0.00     0.262 S 
HETATM   18  O   UNL     1     -45.357 -54.632  12.955  1.00  0.00    -0.200 OA
HETATM   19  O   UNL     1     -44.007 -55.769  14.763  1.00  0.00    -0.200 OA
BRANCH  17  20
HETATM   20  N   UNL     1     -44.902 -53.419  15.155  1.00  0.00    -0.307 N 
HETATM   21  C   UNL     1     -46.049 -52.553  14.847  1.00  0.00     0.135 C 
HETATM   22  C   UNL     1     -45.515 -51.249  14.268  1.00  0.00     0.021 C 
HETATM   23  C   UNL     1     -44.610 -50.559  15.287  1.00  0.00     0.003 C 
HETATM   24  C   UNL     1     -43.486 -51.484  15.765  1.00  0.00     0.021 C 
HETATM   25  C   UNL     1     -43.975 -52.878  16.166  1.00  0.00     0.135 C 
ENDBRANCH  17  20
ENDBRANCH   4  17
TORSDOF 9
ENDMDL
MODEL 2
REMARK VINA RESULT:      -5.8      1.013      1.437
REMARK  9 active torsions:
REMARK  status: ('A' for Active; 'I' for Inactive)
REMARK    1  A    between atoms: O_1  and  C_2 
REMARK    2  A    between atoms: C_2  and  C_3 
REMARK    3  A    between atoms: C_3  and  O_4 
REMARK    4  A    between atoms: O_4  and  C_5 
REMARK    5  A    between atoms: C_5  and  C_6 
REMARK    6  A    between atoms: C_6  and  N_7 
REMARK    7  A    between atoms: N_7  and  C_8 
REMARK    8  A    between atoms: C_11  and  S_15 
REMARK    9  A    between atoms: S_15  and  N_18 
ROOT
HETATM    1  C   UNL     1     -40.855 -52.453  12.288  1.00  0.00     0.079 A 
HETATM    2  C   UNL     1     -40.610 -53.312  13.363  1.00  0.00     0.044 A 
HETATM    3  C   UNL     1     -41.663 -54.026  13.936  1.00  0.00     0.030 A 
HETATM    4  C   UNL     1     -42.931 -53.901  13.381  1.00  0.00     0.095 A 
HETATM    5  C   UNL     1     -43.093 -53.075  12.286  1.00  0.00     0.114 A 
HETATM    6  N   UNL     1     -42.081 -52.346  11.741  1.00  0.00    -0.355 N 
ATOM      7  HN  UNL     1     -42.246 -51.736  10.940  1.00  0.00     0.166 HD
ENDROOT
BRANCH   1   8
HETATM    8  N   UNL     1     -39.774 -51.702  11.801  1.00  0.00    -0.277 NA
HETATM    9  H   UNL     1     -39.940 -51.475  10.822  1.00  0.00     0.129 HD
BRANCH   8  10
HETATM   10  C   UNL     1     -39.460 -50.498  12.570  1.00  0.00     0.120 C 
BRANCH  10  11
HETATM   11  C   UNL     1     -39.773 -49.252  11.729  1.00  0.00     0.182 C 
BRANCH  11  12
HETATM   12  O   UNL     1     -40.958 -49.474  10.951  1.00  0.00    -0.388 OA
BRANCH  12  13
HETATM   13  C   UNL     1     -42.027 -48.639  11.398  1.00  0.00     0.193 C 
BRANCH  13  14
HETATM   14  C   UNL     1     -42.341 -47.593  10.333  1.00  0.00     0.190 C 
BRANCH  14  15
HETATM   15  O   UNL     1     -42.332 -48.193   9.042  1.00  0.00    -0.399 OA
HETATM   16  H   UNL     1     -41.928 -49.071   9.143  1.00  0.00     0.209 HD
ENDBRANCH  14  15
ENDBRANCH  13  14
ENDBRANCH  12  13
ENDBRANCH  11  12
ENDBRANCH  10  11
ENDBRANCH   8  10
ENDBRANCH   1   8
BRANCH   4  17
HETATM   17  S   UNL     1     -44.332 -54.663  14.141  1.00  0.00     0.262 S 
HETATM   18  O   UNL     1     -45.323 -54.830  13.101  1.00  0.00    -0.200 OA
HETATM   19  O   UNL     1     -43.844 -55.794  14.909  1.00  0.00    -0.200 OA
BRANCH  17  20
HETATM   20  N   UNL     1     -44.859 -53.480  15.219  1.00  0.00    -0.307 N 
HETATM   21  C   UNL     1     -46.173 -53.610  15.863  1.00  0.00     0.135 C 
HETATM   22  C   UNL     1     -47.182 -52.813  15.044  1.00  0.00     0.021 C 
HETATM   23  C   UNL     1     -46.773 -51.342  15.004  1.00  0.00     0.003 C 
HETATM   24  C   UNL     1     -45.341 -51.165  14.490  1.00  0.00     0.021 C 
HETATM   25  C   UNL     1     -44.333 -52.104  15.161  1.00  0.00     0.135 C 
ENDBRANCH  17  20
ENDBRANCH   4  17
TORSDOF 9
ENDMDL
MODEL 3
REMARK VINA RESULT:      -5.4      3.533      5.848
REMARK  9 active torsions:
REMARK  status: ('A' for Active; 'I' for Inactive)
REMARK    1  A    between atoms: O_1  and  C_2 
REMARK    2  A    between atoms: C_2  and  C_3 
REMARK    3  A    between atoms: C_3  and  O_4 
REMARK    4  A    between atoms: O_4  and  C_5 
REMARK    5  A    between atoms: C_5  and  C_6 
REMARK    6  A    between atoms: C_6  and  N_7 
REMARK    7  A    between atoms: N_7  and  C_8 
REMARK    8  A    between atoms: C_11  and  S_15 
REMARK    9  A    between atoms: S_15  and  N_18 
ROOT
HETATM    1  C   UNL     1     -41.039 -47.346  10.714  1.00  0.00     0.079 A 
HETATM    2  C   UNL     1     -40.272 -47.075  11.851  1.00  0.00     0.044 A 
HETATM    3  C   UNL     1     -39.796 -48.127  12.635  1.00  0.00     0.030 A 
HETATM    4  C   UNL     1     -40.057 -49.431  12.229  1.00  0.00     0.095 A 
HETATM    5  C   UNL     1     -40.777 -49.627  11.066  1.00  0.00     0.114 A 
HETATM    6  N   UNL     1     -41.277 -48.609  10.313  1.00  0.00    -0.355 N 
ATOM      7  HN  UNL     1     -41.817 -48.798   9.468  1.00  0.00     0.166 HD
ENDROOT
BRANCH   1   8
HETATM    8  N   UNL     1     -41.556 -46.250  10.007  1.00  0.00    -0.277 NA
HETATM    9  H   UNL     1     -41.204 -46.273   9.051  1.00  0.00     0.129 HD
BRANCH   8  10
HETATM   10  C   UNL     1     -43.015 -46.135  10.022  1.00  0.00     0.120 C 
BRANCH  10  11
HETATM   11  C   UNL     1     -43.556 -46.244   8.589  1.00  0.00     0.182 C 
BRANCH  11  12
HETATM   12  O   UNL     1     -44.284 -47.471   8.436  1.00  0.00    -0.388 OA
BRANCH  12  13
HETATM   13  C   UNL     1     -45.257 -47.621   9.470  1.00  0.00     0.193 C 
BRANCH  13  14
HETATM   14  C   UNL     1     -46.573 -48.106   8.871  1.00  0.00     0.190 C 
BRANCH  14  15
HETATM   15  O   UNL     1     -46.365 -48.561   7.539  1.00  0.00    -0.399 OA
HETATM   16  H   UNL     1     -45.441 -48.859   7.484  1.00  0.00     0.209 HD
ENDBRANCH  14  15
ENDBRANCH  13  14
ENDBRANCH  12  13
ENDBRANCH  11  12
ENDBRANCH  10  11
ENDBRANCH   8  10
ENDBRANCH   1   8
BRANCH   4  17
HETATM   17  S   UNL     1     -39.609 -50.804  13.245  1.00  0.00     0.262 S 
HETATM   18  O   UNL     1     -38.521 -51.476  12.570  1.00  0.00    -0.200 OA
HETATM   19  O   UNL     1     -39.464 -50.307  14.601  1.00  0.00    -0.200 OA
BRANCH  17  20
HETATM   20  N   UNL     1     -40.982 -51.777  13.182  1.00  0.00    -0.307 N 
HETATM   21  C   UNL     1     -41.911 -51.807  14.320  1.00  0.00     0.135 C 
HETATM   22  C   UNL     1     -41.541 -52.994  15.201  1.00  0.00     0.021 C 
HETATM   23  C   UNL     1     -41.664 -54.292  14.404  1.00  0.00     0.003 C 
HETATM   24  C   UNL     1     -40.835 -54.246  13.116  1.00  0.00     0.021 C 
HETATM   25  C   UNL     1     -41.039 -52.963  12.307  1.00  0.00     0.135 C 
ENDBRANCH  17  20
ENDBRANCH   4  17
TORSDOF 9
ENDMDL
MODEL 4
REMARK VINA RESULT:      -5.3      2.874      3.791
REMARK  9 active torsions:
REMARK  status: ('A' for Active; 'I' for Inactive)
REMARK    1  A    between atoms: O_1  and  C_2 
REMARK    2  A    between atoms: C_2  and  C_3 
REMARK    3  A    between atoms: C_3  and  O_4 
REMARK    4  A    between atoms: O_4  and  C_5 
REMARK    5  A    between atoms: C_5  and  C_6 
REMARK    6  A    between atoms: C_6  and  N_7 
REMARK    7  A    between atoms: N_7  and  C_8 
REMARK    8  A    between atoms: C_11  and  S_15 
REMARK    9  A    between atoms: S_15  and  N_18 
ROOT
HETATM    1  C   UNL     1     -41.232 -50.152  11.478  1.00  0.00     0.079 A 
HETATM    2  C   UNL     1     -41.822 -49.751  12.681  1.00  0.00     0.044 A 
HETATM    3  C   UNL     1     -42.297 -50.711  13.576  1.00  0.00     0.030 A 
HETATM    4  C   UNL     1     -42.120 -52.054  13.266  1.00  0.00     0.095 A 
HETATM    5  C   UNL     1     -41.482 -52.380  12.085  1.00  0.00     0.114 A 
HETATM    6  N   UNL     1     -41.047 -51.453  11.188  1.00  0.00    -0.355 N 
ATOM      7  HN  UNL     1     -40.594 -51.737  10.319  1.00  0.00     0.166 HD
ENDROOT
BRANCH   1   8
HETATM    8  N   UNL     1     -40.843 -49.144  10.582  1.00  0.00    -0.277 NA
HETATM    9  H   UNL     1     -40.922 -49.496   9.630  1.00  0.00     0.129 HD
BRANCH   8  10
HETATM   10  C   UNL     1     -41.556 -47.875  10.731  1.00  0.00     0.120 C 
BRANCH  10  11
HETATM   11  C   UNL     1     -42.673 -47.784   9.681  1.00  0.00     0.182 C 
BRANCH  11  12
HETATM   12  O   UNL     1     -43.449 -46.597   9.897  1.00  0.00    -0.388 OA
BRANCH  12  13
HETATM   13  C   UNL     1     -44.496 -46.488   8.932  1.00  0.00     0.193 C 
BRANCH  13  14
HETATM   14  C   UNL     1     -45.589 -47.504   9.242  1.00  0.00     0.190 C 
BRANCH  14  15
HETATM   15  O   UNL     1     -46.523 -47.560   8.169  1.00  0.00    -0.399 OA
HETATM   16  H   UNL     1     -47.080 -46.766   8.239  1.00  0.00     0.209 HD
ENDBRANCH  14  15
ENDBRANCH  13  14
ENDBRANCH  12  13
ENDBRANCH  11  12
ENDBRANCH  10  11
ENDBRANCH   8  10
ENDBRANCH   1   8
BRANCH   4  17
HETATM   17  S   UNL     1     -42.820 -53.318  14.283  1.00  0.00     0.262 S 
HETATM   18  O   UNL     1     -42.015 -54.502  14.079  1.00  0.00    -0.200 OA
HETATM   19  O   UNL     1     -43.010 -52.752  15.605  1.00  0.00    -0.200 OA
BRANCH  17  20
HETATM   20  N   UNL     1     -44.336 -53.556  13.587  1.00  0.00    -0.307 N 
HETATM   21  C   UNL     1     -45.100 -52.406  13.084  1.00  0.00     0.135 C 
HETATM   22  C   UNL     1     -46.063 -51.963  14.180  1.00  0.00     0.021 C 
HETATM   23  C   UNL     1     -47.019 -53.104  14.524  1.00  0.00     0.003 C 
HETATM   24  C   UNL     1     -46.264 -54.383  14.899  1.00  0.00     0.021 C 
HETATM   25  C   UNL     1     -45.149 -54.743  13.913  1.00  0.00     0.135 C 
ENDBRANCH  17  20
ENDBRANCH   4  17
TORSDOF 9
ENDMDL
MODEL 5
REMARK VINA RESULT:      -5.2      4.080      6.485
REMARK  9 active torsions:
REMARK  status: ('A' for Active; 'I' for Inactive)
REMARK    1  A    between atoms: O_1  and  C_2 
REMARK    2  A    between atoms: C_2  and  C_3 
REMARK    3  A    between atoms: C_3  and  O_4 
REMARK    4  A    between atoms: O_4  and  C_5 
REMARK    5  A    between atoms: C_5  and  C_6 
REMARK    6  A    between atoms: C_6  and  N_7 
REMARK    7  A    between atoms: N_7  and  C_8 
REMARK    8  A    between atoms: C_11  and  S_15 
REMARK    9  A    between atoms: S_15  and  N_18 
ROOT
HETATM    1  C   UNL     1     -39.376 -49.833  11.464  1.00  0.00     0.079 A 
HETATM    2  C   UNL     1     -38.942 -48.604  11.970  1.00  0.00     0.044 A 
HETATM    3  C   UNL     1     -39.683 -47.448  11.719  1.00  0.00     0.030 A 
HETATM    4  C   UNL     1     -40.873 -47.562  11.010  1.00  0.00     0.095 A 
HETATM    5  C   UNL     1     -41.270 -48.815  10.584  1.00  0.00     0.114 A 
HETATM    6  N   UNL     1     -40.538 -49.943  10.792  1.00  0.00    -0.355 N 
ATOM      7  HN  UNL     1     -40.860 -50.848  10.448  1.00  0.00     0.166 HD
ENDROOT
BRANCH   1   8
HETATM    8  N   UNL     1     -38.553 -50.948  11.681  1.00  0.00    -0.277 NA
HETATM    9  H   UNL     1     -37.915 -51.051  10.894  1.00  0.00     0.129 HD
BRANCH   8  10
HETATM   10  C   UNL     1     -37.822 -50.941  12.949  1.00  0.00     0.120 C 
BRANCH  10  11
HETATM   11  C   UNL     1     -38.518 -51.871  13.952  1.00  0.00     0.182 C 
BRANCH  11  12
HETATM   12  O   UNL     1     -39.917 -51.960  13.645  1.00  0.00    -0.388 OA
BRANCH  12  13
HETATM   13  C   UNL     1     -40.432 -53.250  13.976  1.00  0.00     0.193 C 
BRANCH  13  14
HETATM   14  C   UNL     1     -40.888 -53.962  12.708  1.00  0.00     0.190 C 
BRANCH  14  15
HETATM   15  O   UNL     1     -40.597 -53.163  11.567  1.00  0.00    -0.399 OA
HETATM   16  H   UNL     1     -39.807 -52.639  11.785  1.00  0.00     0.209 HD
ENDBRANCH  14  15
ENDBRANCH  13  14
ENDBRANCH  12  13
ENDBRANCH  11  12
ENDBRANCH  10  11
ENDBRANCH   8  10
ENDBRANCH   1   8
BRANCH   4  17
HETATM   17  S   UNL     1     -41.785 -46.125  10.536  1.00  0.00     0.262 S 
HETATM   18  O   UNL     1     -40.810 -45.129  10.149  1.00  0.00    -0.200 OA
HETATM   19  O   UNL     1     -42.826 -46.558   9.622  1.00  0.00    -0.200 OA
BRANCH  17  20
HETATM   20  N   UNL     1     -42.512 -45.654  11.980  1.00  0.00    -0.307 N 
HETATM   21  C   UNL     1     -42.123 -44.387  12.615  1.00  0.00     0.135 C 
HETATM   22  C   UNL     1     -41.056 -44.689  13.661  1.00  0.00     0.021 C 
HETATM   23  C   UNL     1     -41.617 -45.642  14.716  1.00  0.00     0.003 C 
HETATM   24  C   UNL     1     -42.186 -46.916  14.084  1.00  0.00     0.021 C 
HETATM   25  C   UNL     1     -43.111 -46.644  12.894  1.00  0.00     0.135 C 
ENDBRANCH  17  20
ENDBRANCH   4  17
TORSDOF 9
ENDMDL
MODEL 6
REMARK VINA RESULT:      -4.9      4.046      7.442
REMARK  9 active torsions:
REMARK  status: ('A' for Active; 'I' for Inactive)
REMARK    1  A    between atoms: O_1  and  C_2 
REMARK    2  A    between atoms: C_2  and  C_3 
REMARK    3  A    between atoms: C_3  and  O_4 
REMARK    4  A    between atoms: O_4  and  C_5 
REMARK    5  A    between atoms: C_5  and  C_6 
REMARK    6  A    between atoms: C_6  and  N_7 
REMARK    7  A    between atoms: N_7  and  C_8 
REMARK    8  A    between atoms: C_11  and  S_15 
REMARK    9  A    between atoms: S_15  and  N_18 
ROOT
HETATM    1  C   UNL     1     -40.272 -49.840  11.464  1.00  0.00     0.079 A 
HETATM    2  C   UNL     1     -39.346 -48.830  11.740  1.00  0.00     0.044 A 
HETATM    3  C   UNL     1     -39.666 -47.499  11.464  1.00  0.00     0.030 A 
HETATM    4  C   UNL     1     -40.931 -47.209  10.966  1.00  0.00     0.095 A 
HETATM    5  C   UNL     1     -41.816 -48.252  10.767  1.00  0.00     0.114 A 
HETATM    6  N   UNL     1     -41.503 -49.556  10.998  1.00  0.00    -0.355 N 
ATOM      7  HN  UNL     1     -42.181 -50.297  10.823  1.00  0.00     0.166 HD
ENDROOT
BRANCH   1   8
HETATM    8  N   UNL     1     -39.868 -51.165  11.689  1.00  0.00    -0.277 NA
HETATM    9  H   UNL     1     -38.852 -51.218  11.638  1.00  0.00     0.129 HD
BRANCH   8  10
HETATM   10  C   UNL     1     -40.360 -51.760  12.933  1.00  0.00     0.120 C 
BRANCH  10  11
HETATM   11  C   UNL     1     -41.327 -52.908  12.609  1.00  0.00     0.182 C 
BRANCH  11  12
HETATM   12  O   UNL     1     -42.518 -52.386  12.003  1.00  0.00    -0.388 OA
BRANCH  12  13
HETATM   13  C   UNL     1     -43.639 -52.528  12.876  1.00  0.00     0.193 C 
BRANCH  13  14
HETATM   14  C   UNL     1     -44.212 -53.935  12.751  1.00  0.00     0.190 C 
BRANCH  14  15
HETATM   15  O   UNL     1     -45.622 -53.874  12.563  1.00  0.00    -0.399 OA
HETATM   16  H   UNL     1     -45.854 -52.934  12.481  1.00  0.00     0.209 HD
ENDBRANCH  14  15
ENDBRANCH  13  14
ENDBRANCH  12  13
ENDBRANCH  11  12
ENDBRANCH  10  11
ENDBRANCH   8  10
ENDBRANCH   1   8
BRANCH   4  17
HETATM   17  S   UNL     1     -41.353 -45.569  10.463  1.00  0.00     0.262 S 
HETATM   18  O   UNL     1     -40.124 -44.947  10.022  1.00  0.00    -0.200 OA
HETATM   19  O   UNL     1     -42.506 -45.670   9.589  1.00  0.00    -0.200 OA
BRANCH  17  20
HETATM   20  N   UNL     1     -41.844 -44.853  11.907  1.00  0.00    -0.307 N 
HETATM   21  C   UNL     1     -42.405 -43.495  11.896  1.00  0.00     0.135 C 
HETATM   22  C   UNL     1     -41.279 -42.516  12.204  1.00  0.00     0.021 C 
HETATM   23  C   UNL     1     -40.689 -42.817  13.581  1.00  0.00     0.003 C 
HETATM   24  C   UNL     1     -40.236 -44.276  13.697  1.00  0.00     0.021 C 
HETATM   25  C   UNL     1     -41.282 -45.279  13.202  1.00  0.00     0.135 C 
ENDBRANCH  17  20
ENDBRANCH   4  17
TORSDOF 9
ENDMDL
MODEL 7
REMARK VINA RESULT:      -4.7      2.622      6.192
REMARK  9 active torsions:
REMARK  status: ('A' for Active; 'I' for Inactive)
REMARK    1  A    between atoms: O_1  and  C_2 
REMARK    2  A    between atoms: C_2  and  C_3 
REMARK    3  A    between atoms: C_3  and  O_4 
REMARK    4  A    between atoms: O_4  and  C_5 
REMARK    5  A    between atoms: C_5  and  C_6 
REMARK    6  A    between atoms: C_6  and  N_7 
REMARK    7  A    between atoms: N_7  and  C_8 
REMARK    8  A    between atoms: C_11  and  S_15 
REMARK    9  A    between atoms: S_15  and  N_18 
ROOT
HETATM    1  C   UNL     1     -42.770 -53.090  12.416  1.00  0.00     0.079 A 
HETATM    2  C   UNL     1     -41.682 -53.731  13.016  1.00  0.00     0.044 A 
HETATM    3  C   UNL     1     -40.464 -53.062  13.144  1.00  0.00     0.030 A 
HETATM    4  C   UNL     1     -40.382 -51.743  12.713  1.00  0.00     0.095 A 
HETATM    5  C   UNL     1     -41.510 -51.153  12.177  1.00  0.00     0.114 A 
HETATM    6  N   UNL     1     -42.693 -51.807  12.015  1.00  0.00    -0.355 N 
ATOM      7  HN  UNL     1     -43.498 -51.338  11.601  1.00  0.00     0.166 HD
ENDROOT
BRANCH   1   8
HETATM    8  N   UNL     1     -43.946 -53.835  12.245  1.00  0.00    -0.277 NA
HETATM    9  H   UNL     1     -43.701 -54.793  11.998  1.00  0.00     0.129 HD
BRANCH   8  10
HETATM   10  C   UNL     1     -44.867 -53.809  13.382  1.00  0.00     0.120 C 
BRANCH  10  11
HETATM   11  C   UNL     1     -45.958 -52.756  13.138  1.00  0.00     0.182 C 
BRANCH  11  12
HETATM   12  O   UNL     1     -45.505 -51.472  13.590  1.00  0.00    -0.388 OA
BRANCH  12  13
HETATM   13  C   UNL     1     -45.806 -51.281  14.973  1.00  0.00     0.193 C 
BRANCH  13  14
HETATM   14  C   UNL     1     -44.619 -50.629  15.673  1.00  0.00     0.190 C 
BRANCH  14  15
HETATM   15  O   UNL     1     -43.403 -51.043  15.061  1.00  0.00    -0.399 OA
HETATM   16  H   UNL     1     -43.543 -51.951  14.744  1.00  0.00     0.209 HD
ENDBRANCH  14  15
ENDBRANCH  13  14
ENDBRANCH  12  13
ENDBRANCH  11  12
ENDBRANCH  10  11
ENDBRANCH   8  10
ENDBRANCH   1   8
BRANCH   4  17
HETATM   17  S   UNL     1     -38.838 -50.885  12.714  1.00  0.00     0.262 S 
HETATM   18  O   UNL     1     -37.808 -51.893  12.835  1.00  0.00    -0.200 OA
HETATM   19  O   UNL     1     -38.860 -49.957  11.599  1.00  0.00    -0.200 OA
BRANCH  17  20
HETATM   20  N   UNL     1     -38.908 -49.996  14.143  1.00  0.00    -0.307 N 
HETATM   21  C   UNL     1     -38.950 -48.529  14.091  1.00  0.00     0.135 C 
HETATM   22  C   UNL     1     -37.526 -48.008  14.252  1.00  0.00     0.021 C 
HETATM   23  C   UNL     1     -36.958 -48.458  15.597  1.00  0.00     0.003 C 
HETATM   24  C   UNL     1     -37.042 -49.978  15.768  1.00  0.00     0.021 C 
HETATM   25  C   UNL     1     -38.416 -50.555  15.417  1.00  0.00     0.135 C 
ENDBRANCH  17  20
ENDBRANCH   4  17
TORSDOF 9
ENDMDL
MODEL 8
REMARK VINA RESULT:      -4.7      2.386      6.507
REMARK  9 active torsions:
REMARK  status: ('A' for Active; 'I' for Inactive)
REMARK    1  A    between atoms: O_1  and  C_2 
REMARK    2  A    between atoms: C_2  and  C_3 
REMARK    3  A    between atoms: C_3  and  O_4 
REMARK    4  A    between atoms: O_4  and  C_5 
REMARK    5  A    between atoms: C_5  and  C_6 
REMARK    6  A    between atoms: C_6  and  N_7 
REMARK    7  A    between atoms: N_7  and  C_8 
REMARK    8  A    between atoms: C_11  and  S_15 
REMARK    9  A    between atoms: S_15  and  N_18 
ROOT
HETATM    1  C   UNL     1     -44.028 -52.434  12.478  1.00  0.00     0.079 A 
HETATM    2  C   UNL     1     -43.842 -51.325  13.309  1.00  0.00     0.044 A 
HETATM    3  C   UNL     1     -42.550 -50.879  13.594  1.00  0.00     0.030 A 
HETATM    4  C   UNL     1     -41.476 -51.526  12.994  1.00  0.00     0.095 A 
HETATM    5  C   UNL     1     -41.735 -52.582  12.142  1.00  0.00     0.114 A 
HETATM    6  N   UNL     1     -42.987 -53.048  11.885  1.00  0.00    -0.355 N 
ATOM      7  HN  UNL     1     -43.134 -53.841  11.260  1.00  0.00     0.166 HD
ENDROOT
BRANCH   1   8
HETATM    8  N   UNL     1     -45.343 -52.884  12.288  1.00  0.00    -0.277 NA
HETATM    9  H   UNL     1     -45.353 -53.584  11.548  1.00  0.00     0.129 HD
BRANCH   8  10
HETATM   10  C   UNL     1     -46.005 -53.389  13.491  1.00  0.00     0.120 C 
BRANCH  10  11
HETATM   11  C   UNL     1     -45.518 -54.814  13.790  1.00  0.00     0.182 C 
BRANCH  11  12
HETATM   12  O   UNL     1     -45.324 -54.977  15.202  1.00  0.00    -0.388 OA
BRANCH  12  13
HETATM   13  C   UNL     1     -44.333 -54.072  15.690  1.00  0.00     0.193 C 
BRANCH  13  14
HETATM   14  C   UNL     1     -42.944 -54.660  15.466  1.00  0.00     0.190 C 
BRANCH  14  15
HETATM   15  O   UNL     1     -42.954 -56.055  15.748  1.00  0.00    -0.399 OA
HETATM   16  H   UNL     1     -42.528 -56.170  16.614  1.00  0.00     0.209 HD
ENDBRANCH  14  15
ENDBRANCH  13  14
ENDBRANCH  12  13
ENDBRANCH  11  12
ENDBRANCH  10  11
ENDBRANCH   8  10
ENDBRANCH   1   8
BRANCH   4  17
HETATM   17  S   UNL     1     -39.814 -51.107  13.420  1.00  0.00     0.262 S 
HETATM   18  O   UNL     1     -39.873 -50.451  14.708  1.00  0.00    -0.200 OA
HETATM   19  O   UNL     1     -39.003 -52.292  13.212  1.00  0.00    -0.200 OA
BRANCH  17  20
HETATM   20  N   UNL     1     -39.404 -49.973  12.243  1.00  0.00    -0.307 N 
HETATM   21  C   UNL     1     -38.439 -48.910  12.556  1.00  0.00     0.135 C 
HETATM   22  C   UNL     1     -39.221 -47.670  12.975  1.00  0.00     0.021 C 
HETATM   23  C   UNL     1     -40.130 -47.219  11.833  1.00  0.00     0.003 C 
HETATM   24  C   UNL     1     -41.049 -48.350  11.359  1.00  0.00     0.021 C 
HETATM   25  C   UNL     1     -40.313 -49.671  11.122  1.00  0.00     0.135 C 
ENDBRANCH  17  20
ENDBRANCH   4  17
TORSDOF 9
ENDMDL
MODEL 9
REMARK VINA RESULT:      -4.7      3.172      4.701
REMARK  9 active torsions:
REMARK  status: ('A' for Active; 'I' for Inactive)
REMARK    1  A    between atoms: O_1  and  C_2 
REMARK    2  A    between atoms: C_2  and  C_3 
REMARK    3  A    between atoms: C_3  and  O_4 
REMARK    4  A    between atoms: O_4  and  C_5 
REMARK    5  A    between atoms: C_5  and  C_6 
REMARK    6  A    between atoms: C_6  and  N_7 
REMARK    7  A    between atoms: N_7  and  C_8 
REMARK    8  A    between atoms: C_11  and  S_15 
REMARK    9  A    between atoms: S_15  and  N_18 
ROOT
HETATM    1  C   UNL     1     -40.715 -49.603  11.742  1.00  0.00     0.079 A 
HETATM    2  C   UNL     1     -41.023 -49.435  13.096  1.00  0.00     0.044 A 
HETATM    3  C   UNL     1     -41.398 -50.538  13.865  1.00  0.00     0.030 A 
HETATM    4  C   UNL     1     -41.404 -51.793  13.270  1.00  0.00     0.095 A 
HETATM    5  C   UNL     1     -41.038 -51.895  11.941  1.00  0.00     0.114 A 
HETATM    6  N   UNL     1     -40.705 -50.823  11.172  1.00  0.00    -0.355 N 
ATOM      7  HN  UNL     1     -40.455 -50.940  10.189  1.00  0.00     0.166 HD
ENDROOT
BRANCH   1   8
HETATM    8  N   UNL     1     -40.419 -48.451  10.999  1.00  0.00    -0.277 NA
HETATM    9  H   UNL     1     -40.179 -48.720  10.046  1.00  0.00     0.129 HD
BRANCH   8  10
HETATM   10  C   UNL     1     -41.464 -47.426  11.003  1.00  0.00     0.120 C 
BRANCH  10  11
HETATM   11  C   UNL     1     -42.655 -47.899  10.156  1.00  0.00     0.182 C 
BRANCH  11  12
HETATM   12  O   UNL     1     -43.452 -46.772   9.765  1.00  0.00    -0.388 OA
BRANCH  12  13
HETATM   13  C   UNL     1     -44.275 -47.094   8.643  1.00  0.00     0.193 C 
BRANCH  13  14
HETATM   14  C   UNL     1     -45.641 -47.569   9.127  1.00  0.00     0.190 C 
BRANCH  14  15
HETATM   15  O   UNL     1     -46.472 -47.882   8.015  1.00  0.00    -0.399 OA
HETATM   16  H   UNL     1     -45.940 -47.731   7.215  1.00  0.00     0.209 HD
ENDBRANCH  14  15
ENDBRANCH  13  14
ENDBRANCH  12  13
ENDBRANCH  11  12
ENDBRANCH  10  11
ENDBRANCH   8  10
ENDBRANCH   1   8
BRANCH   4  17
HETATM   17  S   UNL     1     -42.003 -53.207  14.143  1.00  0.00     0.262 S 
HETATM   18  O   UNL     1     -43.242 -52.807  14.772  1.00  0.00    -0.200 OA
HETATM   19  O   UNL     1     -41.949 -54.333  13.230  1.00  0.00    -0.200 OA
BRANCH  17  20
HETATM   20  N   UNL     1     -40.831 -53.433  15.331  1.00  0.00    -0.307 N 
HETATM   21  C   UNL     1     -39.407 -53.421  14.967  1.00  0.00     0.135 C 
HETATM   22  C   UNL     1     -38.962 -54.863  14.751  1.00  0.00     0.021 C 
HETATM   23  C   UNL     1     -39.155 -55.665  16.037  1.00  0.00     0.003 C 
HETATM   24  C   UNL     1     -40.596 -55.574  16.550  1.00  0.00     0.021 C 
HETATM   25  C   UNL     1     -41.140 -54.143  16.586  1.00  0.00     0.135 C 
ENDBRANCH  17  20
ENDBRANCH   4  17
TORSDOF 9
ENDMDL
