MODEL 1
REMARK VINA RESULT:      -5.6      0.000      0.000
REMARK  5 active torsions:
REMARK  status: ('A' for Active; 'I' for Inactive)
REMARK    1  A    between atoms: C_2  and  O_3 
REMARK    2  A    between atoms: O_3  and  C_4 
REMARK    3  A    between atoms: C_6  and  N_7 
REMARK       I    between atoms: N_7  and  C_8 
REMARK    4  A    between atoms: C_8  and  C_10 
REMARK    5  A    between atoms: C_10  and  N_11 
ROOT
HETATM    1  C   UNL     1     -44.194 -54.637  14.051  1.00  0.00     0.133 C 
HETATM    2  C   UNL     1     -44.517 -53.730  12.818  1.00  0.00     0.059 C 
HETATM    3  C   UNL     1     -43.012 -53.403  12.806  1.00  0.00     0.098 C 
HETATM    4  C   UNL     1     -43.048 -53.601  14.362  1.00  0.00     0.006 C 
HETATM    5  C   UNL     1     -41.697 -54.045  14.915  1.00  0.00     0.014 C 
HETATM    6  C   UNL     1     -41.103 -52.786  15.566  1.00  0.00     0.001 C 
HETATM    7  C   UNL     1     -42.194 -51.720  15.585  1.00  0.00     0.001 C 
HETATM    8  C   UNL     1     -43.482 -52.461  15.291  1.00  0.00     0.014 C 
ENDROOT
BRANCH   3   9
HETATM    9  N   UNL     1     -42.600 -52.070  12.336  1.00  0.00    -0.354 N 
HETATM   10  C   UNL     1     -41.280 -51.831  11.970  1.00  0.00     0.237 C 
HETATM   11  O   UNL     1     -40.425 -52.712  11.946  1.00  0.00    -0.272 OA
HETATM   12  H   UNL     1     -43.234 -51.284  12.410  1.00  0.00     0.162 HD
BRANCH  10  13
HETATM   13  C   UNL     1     -40.954 -50.393  11.639  1.00  0.00     0.250 C 
BRANCH  13  14
HETATM   14  N   UNL     1     -39.561 -50.082  11.898  1.00  0.00    -0.295 N 
HETATM   15  C   UNL     1     -39.028 -49.554  13.041  1.00  0.00     0.112 A 
HETATM   16  C   UNL     1     -37.693 -49.358  12.787  1.00  0.00     0.037 A 
HETATM   17  C   UNL     1     -37.518 -49.780  11.458  1.00  0.00     0.108 A 
HETATM   18  N   UNL     1     -38.655 -50.215  10.906  1.00  0.00    -0.310 N 
ATOM     19  HN  UNL     1     -38.802 -50.566   9.960  1.00  0.00     0.186 HD
ENDBRANCH  13  14
ENDBRANCH  10  13
ENDBRANCH   3   9
BRANCH   1  20
HETATM   20  O   UNL     1     -45.207 -54.770  15.070  1.00  0.00    -0.385 OA
BRANCH  20  21
HETATM   21  C   UNL     1     -46.553 -54.534  14.670  1.00  0.00     0.163 C 
HETATM   22  C   UNL     1     -46.981 -53.183  15.209  1.00  0.00     0.033 C 
ENDBRANCH  20  21
ENDBRANCH   1  20
TORSDOF 5
ENDMDL
MODEL 2
REMARK VINA RESULT:      -5.4      2.585      6.501
REMARK  5 active torsions:
REMARK  status: ('A' for Active; 'I' for Inactive)
REMARK    1  A    between atoms: C_2  and  O_3 
REMARK    2  A    between atoms: O_3  and  C_4 
REMARK    3  A    between atoms: C_6  and  N_7 
REMARK       I    between atoms: N_7  and  C_8 
REMARK    4  A    between atoms: C_8  and  C_10 
REMARK    5  A    between atoms: C_10  and  N_11 
ROOT
HETATM    1  C   UNL     1     -40.295 -52.691  13.211  1.00  0.00     0.133 C 
HETATM    2  C   UNL     1     -40.740 -54.098  13.728  1.00  0.00     0.059 C 
HETATM    3  C   UNL     1     -42.148 -53.709  13.241  1.00  0.00     0.098 C 
HETATM    4  C   UNL     1     -41.757 -52.227  13.575  1.00  0.00     0.006 C 
HETATM    5  C   UNL     1     -42.517 -51.224  12.712  1.00  0.00     0.014 C 
HETATM    6  C   UNL     1     -43.599 -50.646  13.638  1.00  0.00     0.001 C 
HETATM    7  C   UNL     1     -43.307 -51.140  15.051  1.00  0.00     0.001 C 
HETATM    8  C   UNL     1     -41.893 -51.680  15.001  1.00  0.00     0.014 C 
ENDROOT
BRANCH   3   9
HETATM    9  N   UNL     1     -43.306 -54.250  13.971  1.00  0.00    -0.354 N 
HETATM   10  C   UNL     1     -44.553 -54.321  13.360  1.00  0.00     0.237 C 
HETATM   11  O   UNL     1     -44.737 -54.015  12.185  1.00  0.00    -0.272 OA
HETATM   12  H   UNL     1     -43.239 -54.442  14.964  1.00  0.00     0.162 HD
BRANCH  10  13
HETATM   13  C   UNL     1     -45.685 -54.764  14.257  1.00  0.00     0.250 C 
BRANCH  13  14
HETATM   14  N   UNL     1     -46.196 -53.671  15.063  1.00  0.00    -0.295 N 
HETATM   15  C   UNL     1     -46.828 -52.542  14.622  1.00  0.00     0.112 A 
HETATM   16  C   UNL     1     -47.047 -51.765  15.734  1.00  0.00     0.037 A 
HETATM   17  C   UNL     1     -46.493 -52.502  16.796  1.00  0.00     0.108 A 
HETATM   18  N   UNL     1     -45.965 -53.661  16.392  1.00  0.00    -0.310 N 
ATOM     19  HN  UNL     1     -45.498 -54.371  16.957  1.00  0.00     0.186 HD
ENDBRANCH  13  14
ENDBRANCH  10  13
ENDBRANCH   3   9
BRANCH   1  20
HETATM   20  O   UNL     1     -39.234 -52.020  13.921  1.00  0.00    -0.385 OA
BRANCH  20  21
HETATM   21  C   UNL     1     -38.757 -50.802  13.360  1.00  0.00     0.163 C 
HETATM   22  C   UNL     1     -37.388 -51.056  12.759  1.00  0.00     0.033 C 
ENDBRANCH  20  21
ENDBRANCH   1  20
TORSDOF 5
ENDMDL
MODEL 3
REMARK VINA RESULT:      -5.3      3.110      3.897
REMARK  5 active torsions:
REMARK  status: ('A' for Active; 'I' for Inactive)
REMARK    1  A    between atoms: C_2  and  O_3 
REMARK    2  A    between atoms: O_3  and  C_4 
REMARK    3  A    between atoms: C_6  and  N_7 
REMARK       I    between atoms: N_7  and  C_8 
REMARK    4  A    between atoms: C_8  and  C_10 
REMARK    5  A    between atoms: C_10  and  N_11 
ROOT
HETATM    1  C   UNL     1     -41.274 -52.999  13.280  1.00  0.00     0.133 C 
HETATM    2  C   UNL     1     -41.009 -52.551  11.805  1.00  0.00     0.059 C 
HETATM    3  C   UNL     1     -41.106 -51.111  12.343  1.00  0.00     0.098 C 
HETATM    4  C   UNL     1     -42.114 -51.671  13.406  1.00  0.00     0.006 C 
HETATM    5  C   UNL     1     -42.114 -50.844  14.689  1.00  0.00     0.014 C 
HETATM    6  C   UNL     1     -43.398 -50.001  14.614  1.00  0.00     0.001 C 
HETATM    7  C   UNL     1     -44.216 -50.513  13.434  1.00  0.00     0.001 C 
HETATM    8  C   UNL     1     -43.599 -51.846  13.067  1.00  0.00     0.014 C 
ENDROOT
BRANCH   3   9
HETATM    9  N   UNL     1     -41.632 -50.071  11.442  1.00  0.00    -0.354 N 
HETATM   10  C   UNL     1     -41.085 -48.793  11.449  1.00  0.00     0.237 C 
HETATM   11  O   UNL     1     -40.112 -48.489  12.132  1.00  0.00    -0.272 OA
HETATM   12  H   UNL     1     -42.482 -50.235  10.916  1.00  0.00     0.162 HD
BRANCH  10  13
HETATM   13  C   UNL     1     -41.800 -47.783  10.582  1.00  0.00     0.250 C 
BRANCH  13  14
HETATM   14  N   UNL     1     -41.224 -46.457  10.711  1.00  0.00    -0.295 N 
HETATM   15  C   UNL     1     -41.843 -45.325  11.163  1.00  0.00     0.112 A 
HETATM   16  C   UNL     1     -40.930 -44.308  11.024  1.00  0.00     0.037 A 
HETATM   17  C   UNL     1     -39.797 -44.921  10.461  1.00  0.00     0.108 A 
HETATM   18  N   UNL     1     -39.972 -46.231  10.260  1.00  0.00    -0.310 N 
ATOM     19  HN  UNL     1     -39.315 -46.900   9.860  1.00  0.00     0.186 HD
ENDBRANCH  13  14
ENDBRANCH  10  13
ENDBRANCH   3   9
BRANCH   1  20
HETATM   20  O   UNL     1     -42.008 -54.223  13.488  1.00  0.00    -0.385 OA
BRANCH  20  21
HETATM   21  C   UNL     1     -42.126 -54.680  14.831  1.00  0.00     0.163 C 
HETATM   22  C   UNL     1     -43.591 -54.936  15.122  1.00  0.00     0.033 C 
ENDBRANCH  20  21
ENDBRANCH   1  20
TORSDOF 5
ENDMDL
MODEL 4
REMARK VINA RESULT:      -5.3      2.839      7.117
REMARK  5 active torsions:
REMARK  status: ('A' for Active; 'I' for Inactive)
REMARK    1  A    between atoms: C_2  and  O_3 
REMARK    2  A    between atoms: O_3  and  C_4 
REMARK    3  A    between atoms: C_6  and  N_7 
REMARK       I    between atoms: N_7  and  C_8 
REMARK    4  A    between atoms: C_8  and  C_10 
REMARK    5  A    between atoms: C_10  and  N_11 
ROOT
HETATM    1  C   UNL     1     -40.956 -47.071  11.260  1.00  0.00     0.133 C 
HETATM    2  C   UNL     1     -41.632 -48.184  10.394  1.00  0.00     0.059 C 
HETATM    3  C   UNL     1     -41.724 -48.990  11.703  1.00  0.00     0.098 C 
HETATM    4  C   UNL     1     -40.410 -48.257  12.143  1.00  0.00     0.006 C 
HETATM    5  C   UNL     1     -40.298 -48.139  13.660  1.00  0.00     0.014 C 
HETATM    6  C   UNL     1     -39.272 -49.210  14.065  1.00  0.00     0.001 C 
HETATM    7  C   UNL     1     -38.648 -49.757  12.785  1.00  0.00     0.001 C 
HETATM    8  C   UNL     1     -39.035 -48.773  11.700  1.00  0.00     0.014 C 
ENDROOT
BRANCH   3   9
HETATM    9  N   UNL     1     -41.646 -50.458  11.617  1.00  0.00    -0.354 N 
HETATM   10  C   UNL     1     -42.342 -51.254  12.520  1.00  0.00     0.237 C 
HETATM   11  O   UNL     1     -43.099 -50.791  13.368  1.00  0.00    -0.272 OA
HETATM   12  H   UNL     1     -40.977 -50.897  10.995  1.00  0.00     0.162 HD
BRANCH  10  13
HETATM   13  C   UNL     1     -42.070 -52.736  12.415  1.00  0.00     0.250 C 
BRANCH  13  14
HETATM   14  N   UNL     1     -43.078 -53.520  13.104  1.00  0.00    -0.295 N 
HETATM   15  C   UNL     1     -42.895 -54.339  14.183  1.00  0.00     0.112 A 
HETATM   16  C   UNL     1     -44.112 -54.929  14.427  1.00  0.00     0.037 A 
HETATM   17  C   UNL     1     -44.961 -54.418  13.429  1.00  0.00     0.108 A 
HETATM   18  N   UNL     1     -44.334 -53.564  12.614  1.00  0.00    -0.310 N 
ATOM     19  HN  UNL     1     -44.717 -53.064  11.811  1.00  0.00     0.186 HD
ENDBRANCH  13  14
ENDBRANCH  10  13
ENDBRANCH   3   9
BRANCH   1  20
HETATM   20  O   UNL     1     -39.951 -46.249  10.630  1.00  0.00    -0.385 OA
BRANCH  20  21
HETATM   21  C   UNL     1     -40.055 -44.844  10.831  1.00  0.00     0.163 C 
HETATM   22  C   UNL     1     -39.574 -44.525  12.233  1.00  0.00     0.033 C 
ENDBRANCH  20  21
ENDBRANCH   1  20
TORSDOF 5
ENDMDL
MODEL 5
REMARK VINA RESULT:      -5.3      2.507      7.036
REMARK  5 active torsions:
REMARK  status: ('A' for Active; 'I' for Inactive)
REMARK    1  A    between atoms: C_2  and  O_3 
REMARK    2  A    between atoms: O_3  and  C_4 
REMARK    3  A    between atoms: C_6  and  N_7 
REMARK       I    between atoms: N_7  and  C_8 
REMARK    4  A    between atoms: C_8  and  C_10 
REMARK    5  A    between atoms: C_10  and  N_11 
ROOT
HETATM    1  C   UNL     1     -37.639 -49.910  15.404  1.00  0.00     0.133 C 
HETATM    2  C   UNL     1     -39.125 -50.252  15.753  1.00  0.00     0.059 C 
HETATM    3  C   UNL     1     -39.095 -51.150  14.502  1.00  0.00     0.098 C 
HETATM    4  C   UNL     1     -38.068 -50.128  13.902  1.00  0.00     0.006 C 
HETATM    5  C   UNL     1     -37.131 -50.781  12.890  1.00  0.00     0.014 C 
HETATM    6  C   UNL     1     -37.657 -50.332  11.518  1.00  0.00     0.001 C 
HETATM    7  C   UNL     1     -38.718 -49.264  11.759  1.00  0.00     0.001 C 
HETATM    8  C   UNL     1     -38.546 -48.848  13.206  1.00  0.00     0.014 C 
ENDROOT
BRANCH   3   9
HETATM    9  N   UNL     1     -40.347 -51.323  13.746  1.00  0.00    -0.354 N 
HETATM   10  C   UNL     1     -40.583 -52.495  13.035  1.00  0.00     0.237 C 
HETATM   11  O   UNL     1     -39.816 -53.454  13.059  1.00  0.00    -0.272 OA
HETATM   12  H   UNL     1     -40.979 -50.542  13.621  1.00  0.00     0.162 HD
BRANCH  10  13
HETATM   13  C   UNL     1     -41.836 -52.494  12.192  1.00  0.00     0.250 C 
BRANCH  13  14
HETATM   14  N   UNL     1     -42.881 -53.314  12.777  1.00  0.00    -0.295 N 
HETATM   15  C   UNL     1     -44.205 -53.335  12.438  1.00  0.00     0.112 A 
HETATM   16  C   UNL     1     -44.813 -54.198  13.318  1.00  0.00     0.037 A 
HETATM   17  C   UNL     1     -43.776 -54.632  14.163  1.00  0.00     0.108 A 
HETATM   18  N   UNL     1     -42.597 -54.091  13.843  1.00  0.00    -0.310 N 
ATOM     19  HN  UNL     1     -41.695 -54.232  14.299  1.00  0.00     0.186 HD
ENDBRANCH  13  14
ENDBRANCH  10  13
ENDBRANCH   3   9
BRANCH   1  20
HETATM   20  O   UNL     1     -37.161 -48.588  15.730  1.00  0.00    -0.385 OA
BRANCH  20  21
HETATM   21  C   UNL     1     -35.874 -48.502  16.330  1.00  0.00     0.163 C 
HETATM   22  C   UNL     1     -35.391 -49.908  16.628  1.00  0.00     0.033 C 
ENDBRANCH  20  21
ENDBRANCH   1  20
TORSDOF 5
ENDMDL
MODEL 6
REMARK VINA RESULT:      -5.2      2.234      3.370
REMARK  5 active torsions:
REMARK  status: ('A' for Active; 'I' for Inactive)
REMARK    1  A    between atoms: C_2  and  O_3 
REMARK    2  A    between atoms: O_3  and  C_4 
REMARK    3  A    between atoms: C_6  and  N_7 
REMARK       I    between atoms: N_7  and  C_8 
REMARK    4  A    between atoms: C_8  and  C_10 
REMARK    5  A    between atoms: C_10  and  N_11 
ROOT
HETATM    1  C   UNL     1     -45.706 -50.906  15.899  1.00  0.00     0.133 C 
HETATM    2  C   UNL     1     -44.150 -50.923  16.052  1.00  0.00     0.059 C 
HETATM    3  C   UNL     1     -44.110 -50.838  14.515  1.00  0.00     0.098 C 
HETATM    4  C   UNL     1     -45.459 -51.637  14.524  1.00  0.00     0.006 C 
HETATM    5  C   UNL     1     -46.313 -51.338  13.295  1.00  0.00     0.014 C 
HETATM    6  C   UNL     1     -46.142 -52.567  12.388  1.00  0.00     0.001 C 
HETATM    7  C   UNL     1     -45.400 -53.631  13.189  1.00  0.00     0.001 C 
HETATM    8  C   UNL     1     -45.468 -53.167  14.629  1.00  0.00     0.014 C 
ENDROOT
BRANCH   3   9
HETATM    9  N   UNL     1     -42.985 -51.482  13.816  1.00  0.00    -0.354 N 
HETATM   10  C   UNL     1     -42.342 -50.833  12.768  1.00  0.00     0.237 C 
HETATM   11  O   UNL     1     -42.619 -49.687  12.426  1.00  0.00    -0.272 OA
HETATM   12  H   UNL     1     -42.762 -52.454  13.996  1.00  0.00     0.162 HD
BRANCH  10  13
HETATM   13  C   UNL     1     -41.298 -51.653  12.046  1.00  0.00     0.250 C 
BRANCH  13  14
HETATM   14  N   UNL     1     -40.001 -51.004  12.057  1.00  0.00    -0.295 N 
HETATM   15  C   UNL     1     -39.013 -51.142  12.993  1.00  0.00     0.112 A 
HETATM   16  C   UNL     1     -38.014 -50.274  12.626  1.00  0.00     0.037 A 
HETATM   17  C   UNL     1     -38.499 -49.642  11.467  1.00  0.00     0.108 A 
HETATM   18  N   UNL     1     -39.713 -50.078  11.119  1.00  0.00    -0.310 N 
ATOM     19  HN  UNL     1     -40.287 -49.779  10.330  1.00  0.00     0.186 HD
ENDBRANCH  13  14
ENDBRANCH  10  13
ENDBRANCH   3   9
BRANCH   1  20
HETATM   20  O   UNL     1     -46.483 -51.643  16.866  1.00  0.00    -0.385 OA
BRANCH  20  21
HETATM   21  C   UNL     1     -47.872 -51.342  16.936  1.00  0.00     0.163 C 
HETATM   22  C   UNL     1     -48.069 -50.221  17.936  1.00  0.00     0.033 C 
ENDBRANCH  20  21
ENDBRANCH   1  20
TORSDOF 5
ENDMDL
MODEL 7
REMARK VINA RESULT:      -5.2      3.818      6.617
REMARK  5 active torsions:
REMARK  status: ('A' for Active; 'I' for Inactive)
REMARK    1  A    between atoms: C_2  and  O_3 
REMARK    2  A    between atoms: O_3  and  C_4 
REMARK    3  A    between atoms: C_6  and  N_7 
REMARK       I    between atoms: N_7  and  C_8 
REMARK    4  A    between atoms: C_8  and  C_10 
REMARK    5  A    between atoms: C_10  and  N_11 
ROOT
HETATM    1  C   UNL     1     -42.696 -46.058  10.829  1.00  0.00     0.133 C 
HETATM    2  C   UNL     1     -42.721 -47.325   9.911  1.00  0.00     0.059 C 
HETATM    3  C   UNL     1     -42.499 -48.130  11.206  1.00  0.00     0.098 C 
HETATM    4  C   UNL     1     -41.708 -46.885  11.739  1.00  0.00     0.006 C 
HETATM    5  C   UNL     1     -41.751 -46.786  13.261  1.00  0.00     0.014 C 
HETATM    6  C   UNL     1     -40.367 -47.268  13.727  1.00  0.00     0.001 C 
HETATM    7  C   UNL     1     -39.489 -47.410  12.488  1.00  0.00     0.001 C 
HETATM    8  C   UNL     1     -40.230 -46.681  11.387  1.00  0.00     0.014 C 
ENDROOT
BRANCH   3   9
HETATM    9  N   UNL     1     -41.737 -49.386  11.115  1.00  0.00    -0.354 N 
HETATM   10  C   UNL     1     -41.844 -50.348  12.114  1.00  0.00     0.237 C 
HETATM   11  O   UNL     1     -42.617 -50.239  13.061  1.00  0.00    -0.272 OA
HETATM   12  H   UNL     1     -41.024 -49.500  10.404  1.00  0.00     0.162 HD
BRANCH  10  13
HETATM   13  C   UNL     1     -40.910 -51.527  11.975  1.00  0.00     0.250 C 
BRANCH  13  14
HETATM   14  N   UNL     1     -39.574 -51.216  12.447  1.00  0.00    -0.295 N 
HETATM   15  C   UNL     1     -39.152 -51.133  13.745  1.00  0.00     0.112 A 
HETATM   16  C   UNL     1     -37.839 -50.730  13.697  1.00  0.00     0.037 A 
HETATM   17  C   UNL     1     -37.565 -50.577  12.326  1.00  0.00     0.108 A 
HETATM   18  N   UNL     1     -38.621 -50.864  11.559  1.00  0.00    -0.310 N 
ATOM     19  HN  UNL     1     -38.689 -50.826  10.542  1.00  0.00     0.186 HD
ENDBRANCH  13  14
ENDBRANCH  10  13
ENDBRANCH   3   9
BRANCH   1  20
HETATM   20  O   UNL     1     -42.160 -44.839  10.275  1.00  0.00    -0.385 OA
BRANCH  20  21
HETATM   21  C   UNL     1     -42.352 -43.651  11.035  1.00  0.00     0.163 C 
HETATM   22  C   UNL     1     -40.991 -43.083  11.386  1.00  0.00     0.033 C 
ENDBRANCH  20  21
ENDBRANCH   1  20
TORSDOF 5
ENDMDL
MODEL 8
REMARK VINA RESULT:      -5.2      3.166      3.981
REMARK  5 active torsions:
REMARK  status: ('A' for Active; 'I' for Inactive)
REMARK    1  A    between atoms: C_2  and  O_3 
REMARK    2  A    between atoms: O_3  and  C_4 
REMARK    3  A    between atoms: C_6  and  N_7 
REMARK       I    between atoms: N_7  and  C_8 
REMARK    4  A    between atoms: C_8  and  C_10 
REMARK    5  A    between atoms: C_10  and  N_11 
ROOT
HETATM    1  C   UNL     1     -43.136 -52.982  13.963  1.00  0.00     0.133 C 
HETATM    2  C   UNL     1     -42.334 -52.091  12.958  1.00  0.00     0.059 C 
HETATM    3  C   UNL     1     -43.262 -50.946  13.406  1.00  0.00     0.098 C 
HETATM    4  C   UNL     1     -44.359 -52.043  13.633  1.00  0.00     0.006 C 
HETATM    5  C   UNL     1     -45.366 -51.636  14.705  1.00  0.00     0.014 C 
HETATM    6  C   UNL     1     -46.624 -51.217  13.926  1.00  0.00     0.001 C 
HETATM    7  C   UNL     1     -46.410 -51.601  12.466  1.00  0.00     0.001 C 
HETATM    8  C   UNL     1     -45.224 -52.544  12.470  1.00  0.00     0.014 C 
ENDROOT
BRANCH   3   9
HETATM    9  N   UNL     1     -43.591 -49.900  12.424  1.00  0.00    -0.354 N 
HETATM   10  C   UNL     1     -42.725 -48.832  12.216  1.00  0.00     0.237 C 
HETATM   11  O   UNL     1     -41.633 -48.744  12.769  1.00  0.00    -0.272 OA
HETATM   12  H   UNL     1     -44.510 -49.871  11.997  1.00  0.00     0.162 HD
BRANCH  10  13
HETATM   13  C   UNL     1     -43.240 -47.757  11.287  1.00  0.00     0.250 C 
BRANCH  13  14
HETATM   14  N   UNL     1     -42.277 -46.685  11.117  1.00  0.00    -0.295 N 
HETATM   15  C   UNL     1     -42.383 -45.397  11.564  1.00  0.00     0.112 A 
HETATM   16  C   UNL     1     -41.275 -44.735  11.092  1.00  0.00     0.037 A 
HETATM   17  C   UNL     1     -40.570 -45.703  10.355  1.00  0.00     0.108 A 
HETATM   18  N   UNL     1     -41.179 -46.892  10.360  1.00  0.00    -0.310 N 
ATOM     19  HN  UNL     1     -40.884 -47.753   9.899  1.00  0.00     0.186 HD
ENDBRANCH  13  14
ENDBRANCH  10  13
ENDBRANCH   3   9
BRANCH   1  20
HETATM   20  O   UNL     1     -43.312 -54.375  13.631  1.00  0.00    -0.385 OA
BRANCH  20  21
HETATM   21  C   UNL     1     -44.025 -55.172  14.570  1.00  0.00     0.163 C 
HETATM   22  C   UNL     1     -45.399 -55.466  14.002  1.00  0.00     0.033 C 
ENDBRANCH  20  21
ENDBRANCH   1  20
TORSDOF 5
ENDMDL
MODEL 9
REMARK VINA RESULT:      -5.2      4.694      7.939
REMARK  5 active torsions:
REMARK  status: ('A' for Active; 'I' for Inactive)
REMARK    1  A    between atoms: C_2  and  O_3 
REMARK    2  A    between atoms: O_3  and  C_4 
REMARK    3  A    between atoms: C_6  and  N_7 
REMARK       I    between atoms: N_7  and  C_8 
REMARK    4  A    between atoms: C_8  and  C_10 
REMARK    5  A    between atoms: C_10  and  N_11 
ROOT
HETATM    1  C   UNL     1     -40.661 -44.173  11.302  1.00  0.00     0.133 C 
HETATM    2  C   UNL     1     -39.872 -45.071  10.293  1.00  0.00     0.059 C 
HETATM    3  C   UNL     1     -40.446 -46.265  11.078  1.00  0.00     0.098 C 
HETATM    4  C   UNL     1     -40.417 -45.334  12.340  1.00  0.00     0.006 C 
HETATM    5  C   UNL     1     -41.477 -45.724  13.367  1.00  0.00     0.014 C 
HETATM    6  C   UNL     1     -40.702 -46.454  14.476  1.00  0.00     0.001 C 
HETATM    7  C   UNL     1     -39.215 -46.273  14.193  1.00  0.00     0.001 C 
HETATM    8  C   UNL     1     -39.135 -45.164  13.164  1.00  0.00     0.014 C 
ENDROOT
BRANCH   3   9
HETATM    9  N   UNL     1     -39.635 -47.490  11.163  1.00  0.00    -0.354 N 
HETATM   10  C   UNL     1     -40.244 -48.725  11.360  1.00  0.00     0.237 C 
HETATM   11  O   UNL     1     -41.462 -48.868  11.397  1.00  0.00    -0.272 OA
HETATM   12  H   UNL     1     -38.625 -47.430  11.222  1.00  0.00     0.162 HD
BRANCH  10  13
HETATM   13  C   UNL     1     -39.297 -49.884  11.568  1.00  0.00     0.250 C 
BRANCH  13  14
HETATM   14  N   UNL     1     -39.969 -51.033  12.143  1.00  0.00    -0.295 N 
HETATM   15  C   UNL     1     -39.763 -51.580  13.379  1.00  0.00     0.112 A 
HETATM   16  C   UNL     1     -40.562 -52.696  13.442  1.00  0.00     0.037 A 
HETATM   17  C   UNL     1     -41.197 -52.751  12.189  1.00  0.00     0.108 A 
HETATM   18  N   UNL     1     -40.833 -51.744  11.389  1.00  0.00    -0.310 N 
ATOM     19  HN  UNL     1     -41.138 -51.557  10.433  1.00  0.00     0.186 HD
ENDBRANCH  13  14
ENDBRANCH  10  13
ENDBRANCH   3   9
BRANCH   1  20
HETATM   20  O   UNL     1     -40.090 -42.895  11.650  1.00  0.00    -0.385 OA
BRANCH  20  21
HETATM   21  C   UNL     1     -40.990 -41.797  11.749  1.00  0.00     0.163 C 
HETATM   22  C   UNL     1     -42.292 -42.183  11.075  1.00  0.00     0.033 C 
ENDBRANCH  20  21
ENDBRANCH   1  20
TORSDOF 5
ENDMDL
