MODEL 1
REMARK VINA RESULT:      -6.0      0.000      0.000
REMARK  5 active torsions:
REMARK  status: ('A' for Active; 'I' for Inactive)
REMARK    1  A    between atoms: O_2  and  C_3 
REMARK    2  A    between atoms: C_9  and  N_10 
REMARK       I    between atoms: N_10  and  C_11 
REMARK       I    between atoms: C_11  and  N_13 
REMARK    3  A    between atoms: N_13  and  C_14 
REMARK    4  A    between atoms: N_17  and  C_18 
REMARK    5  A    between atoms: C_18  and  C_19 
ROOT
HETATM    1  N   UNL     1     -43.051 -51.897  12.453  1.00  0.00    -0.305 N 
HETATM    2  C   UNL     1     -43.241 -50.611  12.905  1.00  0.00     0.321 C 
HETATM    3  O   UNL     1     -43.823 -50.290  13.935  1.00  0.00    -0.247 OA
HETATM    4  N   UNL     1     -42.659 -49.675  12.086  1.00  0.00    -0.338 N 
HETATM    5  H   UNL     1     -42.802 -52.038  11.482  1.00  0.00     0.171 HD
HETATM    6  H   UNL     1     -42.472 -49.947  11.135  1.00  0.00     0.164 HD
ENDROOT
BRANCH   1   7
HETATM    7  C   UNL     1     -43.402 -53.071  13.164  1.00  0.00     0.087 A 
HETATM    8  C   UNL     1     -44.661 -53.660  12.988  1.00  0.00     0.169 A 
HETATM    9  N   UNL     1     -45.081 -54.763  13.653  1.00  0.00    -0.345 N 
HETATM   10  C   UNL     1     -44.215 -55.313  14.531  1.00  0.00     0.090 A 
ATOM     11  HN  UNL     1     -46.009 -55.159  13.499  1.00  0.00     0.167 HD
HETATM   12  C   UNL     1     -42.944 -54.826  14.759  1.00  0.00     0.019 A 
HETATM   13  C   UNL     1     -42.535 -53.692  14.059  1.00  0.00     0.035 A 
BRANCH   8  14
HETATM   14  O   UNL     1     -45.521 -53.073  12.071  1.00  0.00    -0.339 OA
HETATM   15  C   UNL     1     -46.523 -52.282  12.711  1.00  0.00     0.211 C 
ENDBRANCH   8  14
ENDBRANCH   1   7
BRANCH   4  16
HETATM   16  C   UNL     1     -42.749 -48.245  12.395  1.00  0.00     0.089 C 
HETATM   17  C   UNL     1     -43.436 -47.459  11.273  1.00  0.00     0.055 C 
HETATM   18  C   UNL     1     -42.533 -47.342  10.042  1.00  0.00     0.274 C 
HETATM   19  N   UNL     1     -41.195 -46.788  10.324  1.00  0.00     0.093 N 
HETATM   20  C   UNL     1     -40.535 -47.547  11.400  1.00  0.00     0.274 C 
HETATM   21  C   UNL     1     -41.365 -47.665  12.680  1.00  0.00     0.055 C 
BRANCH  19  22
HETATM   22  C   UNL     1     -41.200 -45.336  10.621  1.00  0.00     0.343 C 
BRANCH  22  23
HETATM   23  C   UNL     1     -39.841 -44.628  10.710  1.00  0.00     0.381 C 
HETATM   24  F   UNL     1     -39.108 -44.841   9.588  1.00  0.00    -0.213 F 
HETATM   25  F   UNL     1     -40.053 -43.285  10.767  1.00  0.00    -0.213 F 
ENDBRANCH  22  23
ENDBRANCH  19  22
ENDBRANCH   4  16
TORSDOF 5
ENDMDL
MODEL 2
REMARK VINA RESULT:      -6.0      1.412      2.342
REMARK  5 active torsions:
REMARK  status: ('A' for Active; 'I' for Inactive)
REMARK    1  A    between atoms: O_2  and  C_3 
REMARK    2  A    between atoms: C_9  and  N_10 
REMARK       I    between atoms: N_10  and  C_11 
REMARK       I    between atoms: C_11  and  N_13 
REMARK    3  A    between atoms: N_13  and  C_14 
REMARK    4  A    between atoms: N_17  and  C_18 
REMARK    5  A    between atoms: C_18  and  C_19 
ROOT
HETATM    1  N   UNL     1     -44.937 -50.813  12.894  1.00  0.00    -0.305 N 
HETATM    2  C   UNL     1     -43.677 -50.377  13.236  1.00  0.00     0.321 C 
HETATM    3  O   UNL     1     -43.077 -50.651  14.269  1.00  0.00    -0.247 OA
HETATM    4  N   UNL     1     -43.104 -49.605  12.256  1.00  0.00    -0.338 N 
HETATM    5  H   UNL     1     -45.436 -50.325  12.162  1.00  0.00     0.171 HD
HETATM    6  H   UNL     1     -43.723 -49.167  11.593  1.00  0.00     0.164 HD
ENDROOT
BRANCH   1   7
HETATM    7  C   UNL     1     -45.704 -51.746  13.634  1.00  0.00     0.087 A 
HETATM    8  C   UNL     1     -45.680 -53.107  13.304  1.00  0.00     0.169 A 
HETATM    9  N   UNL     1     -46.408 -54.054  13.943  1.00  0.00    -0.345 N 
HETATM   10  C   UNL     1     -47.193 -53.639  14.960  1.00  0.00     0.090 A 
ATOM     11  HN  UNL     1     -46.365 -55.036  13.669  1.00  0.00     0.167 HD
HETATM   12  C   UNL     1     -47.269 -52.326  15.379  1.00  0.00     0.019 A 
HETATM   13  C   UNL     1     -46.507 -51.371  14.707  1.00  0.00     0.035 A 
BRANCH   8  14
HETATM   14  O   UNL     1     -44.854 -53.500  12.261  1.00  0.00    -0.339 OA
HETATM   15  C   UNL     1     -43.626 -54.057  12.733  1.00  0.00     0.211 C 
ENDBRANCH   8  14
ENDBRANCH   1   7
BRANCH   4  16
HETATM   16  C   UNL     1     -41.761 -49.042  12.429  1.00  0.00     0.089 C 
HETATM   17  C   UNL     1     -41.794 -47.697  13.163  1.00  0.00     0.055 C 
HETATM   18  C   UNL     1     -42.361 -46.590  12.270  1.00  0.00     0.274 C 
HETATM   19  N   UNL     1     -41.684 -46.457  10.966  1.00  0.00     0.093 N 
HETATM   20  C   UNL     1     -41.657 -47.750  10.261  1.00  0.00     0.274 C 
HETATM   21  C   UNL     1     -41.058 -48.896  11.080  1.00  0.00     0.055 C 
BRANCH  19  22
HETATM   22  C   UNL     1     -40.327 -45.870  11.056  1.00  0.00     0.343 C 
BRANCH  22  23
HETATM   23  C   UNL     1     -39.984 -44.729  10.087  1.00  0.00     0.381 C 
HETATM   24  F   UNL     1     -39.803 -43.563  10.757  1.00  0.00    -0.213 F 
HETATM   25  F   UNL     1     -38.791 -45.005   9.492  1.00  0.00    -0.213 F 
ENDBRANCH  22  23
ENDBRANCH  19  22
ENDBRANCH   4  16
TORSDOF 5
ENDMDL
MODEL 3
REMARK VINA RESULT:      -5.9      1.641      1.970
REMARK  5 active torsions:
REMARK  status: ('A' for Active; 'I' for Inactive)
REMARK    1  A    between atoms: O_2  and  C_3 
REMARK    2  A    between atoms: C_9  and  N_10 
REMARK       I    between atoms: N_10  and  C_11 
REMARK       I    between atoms: C_11  and  N_13 
REMARK    3  A    between atoms: N_13  and  C_14 
REMARK    4  A    between atoms: N_17  and  C_18 
REMARK    5  A    between atoms: C_18  and  C_19 
ROOT
HETATM    1  N   UNL     1     -44.857 -51.301  12.807  1.00  0.00    -0.305 N 
HETATM    2  C   UNL     1     -43.849 -50.533  13.344  1.00  0.00     0.321 C 
HETATM    3  O   UNL     1     -43.283 -50.733  14.413  1.00  0.00    -0.247 OA
HETATM    4  N   UNL     1     -43.482 -49.497  12.521  1.00  0.00    -0.338 N 
HETATM    5  H   UNL     1     -45.425 -50.907  12.068  1.00  0.00     0.171 HD
HETATM    6  H   UNL     1     -44.151 -49.198  11.830  1.00  0.00     0.164 HD
ENDROOT
BRANCH   1   7
HETATM    7  C   UNL     1     -45.332 -52.518  13.354  1.00  0.00     0.087 A 
HETATM    8  C   UNL     1     -46.366 -52.517  14.300  1.00  0.00     0.169 A 
HETATM    9  N   UNL     1     -46.853 -53.635  14.890  1.00  0.00    -0.345 N 
HETATM   10  C   UNL     1     -46.297 -54.810  14.525  1.00  0.00     0.090 A 
ATOM     11  HN  UNL     1     -47.605 -53.591  15.579  1.00  0.00     0.167 HD
HETATM   12  C   UNL     1     -45.293 -54.922  13.585  1.00  0.00     0.019 A 
HETATM   13  C   UNL     1     -44.811 -53.757  12.990  1.00  0.00     0.035 A 
BRANCH   8  14
HETATM   14  O   UNL     1     -46.920 -51.293  14.643  1.00  0.00    -0.339 OA
HETATM   15  C   UNL     1     -47.422 -51.292  15.981  1.00  0.00     0.211 C 
ENDBRANCH   8  14
ENDBRANCH   1   7
BRANCH   4  16
HETATM   16  C   UNL     1     -42.423 -48.562  12.913  1.00  0.00     0.089 C 
HETATM   17  C   UNL     1     -42.838 -47.103  12.693  1.00  0.00     0.055 C 
HETATM   18  C   UNL     1     -42.872 -46.753  11.203  1.00  0.00     0.274 C 
HETATM   19  N   UNL     1     -41.621 -47.055  10.481  1.00  0.00     0.093 N 
HETATM   20  C   UNL     1     -41.227 -48.459  10.690  1.00  0.00     0.274 C 
HETATM   21  C   UNL     1     -41.128 -48.866  12.162  1.00  0.00     0.055 C 
BRANCH  19  22
HETATM   22  C   UNL     1     -40.507 -46.134  10.806  1.00  0.00     0.343 C 
BRANCH  22  23
HETATM   23  C   UNL     1     -40.818 -44.631  10.835  1.00  0.00     0.381 C 
HETATM   24  F   UNL     1     -40.864 -44.170  12.110  1.00  0.00    -0.213 F 
HETATM   25  F   UNL     1     -39.796 -43.962  10.234  1.00  0.00    -0.213 F 
ENDBRANCH  22  23
ENDBRANCH  19  22
ENDBRANCH   4  16
TORSDOF 5
ENDMDL
MODEL 4
REMARK VINA RESULT:      -5.6      1.253      2.186
REMARK  5 active torsions:
REMARK  status: ('A' for Active; 'I' for Inactive)
REMARK    1  A    between atoms: O_2  and  C_3 
REMARK    2  A    between atoms: C_9  and  N_10 
REMARK       I    between atoms: N_10  and  C_11 
REMARK       I    between atoms: C_11  and  N_13 
REMARK    3  A    between atoms: N_13  and  C_14 
REMARK    4  A    between atoms: N_17  and  C_18 
REMARK    5  A    between atoms: C_18  and  C_19 
ROOT
HETATM    1  N   UNL     1     -43.082 -51.916  12.541  1.00  0.00    -0.305 N 
HETATM    2  C   UNL     1     -43.308 -50.624  12.958  1.00  0.00     0.321 C 
HETATM    3  O   UNL     1     -43.838 -50.290  14.011  1.00  0.00    -0.247 OA
HETATM    4  N   UNL     1     -42.828 -49.694  12.069  1.00  0.00    -0.338 N 
HETATM    5  H   UNL     1     -42.888 -52.083  11.562  1.00  0.00     0.171 HD
HETATM    6  H   UNL     1     -42.689 -49.994  11.117  1.00  0.00     0.164 HD
ENDROOT
BRANCH   1   7
HETATM    7  C   UNL     1     -43.325 -53.076  13.317  1.00  0.00     0.087 A 
HETATM    8  C   UNL     1     -42.305 -53.635  14.098  1.00  0.00     0.169 A 
HETATM    9  N   UNL     1     -42.450 -54.759  14.842  1.00  0.00    -0.345 N 
HETATM   10  C   UNL     1     -43.662 -55.354  14.818  1.00  0.00     0.090 A 
ATOM     11  HN  UNL     1     -41.680 -55.137  15.394  1.00  0.00     0.167 HD
HETATM   12  C   UNL     1     -44.738 -54.869  14.104  1.00  0.00     0.019 A 
HETATM   13  C   UNL     1     -44.564 -53.710  13.349  1.00  0.00     0.035 A 
BRANCH   8  14
HETATM   14  O   UNL     1     -41.076 -52.992  14.106  1.00  0.00    -0.339 OA
HETATM   15  C   UNL     1     -40.005 -53.883  13.792  1.00  0.00     0.211 C 
ENDBRANCH   8  14
ENDBRANCH   1   7
BRANCH   4  16
HETATM   16  C   UNL     1     -42.972 -48.258  12.330  1.00  0.00     0.089 C 
HETATM   17  C   UNL     1     -43.458 -47.497  11.092  1.00  0.00     0.055 C 
HETATM   18  C   UNL     1     -42.357 -47.398  10.032  1.00  0.00     0.274 C 
HETATM   19  N   UNL     1     -41.088 -46.833  10.528  1.00  0.00     0.093 N 
HETATM   20  C   UNL     1     -40.621 -47.569  11.715  1.00  0.00     0.274 C 
HETATM   21  C   UNL     1     -41.657 -47.667  12.837  1.00  0.00     0.055 C 
BRANCH  19  22
HETATM   22  C   UNL     1     -41.146 -45.376  10.792  1.00  0.00     0.343 C 
BRANCH  22  23
HETATM   23  C   UNL     1     -39.870 -44.560  10.539  1.00  0.00     0.381 C 
HETATM   24  F   UNL     1     -39.173 -44.381  11.690  1.00  0.00    -0.213 F 
HETATM   25  F   UNL     1     -39.052 -45.274   9.717  1.00  0.00    -0.213 F 
ENDBRANCH  22  23
ENDBRANCH  19  22
ENDBRANCH   4  16
TORSDOF 5
ENDMDL
MODEL 5
REMARK VINA RESULT:      -5.3      4.593      8.317
REMARK  5 active torsions:
REMARK  status: ('A' for Active; 'I' for Inactive)
REMARK    1  A    between atoms: O_2  and  C_3 
REMARK    2  A    between atoms: C_9  and  N_10 
REMARK       I    between atoms: N_10  and  C_11 
REMARK       I    between atoms: C_11  and  N_13 
REMARK    3  A    between atoms: N_13  and  C_14 
REMARK    4  A    between atoms: N_17  and  C_18 
REMARK    5  A    between atoms: C_18  and  C_19 
ROOT
HETATM    1  N   UNL     1     -42.411 -49.034  11.951  1.00  0.00    -0.305 N 
HETATM    2  C   UNL     1     -41.892 -50.309  11.929  1.00  0.00     0.321 C 
HETATM    3  O   UNL     1     -40.788 -50.629  11.504  1.00  0.00    -0.247 OA
HETATM    4  N   UNL     1     -42.741 -51.231  12.491  1.00  0.00    -0.338 N 
HETATM    5  H   UNL     1     -43.409 -48.920  12.070  1.00  0.00     0.171 HD
HETATM    6  H   UNL     1     -43.717 -50.990  12.539  1.00  0.00     0.164 HD
ENDROOT
BRANCH   1   7
HETATM    7  C   UNL     1     -41.706 -47.862  11.585  1.00  0.00     0.087 A 
HETATM    8  C   UNL     1     -41.914 -47.268  10.333  1.00  0.00     0.169 A 
HETATM    9  N   UNL     1     -41.257 -46.166   9.899  1.00  0.00    -0.345 N 
HETATM   10  C   UNL     1     -40.355 -45.620  10.743  1.00  0.00     0.090 A 
ATOM     11  HN  UNL     1     -41.434 -45.767   8.977  1.00  0.00     0.167 HD
HETATM   12  C   UNL     1     -40.095 -46.112  12.006  1.00  0.00     0.019 A 
HETATM   13  C   UNL     1     -40.787 -47.246  12.430  1.00  0.00     0.035 A 
BRANCH   8  14
HETATM   14  O   UNL     1     -42.855 -47.850   9.496  1.00  0.00    -0.339 OA
HETATM   15  C   UNL     1     -44.069 -47.097   9.454  1.00  0.00     0.211 C 
ENDBRANCH   8  14
ENDBRANCH   1   7
BRANCH   4  16
HETATM   16  C   UNL     1     -42.371 -52.648  12.563  1.00  0.00     0.089 C 
HETATM   17  C   UNL     1     -43.597 -53.564  12.494  1.00  0.00     0.055 C 
HETATM   18  C   UNL     1     -44.412 -53.503  13.789  1.00  0.00     0.274 C 
HETATM   19  N   UNL     1     -43.628 -53.771  15.010  1.00  0.00     0.093 N 
HETATM   20  C   UNL     1     -42.452 -52.887  15.077  1.00  0.00     0.274 C 
HETATM   21  C   UNL     1     -41.566 -52.932  13.830  1.00  0.00     0.055 C 
BRANCH  19  22
HETATM   22  C   UNL     1     -43.237 -55.191  15.169  1.00  0.00     0.343 C 
BRANCH  22  23
HETATM   23  C   UNL     1     -42.380 -55.557  16.389  1.00  0.00     0.381 C 
HETATM   24  F   UNL     1     -43.061 -55.339  17.542  1.00  0.00    -0.213 F 
HETATM   25  F   UNL     1     -42.122 -56.893  16.356  1.00  0.00    -0.213 F 
ENDBRANCH  22  23
ENDBRANCH  19  22
ENDBRANCH   4  16
TORSDOF 5
ENDMDL
MODEL 6
REMARK VINA RESULT:      -5.1      4.393      8.183
REMARK  5 active torsions:
REMARK  status: ('A' for Active; 'I' for Inactive)
REMARK    1  A    between atoms: O_2  and  C_3 
REMARK    2  A    between atoms: C_9  and  N_10 
REMARK       I    between atoms: N_10  and  C_11 
REMARK       I    between atoms: C_11  and  N_13 
REMARK    3  A    between atoms: N_13  and  C_14 
REMARK    4  A    between atoms: N_17  and  C_18 
REMARK    5  A    between atoms: C_18  and  C_19 
ROOT
HETATM    1  N   UNL     1     -40.954 -48.504  12.571  1.00  0.00    -0.305 N 
HETATM    2  C   UNL     1     -41.919 -48.689  13.536  1.00  0.00     0.321 C 
HETATM    3  O   UNL     1     -42.611 -47.812  14.039  1.00  0.00    -0.247 OA
HETATM    4  N   UNL     1     -42.077 -50.011  13.873  1.00  0.00    -0.338 N 
HETATM    5  H   UNL     1     -40.272 -49.236  12.422  1.00  0.00     0.171 HD
HETATM    6  H   UNL     1     -41.311 -50.633  13.675  1.00  0.00     0.164 HD
ENDROOT
BRANCH   1   7
HETATM    7  C   UNL     1     -40.680 -47.277  11.919  1.00  0.00     0.087 A 
HETATM    8  C   UNL     1     -41.200 -47.019  10.644  1.00  0.00     0.169 A 
HETATM    9  N   UNL     1     -40.959 -45.884   9.943  1.00  0.00    -0.345 N 
HETATM   10  C   UNL     1     -40.171 -44.959  10.532  1.00  0.00     0.090 A 
ATOM     11  HN  UNL     1     -41.354 -45.736   9.014  1.00  0.00     0.167 HD
HETATM   12  C   UNL     1     -39.631 -45.105  11.794  1.00  0.00     0.019 A 
HETATM   13  C   UNL     1     -39.898 -46.281  12.495  1.00  0.00     0.035 A 
BRANCH   8  14
HETATM   14  O   UNL     1     -42.013 -47.987  10.074  1.00  0.00    -0.339 OA
HETATM   15  C   UNL     1     -43.320 -47.485   9.788  1.00  0.00     0.211 C 
ENDBRANCH   8  14
ENDBRANCH   1   7
BRANCH   4  16
HETATM   16  C   UNL     1     -43.058 -50.417  14.885  1.00  0.00     0.089 C 
HETATM   17  C   UNL     1     -42.553 -51.590  15.732  1.00  0.00     0.055 C 
HETATM   18  C   UNL     1     -42.543 -52.893  14.929  1.00  0.00     0.274 C 
HETATM   19  N   UNL     1     -43.834 -53.224  14.295  1.00  0.00     0.093 N 
HETATM   20  C   UNL     1     -44.315 -52.097  13.478  1.00  0.00     0.274 C 
HETATM   21  C   UNL     1     -44.394 -50.768  14.232  1.00  0.00     0.055 C 
BRANCH  19  22
HETATM   22  C   UNL     1     -44.872 -53.669  15.253  1.00  0.00     0.343 C 
BRANCH  22  23
HETATM   23  C   UNL     1     -46.071 -54.445  14.687  1.00  0.00     0.381 C 
HETATM   24  F   UNL     1     -47.083 -53.602  14.362  1.00  0.00    -0.213 F 
HETATM   25  F   UNL     1     -45.694 -55.040  13.523  1.00  0.00    -0.213 F 
ENDBRANCH  22  23
ENDBRANCH  19  22
ENDBRANCH   4  16
TORSDOF 5
ENDMDL
MODEL 7
REMARK VINA RESULT:      -5.1      4.667      6.430
REMARK  5 active torsions:
REMARK  status: ('A' for Active; 'I' for Inactive)
REMARK    1  A    between atoms: O_2  and  C_3 
REMARK    2  A    between atoms: C_9  and  N_10 
REMARK       I    between atoms: N_10  and  C_11 
REMARK       I    between atoms: C_11  and  N_13 
REMARK    3  A    between atoms: N_13  and  C_14 
REMARK    4  A    between atoms: N_17  and  C_18 
REMARK    5  A    between atoms: C_18  and  C_19 
ROOT
HETATM    1  N   UNL     1     -38.686 -48.102  14.632  1.00  0.00    -0.305 N 
HETATM    2  C   UNL     1     -38.834 -48.270  13.273  1.00  0.00     0.321 C 
HETATM    3  O   UNL     1     -38.070 -48.883  12.537  1.00  0.00    -0.247 OA
HETATM    4  N   UNL     1     -39.988 -47.700  12.796  1.00  0.00    -0.338 N 
HETATM    5  H   UNL     1     -39.214 -47.372  15.090  1.00  0.00     0.171 HD
HETATM    6  H   UNL     1     -40.408 -46.972  13.353  1.00  0.00     0.164 HD
ENDROOT
BRANCH   1   7
HETATM    7  C   UNL     1     -37.679 -48.710  15.422  1.00  0.00     0.087 A 
HETATM    8  C   UNL     1     -37.863 -49.999  15.939  1.00  0.00     0.169 A 
HETATM    9  N   UNL     1     -36.961 -50.634  16.726  1.00  0.00    -0.345 N 
HETATM   10  C   UNL     1     -35.823 -49.967  17.012  1.00  0.00     0.090 A 
ATOM     11  HN  UNL     1     -37.135 -51.573  17.087  1.00  0.00     0.167 HD
HETATM   12  C   UNL     1     -35.535 -48.706  16.532  1.00  0.00     0.019 A 
HETATM   13  C   UNL     1     -36.477 -48.075  15.721  1.00  0.00     0.035 A 
BRANCH   8  14
HETATM   14  O   UNL     1     -39.040 -50.658  15.616  1.00  0.00    -0.339 OA
HETATM   15  C   UNL     1     -38.809 -51.762  14.739  1.00  0.00     0.211 C 
ENDBRANCH   8  14
ENDBRANCH   1   7
BRANCH   4  16
HETATM   16  C   UNL     1     -40.329 -47.768  11.372  1.00  0.00     0.089 C 
HETATM   17  C   UNL     1     -40.862 -46.431  10.846  1.00  0.00     0.055 C 
HETATM   18  C   UNL     1     -42.270 -46.146  11.376  1.00  0.00     0.274 C 
HETATM   19  N   UNL     1     -43.241 -47.228  11.127  1.00  0.00     0.093 N 
HETATM   20  C   UNL     1     -42.729 -48.512  11.638  1.00  0.00     0.274 C 
HETATM   21  C   UNL     1     -41.340 -48.883  11.112  1.00  0.00     0.055 C 
BRANCH  19  22
HETATM   22  C   UNL     1     -43.655 -47.345   9.710  1.00  0.00     0.343 C 
BRANCH  22  23
HETATM   23  C   UNL     1     -45.162 -47.357   9.413  1.00  0.00     0.381 C 
HETATM   24  F   UNL     1     -45.566 -46.162   8.912  1.00  0.00    -0.213 F 
HETATM   25  F   UNL     1     -45.406 -48.271   8.435  1.00  0.00    -0.213 F 
ENDBRANCH  22  23
ENDBRANCH  19  22
ENDBRANCH   4  16
TORSDOF 5
ENDMDL
MODEL 8
REMARK VINA RESULT:      -5.0      4.957      8.474
REMARK  5 active torsions:
REMARK  status: ('A' for Active; 'I' for Inactive)
REMARK    1  A    between atoms: O_2  and  C_3 
REMARK    2  A    between atoms: C_9  and  N_10 
REMARK       I    between atoms: N_10  and  C_11 
REMARK       I    between atoms: C_11  and  N_13 
REMARK    3  A    between atoms: N_13  and  C_14 
REMARK    4  A    between atoms: N_17  and  C_18 
REMARK    5  A    between atoms: C_18  and  C_19 
ROOT
HETATM    1  N   UNL     1     -40.987 -48.703  12.495  1.00  0.00    -0.305 N 
HETATM    2  C   UNL     1     -40.279 -49.841  12.182  1.00  0.00     0.321 C 
HETATM    3  O   UNL     1     -39.422 -49.939  11.310  1.00  0.00    -0.247 OA
HETATM    4  N   UNL     1     -40.598 -50.900  12.997  1.00  0.00    -0.338 N 
HETATM    5  H   UNL     1     -41.838 -48.795  13.034  1.00  0.00     0.171 HD
HETATM    6  H   UNL     1     -41.487 -50.866  13.470  1.00  0.00     0.164 HD
ENDROOT
BRANCH   1   7
HETATM    7  C   UNL     1     -40.761 -47.423  11.933  1.00  0.00     0.087 A 
HETATM    8  C   UNL     1     -41.331 -47.078  10.700  1.00  0.00     0.169 A 
HETATM    9  N   UNL     1     -41.137 -45.887  10.084  1.00  0.00    -0.345 N 
HETATM   10  C   UNL     1     -40.348 -44.992  10.716  1.00  0.00     0.090 A 
ATOM     11  HN  UNL     1     -41.568 -45.675   9.183  1.00  0.00     0.167 HD
HETATM   12  C   UNL     1     -39.760 -45.225  11.943  1.00  0.00     0.019 A 
HETATM   13  C   UNL     1     -39.978 -46.457  12.558  1.00  0.00     0.035 A 
BRANCH   8  14
HETATM   14  O   UNL     1     -42.145 -48.017  10.084  1.00  0.00    -0.339 OA
HETATM   15  C   UNL     1     -43.480 -47.536   9.915  1.00  0.00     0.211 C 
ENDBRANCH   8  14
ENDBRANCH   1   7
BRANCH   4  16
HETATM   16  C   UNL     1     -39.952 -52.204  12.824  1.00  0.00     0.089 C 
HETATM   17  C   UNL     1     -40.955 -53.358  12.930  1.00  0.00     0.055 C 
HETATM   18  C   UNL     1     -41.424 -53.557  14.374  1.00  0.00     0.274 C 
HETATM   19  N   UNL     1     -40.329 -53.725  15.348  1.00  0.00     0.093 N 
HETATM   20  C   UNL     1     -39.369 -52.613  15.247  1.00  0.00     0.274 C 
HETATM   21  C   UNL     1     -38.822 -52.386  13.836  1.00  0.00     0.055 C 
BRANCH  19  22
HETATM   22  C   UNL     1     -39.642 -55.034  15.253  1.00  0.00     0.343 C 
BRANCH  22  23
HETATM   23  C   UNL     1     -38.865 -55.516  16.487  1.00  0.00     0.381 C 
HETATM   24  F   UNL     1     -39.330 -56.717  16.914  1.00  0.00    -0.213 F 
HETATM   25  F   UNL     1     -37.568 -55.725  16.130  1.00  0.00    -0.213 F 
ENDBRANCH  22  23
ENDBRANCH  19  22
ENDBRANCH   4  16
TORSDOF 5
ENDMDL
MODEL 9
REMARK VINA RESULT:      -5.0      1.777      2.776
REMARK  5 active torsions:
REMARK  status: ('A' for Active; 'I' for Inactive)
REMARK    1  A    between atoms: O_2  and  C_3 
REMARK    2  A    between atoms: C_9  and  N_10 
REMARK       I    between atoms: N_10  and  C_11 
REMARK       I    between atoms: C_11  and  N_13 
REMARK    3  A    between atoms: N_13  and  C_14 
REMARK    4  A    between atoms: N_17  and  C_18 
REMARK    5  A    between atoms: C_18  and  C_19 
ROOT
HETATM    1  N   UNL     1     -43.654 -50.749  14.309  1.00  0.00    -0.305 N 
HETATM    2  C   UNL     1     -42.794 -50.708  13.235  1.00  0.00     0.321 C 
HETATM    3  O   UNL     1     -42.674 -51.574  12.376  1.00  0.00    -0.247 OA
HETATM    4  N   UNL     1     -42.077 -49.538  13.181  1.00  0.00    -0.338 N 
HETATM    5  H   UNL     1     -43.487 -50.124  15.087  1.00  0.00     0.171 HD
HETATM    6  H   UNL     1     -41.981 -49.015  14.036  1.00  0.00     0.164 HD
ENDROOT
BRANCH   1   7
HETATM    7  C   UNL     1     -44.625 -51.755  14.536  1.00  0.00     0.087 A 
HETATM    8  C   UNL     1     -44.260 -52.978  15.115  1.00  0.00     0.169 A 
HETATM    9  N   UNL     1     -45.123 -53.998  15.336  1.00  0.00    -0.345 N 
HETATM   10  C   UNL     1     -46.409 -53.801  14.973  1.00  0.00     0.090 A 
ATOM     11  HN  UNL     1     -44.816 -54.876  15.757  1.00  0.00     0.167 HD
HETATM   12  C   UNL     1     -46.875 -52.625  14.420  1.00  0.00     0.019 A 
HETATM   13  C   UNL     1     -45.967 -51.589  14.206  1.00  0.00     0.035 A 
BRANCH   8  14
HETATM   14  O   UNL     1     -42.933 -53.142  15.485  1.00  0.00    -0.339 OA
HETATM   15  C   UNL     1     -42.318 -54.231  14.794  1.00  0.00     0.211 C 
ENDBRANCH   8  14
ENDBRANCH   1   7
BRANCH   4  16
HETATM   16  C   UNL     1     -41.105 -49.300  12.110  1.00  0.00     0.089 C 
HETATM   17  C   UNL     1     -39.840 -48.607  12.628  1.00  0.00     0.055 C 
HETATM   18  C   UNL     1     -40.113 -47.142  12.979  1.00  0.00     0.274 C 
HETATM   19  N   UNL     1     -40.727 -46.361  11.888  1.00  0.00     0.093 N 
HETATM   20  C   UNL     1     -41.944 -47.028  11.394  1.00  0.00     0.274 C 
HETATM   21  C   UNL     1     -41.734 -48.486  10.980  1.00  0.00     0.055 C 
BRANCH  19  22
HETATM   22  C   UNL     1     -39.797 -46.057  10.776  1.00  0.00     0.343 C 
BRANCH  22  23
HETATM   23  C   UNL     1     -39.935 -44.689  10.092  1.00  0.00     0.381 C 
HETATM   24  F   UNL     1     -39.805 -43.682  10.993  1.00  0.00    -0.213 F 
HETATM   25  F   UNL     1     -38.908 -44.536   9.212  1.00  0.00    -0.213 F 
ENDBRANCH  22  23
ENDBRANCH  19  22
ENDBRANCH   4  16
TORSDOF 5
ENDMDL
