MODEL 1
REMARK VINA RESULT:      -7.0      0.000      0.000
REMARK  6 active torsions:
REMARK  status: ('A' for Active; 'I' for Inactive)
REMARK    1  A    between atoms: S_2  and  N_5 
REMARK    2  A    between atoms: N_5  and  C_6 
REMARK    3  A    between atoms: C_6  and  C_7 
REMARK       I    between atoms: N_12  and  C_13 
REMARK       I    between atoms: C_13  and  N_15 
REMARK    4  A    between atoms: N_15  and  C_16 
REMARK    5  A    between atoms: C_16  and  C_17 
REMARK    6  A    between atoms: C_17  and  C_18 
ROOT
HETATM    1  C   UNL     1     -41.879 -47.947  11.828  1.00  0.00     0.102 C 
HETATM    2  C   UNL     1     -41.910 -46.902  12.959  1.00  0.00     0.027 C 
HETATM    3  C   UNL     1     -40.588 -46.146  13.104  1.00  0.00     0.004 C 
HETATM    4  C   UNL     1     -39.417 -47.116  13.240  1.00  0.00     0.020 C 
HETATM    5  C   UNL     1     -39.408 -48.156  12.124  1.00  0.00     0.128 C 
HETATM    6  N   UNL     1     -40.704 -48.836  12.016  1.00  0.00    -0.328 N 
HETATM    7  C   UNL     1     -40.699 -50.221  11.976  1.00  0.00     0.318 C 
HETATM    8  O   UNL     1     -39.660 -50.877  11.963  1.00  0.00    -0.247 OA
HETATM    9  N   UNL     1     -41.927 -50.834  11.942  1.00  0.00    -0.343 N 
HETATM   10  H   UNL     1     -42.646 -50.363  12.465  1.00  0.00     0.164 HD
ENDROOT
BRANCH   1  11
HETATM   11  C   UNL     1     -41.893 -47.263  10.437  1.00  0.00     0.129 C 
BRANCH  11  12
HETATM   12  N   UNL     1     -42.473 -48.171   9.406  1.00  0.00    -0.218 NA
HETATM   13  H   UNL     1     -41.721 -48.609   8.867  1.00  0.00     0.139 HD
BRANCH  12  14
HETATM   14  S   UNL     1     -43.583 -47.385   8.397  1.00  0.00     0.205 S 
HETATM   15  C   UNL     1     -45.086 -47.495   9.339  1.00  0.00     0.179 C 
HETATM   16  O   UNL     1     -43.722 -48.215   7.221  1.00  0.00    -0.212 OA
HETATM   17  O   UNL     1     -43.181 -46.001   8.303  1.00  0.00    -0.212 OA
ENDBRANCH  12  14
ENDBRANCH  11  12
ENDBRANCH   1  11
BRANCH   9  18
HETATM   18  C   UNL     1     -41.977 -52.293  11.973  1.00  0.00     0.130 C 
BRANCH  18  19
HETATM   19  C   UNL     1     -42.641 -52.841  13.234  1.00  0.00     0.076 C 
BRANCH  19  20
HETATM   20  C   UNL     1     -44.072 -52.375  13.344  1.00  0.00     0.010 A 
HETATM   21  C   UNL     1     -44.505 -51.651  14.453  1.00  0.00     0.025 A 
HETATM   22  C   UNL     1     -45.842 -51.262  14.525  1.00  0.00     0.003 A 
HETATM   23  C   UNL     1     -46.709 -51.606  13.495  1.00  0.00     0.017 A 
HETATM   24  C   UNL     1     -46.199 -52.328  12.431  1.00  0.00     0.088 A 
HETATM   25  N   UNL     1     -44.908 -52.719  12.334  1.00  0.00    -0.369 N 
ATOM     26  HN  UNL     1     -44.575 -53.252  11.530  1.00  0.00     0.165 HD
ENDBRANCH  19  20
ENDBRANCH  18  19
ENDBRANCH   9  18
TORSDOF 6
ENDMDL
MODEL 2
REMARK VINA RESULT:      -6.6      3.144      4.039
REMARK  6 active torsions:
REMARK  status: ('A' for Active; 'I' for Inactive)
REMARK    1  A    between atoms: S_2  and  N_5 
REMARK    2  A    between atoms: N_5  and  C_6 
REMARK    3  A    between atoms: C_6  and  C_7 
REMARK       I    between atoms: N_12  and  C_13 
REMARK       I    between atoms: C_13  and  N_15 
REMARK    4  A    between atoms: N_15  and  C_16 
REMARK    5  A    between atoms: C_16  and  C_17 
REMARK    6  A    between atoms: C_17  and  C_18 
ROOT
HETATM    1  C   UNL     1     -41.401 -49.061  11.247  1.00  0.00     0.102 C 
HETATM    2  C   UNL     1     -42.126 -47.917  10.513  1.00  0.00     0.027 C 
HETATM    3  C   UNL     1     -42.254 -46.654  11.367  1.00  0.00     0.004 C 
HETATM    4  C   UNL     1     -42.885 -46.970  12.719  1.00  0.00     0.020 C 
HETATM    5  C   UNL     1     -42.169 -48.116  13.427  1.00  0.00     0.128 C 
HETATM    6  N   UNL     1     -42.057 -49.294  12.560  1.00  0.00    -0.328 N 
HETATM    7  C   UNL     1     -42.453 -50.515  13.082  1.00  0.00     0.318 C 
HETATM    8  O   UNL     1     -42.826 -50.644  14.246  1.00  0.00    -0.247 OA
HETATM    9  N   UNL     1     -42.401 -51.589  12.229  1.00  0.00    -0.343 N 
HETATM   10  H   UNL     1     -42.619 -51.374  11.270  1.00  0.00     0.164 HD
ENDROOT
BRANCH   1  11
HETATM   11  C   UNL     1     -39.886 -48.765  11.382  1.00  0.00     0.129 C 
BRANCH  11  12
HETATM   12  N   UNL     1     -39.077 -49.951  10.979  1.00  0.00    -0.218 NA
HETATM   13  H   UNL     1     -39.625 -50.549  10.354  1.00  0.00     0.139 HD
BRANCH  12  14
HETATM   14  S   UNL     1     -38.488 -50.820  12.308  1.00  0.00     0.205 S 
HETATM   15  C   UNL     1     -38.543 -49.602  13.602  1.00  0.00     0.179 C 
HETATM   16  O   UNL     1     -37.102 -51.115  12.020  1.00  0.00    -0.212 OA
HETATM   17  O   UNL     1     -39.440 -51.866  12.599  1.00  0.00    -0.212 OA
ENDBRANCH  12  14
ENDBRANCH  11  12
ENDBRANCH   1  11
BRANCH   9  18
HETATM   18  C   UNL     1     -42.878 -52.883  12.710  1.00  0.00     0.130 C 
BRANCH  18  19
HETATM   19  C   UNL     1     -44.297 -53.205  12.248  1.00  0.00     0.076 C 
BRANCH  19  20
HETATM   20  C   UNL     1     -45.307 -52.879  13.321  1.00  0.00     0.010 A 
HETATM   21  C   UNL     1     -45.978 -51.657  13.322  1.00  0.00     0.025 A 
HETATM   22  C   UNL     1     -46.884 -51.387  14.347  1.00  0.00     0.003 A 
HETATM   23  C   UNL     1     -47.094 -52.336  15.340  1.00  0.00     0.017 A 
HETATM   24  C   UNL     1     -46.385 -53.521  15.265  1.00  0.00     0.088 A 
HETATM   25  N   UNL     1     -45.501 -53.811  14.285  1.00  0.00    -0.369 N 
ATOM     26  HN  UNL     1     -44.998 -54.699  14.271  1.00  0.00     0.165 HD
ENDBRANCH  19  20
ENDBRANCH  18  19
ENDBRANCH   9  18
TORSDOF 6
ENDMDL
MODEL 3
REMARK VINA RESULT:      -6.2      2.982      5.890
REMARK  6 active torsions:
REMARK  status: ('A' for Active; 'I' for Inactive)
REMARK    1  A    between atoms: S_2  and  N_5 
REMARK    2  A    between atoms: N_5  and  C_6 
REMARK    3  A    between atoms: C_6  and  C_7 
REMARK       I    between atoms: N_12  and  C_13 
REMARK       I    between atoms: C_13  and  N_15 
REMARK    4  A    between atoms: N_15  and  C_16 
REMARK    5  A    between atoms: C_16  and  C_17 
REMARK    6  A    between atoms: C_17  and  C_18 
ROOT
HETATM    1  C   UNL     1     -42.098 -52.104  12.658  1.00  0.00     0.102 C 
HETATM    2  C   UNL     1     -41.523 -53.524  12.493  1.00  0.00     0.027 C 
HETATM    3  C   UNL     1     -40.759 -54.000  13.729  1.00  0.00     0.004 C 
HETATM    4  C   UNL     1     -39.696 -52.986  14.139  1.00  0.00     0.020 C 
HETATM    5  C   UNL     1     -40.274 -51.581  14.281  1.00  0.00     0.128 C 
HETATM    6  N   UNL     1     -41.012 -51.182  13.077  1.00  0.00    -0.328 N 
HETATM    7  C   UNL     1     -40.716 -49.946  12.525  1.00  0.00     0.318 C 
HETATM    8  O   UNL     1     -39.918 -49.167  13.041  1.00  0.00    -0.247 OA
HETATM    9  N   UNL     1     -41.371 -49.626  11.362  1.00  0.00    -0.343 N 
HETATM   10  H   UNL     1     -41.546 -50.405  10.750  1.00  0.00     0.164 HD
ENDROOT
BRANCH   1  11
HETATM   11  C   UNL     1     -43.297 -52.100  13.640  1.00  0.00     0.129 C 
BRANCH  11  12
HETATM   12  N   UNL     1     -44.511 -51.525  12.991  1.00  0.00    -0.218 NA
HETATM   13  H   UNL     1     -44.790 -50.667  13.476  1.00  0.00     0.139 HD
BRANCH  12  14
HETATM   14  S   UNL     1     -45.790 -52.631  12.906  1.00  0.00     0.205 S 
HETATM   15  C   UNL     1     -46.834 -51.898  11.668  1.00  0.00     0.179 C 
HETATM   16  O   UNL     1     -46.473 -52.563  14.177  1.00  0.00    -0.212 OA
HETATM   17  O   UNL     1     -45.255 -53.874  12.399  1.00  0.00    -0.212 OA
ENDBRANCH  12  14
ENDBRANCH  11  12
ENDBRANCH   1  11
BRANCH   9  18
HETATM   18  C   UNL     1     -41.040 -48.366  10.701  1.00  0.00     0.130 C 
BRANCH  18  19
HETATM   19  C   UNL     1     -42.154 -47.327  10.804  1.00  0.00     0.076 C 
BRANCH  19  20
HETATM   20  C   UNL     1     -43.223 -47.569   9.767  1.00  0.00     0.010 A 
HETATM   21  C   UNL     1     -44.574 -47.474  10.097  1.00  0.00     0.025 A 
HETATM   22  C   UNL     1     -45.528 -47.731   9.114  1.00  0.00     0.003 A 
HETATM   23  C   UNL     1     -45.113 -48.078   7.835  1.00  0.00     0.017 A 
HETATM   24  C   UNL     1     -43.754 -48.154   7.591  1.00  0.00     0.088 A 
HETATM   25  N   UNL     1     -42.805 -47.910   8.524  1.00  0.00    -0.369 N 
ATOM     26  HN  UNL     1     -41.812 -47.979   8.299  1.00  0.00     0.165 HD
ENDBRANCH  19  20
ENDBRANCH  18  19
ENDBRANCH   9  18
TORSDOF 6
ENDMDL
MODEL 4
REMARK VINA RESULT:      -6.2      1.996      2.500
REMARK  6 active torsions:
REMARK  status: ('A' for Active; 'I' for Inactive)
REMARK    1  A    between atoms: S_2  and  N_5 
REMARK    2  A    between atoms: N_5  and  C_6 
REMARK    3  A    between atoms: C_6  and  C_7 
REMARK       I    between atoms: N_12  and  C_13 
REMARK       I    between atoms: C_13  and  N_15 
REMARK    4  A    between atoms: N_15  and  C_16 
REMARK    5  A    between atoms: C_16  and  C_17 
REMARK    6  A    between atoms: C_17  and  C_18 
ROOT
HETATM    1  C   UNL     1     -40.041 -49.773  12.907  1.00  0.00     0.102 C 
HETATM    2  C   UNL     1     -39.406 -48.706  13.818  1.00  0.00     0.027 C 
HETATM    3  C   UNL     1     -37.879 -48.678  13.722  1.00  0.00     0.004 C 
HETATM    4  C   UNL     1     -37.292 -50.066  13.955  1.00  0.00     0.020 C 
HETATM    5  C   UNL     1     -37.942 -51.117  13.060  1.00  0.00     0.128 C 
HETATM    6  N   UNL     1     -39.405 -51.088  13.176  1.00  0.00    -0.328 N 
HETATM    7  C   UNL     1     -40.054 -52.291  13.400  1.00  0.00     0.318 C 
HETATM    8  O   UNL     1     -39.456 -53.365  13.438  1.00  0.00    -0.247 OA
HETATM    9  N   UNL     1     -41.414 -52.228  13.571  1.00  0.00    -0.343 N 
HETATM   10  H   UNL     1     -41.739 -51.402  14.045  1.00  0.00     0.164 HD
ENDROOT
BRANCH   1  11
HETATM   11  C   UNL     1     -39.949 -49.359  11.416  1.00  0.00     0.129 C 
BRANCH  11  12
HETATM   12  N   UNL     1     -41.293 -49.398  10.772  1.00  0.00    -0.218 NA
HETATM   13  H   UNL     1     -41.243 -49.925   9.895  1.00  0.00     0.139 HD
BRANCH  12  14
HETATM   14  S   UNL     1     -41.943 -47.853  10.528  1.00  0.00     0.205 S 
HETATM   15  C   UNL     1     -43.085 -47.712  11.883  1.00  0.00     0.179 C 
HETATM   16  O   UNL     1     -42.701 -47.920   9.299  1.00  0.00    -0.212 OA
HETATM   17  O   UNL     1     -40.873 -46.899  10.707  1.00  0.00    -0.212 OA
ENDBRANCH  12  14
ENDBRANCH  11  12
ENDBRANCH   1  11
BRANCH   9  18
HETATM   18  C   UNL     1     -42.134 -53.460  13.883  1.00  0.00     0.130 C 
BRANCH  18  19
HETATM   19  C   UNL     1     -43.287 -53.736  12.921  1.00  0.00     0.076 C 
BRANCH  19  20
HETATM   20  C   UNL     1     -44.494 -52.898  13.260  1.00  0.00     0.010 A 
HETATM   21  C   UNL     1     -44.748 -52.508  14.574  1.00  0.00     0.025 A 
HETATM   22  C   UNL     1     -45.889 -51.755  14.846  1.00  0.00     0.003 A 
HETATM   23  C   UNL     1     -46.745 -51.415  13.806  1.00  0.00     0.017 A 
HETATM   24  C   UNL     1     -46.422 -51.844  12.532  1.00  0.00     0.088 A 
HETATM   25  N   UNL     1     -45.323 -52.575  12.238  1.00  0.00    -0.369 N 
ATOM     26  HN  UNL     1     -45.125 -52.871  11.282  1.00  0.00     0.165 HD
ENDBRANCH  19  20
ENDBRANCH  18  19
ENDBRANCH   9  18
TORSDOF 6
ENDMDL
MODEL 5
REMARK VINA RESULT:      -6.1      2.351      2.650
REMARK  6 active torsions:
REMARK  status: ('A' for Active; 'I' for Inactive)
REMARK    1  A    between atoms: S_2  and  N_5 
REMARK    2  A    between atoms: N_5  and  C_6 
REMARK    3  A    between atoms: C_6  and  C_7 
REMARK       I    between atoms: N_12  and  C_13 
REMARK       I    between atoms: C_13  and  N_15 
REMARK    4  A    between atoms: N_15  and  C_16 
REMARK    5  A    between atoms: C_16  and  C_17 
REMARK    6  A    between atoms: C_17  and  C_18 
ROOT
HETATM    1  C   UNL     1     -40.147 -48.299  12.643  1.00  0.00     0.102 C 
HETATM    2  C   UNL     1     -40.164 -47.469  13.940  1.00  0.00     0.027 C 
HETATM    3  C   UNL     1     -38.772 -46.981  14.349  1.00  0.00     0.004 C 
HETATM    4  C   UNL     1     -37.785 -48.142  14.413  1.00  0.00     0.020 C 
HETATM    5  C   UNL     1     -37.791 -48.967  13.130  1.00  0.00     0.128 C 
HETATM    6  N   UNL     1     -39.150 -49.392  12.774  1.00  0.00    -0.328 N 
HETATM    7  C   UNL     1     -39.345 -50.731  12.478  1.00  0.00     0.318 C 
HETATM    8  O   UNL     1     -38.420 -51.540  12.443  1.00  0.00    -0.247 OA
HETATM    9  N   UNL     1     -40.636 -51.115  12.213  1.00  0.00    -0.343 N 
HETATM   10  H   UNL     1     -41.337 -50.624  12.744  1.00  0.00     0.164 HD
ENDROOT
BRANCH   1  11
HETATM   11  C   UNL     1     -39.888 -47.398  11.408  1.00  0.00     0.129 C 
BRANCH  11  12
HETATM   12  N   UNL     1     -41.047 -47.439  10.471  1.00  0.00    -0.218 NA
HETATM   13  H   UNL     1     -40.710 -47.529   9.508  1.00  0.00     0.139 HD
BRANCH  12  14
HETATM   14  S   UNL     1     -42.073 -46.103  10.645  1.00  0.00     0.205 S 
HETATM   15  C   UNL     1     -40.955 -44.849  11.228  1.00  0.00     0.179 C 
HETATM   16  O   UNL     1     -42.988 -46.429  11.715  1.00  0.00    -0.212 OA
HETATM   17  O   UNL     1     -42.544 -45.743   9.328  1.00  0.00    -0.212 OA
ENDBRANCH  12  14
ENDBRANCH  11  12
ENDBRANCH   1  11
BRANCH   9  18
HETATM   18  C   UNL     1     -40.905 -52.529  11.968  1.00  0.00     0.130 C 
BRANCH  18  19
HETATM   19  C   UNL     1     -41.062 -53.338  13.253  1.00  0.00     0.076 C 
BRANCH  19  20
HETATM   20  C   UNL     1     -42.479 -53.829  13.419  1.00  0.00     0.010 A 
HETATM   21  C   UNL     1     -42.841 -54.609  14.517  1.00  0.00     0.025 A 
HETATM   22  C   UNL     1     -44.155 -55.062  14.617  1.00  0.00     0.003 A 
HETATM   23  C   UNL     1     -45.069 -54.731  13.625  1.00  0.00     0.017 A 
HETATM   24  C   UNL     1     -44.627 -53.956  12.568  1.00  0.00     0.088 A 
HETATM   25  N   UNL     1     -43.360 -53.501  12.443  1.00  0.00    -0.369 N 
ATOM     26  HN  UNL     1     -43.077 -52.933  11.645  1.00  0.00     0.165 HD
ENDBRANCH  19  20
ENDBRANCH  18  19
ENDBRANCH   9  18
TORSDOF 6
ENDMDL
MODEL 6
REMARK VINA RESULT:      -6.0      3.644      6.775
REMARK  6 active torsions:
REMARK  status: ('A' for Active; 'I' for Inactive)
REMARK    1  A    between atoms: S_2  and  N_5 
REMARK    2  A    between atoms: N_5  and  C_6 
REMARK    3  A    between atoms: C_6  and  C_7 
REMARK       I    between atoms: N_12  and  C_13 
REMARK       I    between atoms: C_13  and  N_15 
REMARK    4  A    between atoms: N_15  and  C_16 
REMARK    5  A    between atoms: C_16  and  C_17 
REMARK    6  A    between atoms: C_17  and  C_18 
ROOT
HETATM    1  C   UNL     1     -41.554 -52.748  13.000  1.00  0.00     0.102 C 
HETATM    2  C   UNL     1     -41.020 -54.189  12.890  1.00  0.00     0.027 C 
HETATM    3  C   UNL     1     -40.129 -54.582  14.070  1.00  0.00     0.004 C 
HETATM    4  C   UNL     1     -39.014 -53.561  14.276  1.00  0.00     0.020 C 
HETATM    5  C   UNL     1     -39.554 -52.138  14.365  1.00  0.00     0.128 C 
HETATM    6  N   UNL     1     -40.415 -51.820  13.220  1.00  0.00    -0.328 N 
HETATM    7  C   UNL     1     -40.166 -50.639  12.539  1.00  0.00     0.318 C 
HETATM    8  O   UNL     1     -39.305 -49.840  12.900  1.00  0.00    -0.247 OA
HETATM    9  N   UNL     1     -40.942 -50.398  11.433  1.00  0.00    -0.343 N 
HETATM   10  H   UNL     1     -41.195 -51.220  10.910  1.00  0.00     0.164 HD
ENDROOT
BRANCH   1  11
HETATM   11  C   UNL     1     -42.637 -52.638  14.104  1.00  0.00     0.129 C 
BRANCH  11  12
HETATM   12  N   UNL     1     -43.632 -53.741  13.981  1.00  0.00    -0.218 NA
HETATM   13  H   UNL     1     -44.518 -53.371  13.624  1.00  0.00     0.139 HD
BRANCH  12  14
HETATM   14  S   UNL     1     -43.854 -54.583  15.434  1.00  0.00     0.205 S 
HETATM   15  C   UNL     1     -42.886 -53.620  16.573  1.00  0.00     0.179 C 
HETATM   16  O   UNL     1     -43.212 -55.866  15.262  1.00  0.00    -0.212 OA
HETATM   17  O   UNL     1     -45.250 -54.476  15.789  1.00  0.00    -0.212 OA
ENDBRANCH  12  14
ENDBRANCH  11  12
ENDBRANCH   1  11
BRANCH   9  18
HETATM   18  C   UNL     1     -40.669 -49.203  10.638  1.00  0.00     0.130 C 
BRANCH  18  19
HETATM   19  C   UNL     1     -41.521 -48.005  11.051  1.00  0.00     0.076 C 
BRANCH  19  20
HETATM   20  C   UNL     1     -42.703 -47.833  10.130  1.00  0.00     0.010 A 
HETATM   21  C   UNL     1     -43.977 -47.585  10.640  1.00  0.00     0.025 A 
HETATM   22  C   UNL     1     -45.045 -47.458   9.754  1.00  0.00     0.003 A 
HETATM   23  C   UNL     1     -44.818 -47.585   8.389  1.00  0.00     0.017 A 
HETATM   24  C   UNL     1     -43.525 -47.834   7.966  1.00  0.00     0.088 A 
HETATM   25  N   UNL     1     -42.469 -47.962   8.801  1.00  0.00    -0.369 N 
ATOM     26  HN  UNL     1     -41.532 -48.148   8.445  1.00  0.00     0.165 HD
ENDBRANCH  19  20
ENDBRANCH  18  19
ENDBRANCH   9  18
TORSDOF 6
ENDMDL
MODEL 7
REMARK VINA RESULT:      -6.0      3.421      6.571
REMARK  6 active torsions:
REMARK  status: ('A' for Active; 'I' for Inactive)
REMARK    1  A    between atoms: S_2  and  N_5 
REMARK    2  A    between atoms: N_5  and  C_6 
REMARK    3  A    between atoms: C_6  and  C_7 
REMARK       I    between atoms: N_12  and  C_13 
REMARK       I    between atoms: C_13  and  N_15 
REMARK    4  A    between atoms: N_15  and  C_16 
REMARK    5  A    between atoms: C_16  and  C_17 
REMARK    6  A    between atoms: C_17  and  C_18 
ROOT
HETATM    1  C   UNL     1     -38.953 -48.992  11.933  1.00  0.00     0.102 C 
HETATM    2  C   UNL     1     -37.666 -49.725  11.508  1.00  0.00     0.027 C 
HETATM    3  C   UNL     1     -37.377 -50.959  12.365  1.00  0.00     0.004 C 
HETATM    4  C   UNL     1     -37.383 -50.607  13.849  1.00  0.00     0.020 C 
HETATM    5  C   UNL     1     -38.653 -49.866  14.253  1.00  0.00     0.128 C 
HETATM    6  N   UNL     1     -38.893 -48.705  13.390  1.00  0.00    -0.328 N 
HETATM    7  C   UNL     1     -39.160 -47.493  14.005  1.00  0.00     0.318 C 
HETATM    8  O   UNL     1     -39.262 -47.382  15.225  1.00  0.00    -0.247 OA
HETATM    9  N   UNL     1     -39.315 -46.409  13.177  1.00  0.00    -0.343 N 
HETATM   10  H   UNL     1     -38.734 -46.422  12.356  1.00  0.00     0.164 HD
ENDROOT
BRANCH   1  11
HETATM   11  C   UNL     1     -40.213 -49.803  11.536  1.00  0.00     0.129 C 
BRANCH  11  12
HETATM   12  N   UNL     1     -40.819 -49.261  10.286  1.00  0.00    -0.218 NA
HETATM   13  H   UNL     1     -40.082 -49.043   9.609  1.00  0.00     0.139 HD
BRANCH  12  14
HETATM   14  S   UNL     1     -41.811 -47.919  10.574  1.00  0.00     0.205 S 
HETATM   15  C   UNL     1     -42.522 -48.313  12.155  1.00  0.00     0.179 C 
HETATM   16  O   UNL     1     -42.859 -47.967   9.579  1.00  0.00    -0.212 OA
HETATM   17  O   UNL     1     -40.953 -46.766  10.714  1.00  0.00    -0.212 OA
ENDBRANCH  12  14
ENDBRANCH  11  12
ENDBRANCH   1  11
BRANCH   9  18
HETATM   18  C   UNL     1     -39.524 -45.096  13.781  1.00  0.00     0.130 C 
BRANCH  18  19
HETATM   19  C   UNL     1     -39.171 -43.944  12.843  1.00  0.00     0.076 C 
BRANCH  19  20
HETATM   20  C   UNL     1     -40.410 -43.343  12.227  1.00  0.00     0.010 A 
HETATM   21  C   UNL     1     -40.469 -41.984  11.921  1.00  0.00     0.025 A 
HETATM   22  C   UNL     1     -41.643 -41.466  11.376  1.00  0.00     0.003 A 
HETATM   23  C   UNL     1     -42.724 -42.311  11.155  1.00  0.00     0.017 A 
HETATM   24  C   UNL     1     -42.583 -43.645  11.490  1.00  0.00     0.088 A 
HETATM   25  N   UNL     1     -41.458 -44.177  12.019  1.00  0.00    -0.369 N 
ATOM     26  HN  UNL     1     -41.400 -45.168  12.252  1.00  0.00     0.165 HD
ENDBRANCH  19  20
ENDBRANCH  18  19
ENDBRANCH   9  18
TORSDOF 6
ENDMDL
MODEL 8
REMARK VINA RESULT:      -6.0      2.710      3.734
REMARK  6 active torsions:
REMARK  status: ('A' for Active; 'I' for Inactive)
REMARK    1  A    between atoms: S_2  and  N_5 
REMARK    2  A    between atoms: N_5  and  C_6 
REMARK    3  A    between atoms: C_6  and  C_7 
REMARK       I    between atoms: N_12  and  C_13 
REMARK       I    between atoms: C_13  and  N_15 
REMARK    4  A    between atoms: N_15  and  C_16 
REMARK    5  A    between atoms: C_16  and  C_17 
REMARK    6  A    between atoms: C_17  and  C_18 
ROOT
HETATM    1  C   UNL     1     -40.179 -48.193  12.652  1.00  0.00     0.102 C 
HETATM    2  C   UNL     1     -40.136 -47.404  13.974  1.00  0.00     0.027 C 
HETATM    3  C   UNL     1     -38.714 -47.025  14.392  1.00  0.00     0.004 C 
HETATM    4  C   UNL     1     -37.807 -48.251  14.416  1.00  0.00     0.020 C 
HETATM    5  C   UNL     1     -37.872 -49.033  13.108  1.00  0.00     0.128 C 
HETATM    6  N   UNL     1     -39.257 -49.354  12.745  1.00  0.00    -0.328 N 
HETATM    7  C   UNL     1     -39.544 -50.667  12.409  1.00  0.00     0.318 C 
HETATM    8  O   UNL     1     -38.676 -51.536  12.345  1.00  0.00    -0.247 OA
HETATM    9  N   UNL     1     -40.858 -50.954  12.138  1.00  0.00    -0.343 N 
HETATM   10  H   UNL     1     -41.523 -50.435  12.686  1.00  0.00     0.164 HD
ENDROOT
BRANCH   1  11
HETATM   11  C   UNL     1     -39.861 -47.274  11.444  1.00  0.00     0.129 C 
BRANCH  11  12
HETATM   12  N   UNL     1     -41.017 -47.218  10.503  1.00  0.00    -0.218 NA
HETATM   13  H   UNL     1     -40.762 -47.661   9.616  1.00  0.00     0.139 HD
BRANCH  12  14
HETATM   14  S   UNL     1     -41.589 -45.642  10.267  1.00  0.00     0.205 S 
HETATM   15  C   UNL     1     -42.311 -45.268  11.848  1.00  0.00     0.179 C 
HETATM   16  O   UNL     1     -42.653 -45.738   9.293  1.00  0.00    -0.212 OA
HETATM   17  O   UNL     1     -40.442 -44.791  10.055  1.00  0.00    -0.212 OA
ENDBRANCH  12  14
ENDBRANCH  11  12
ENDBRANCH   1  11
BRANCH   9  18
HETATM   18  C   UNL     1     -41.223 -52.339  11.850  1.00  0.00     0.130 C 
BRANCH  18  19
HETATM   19  C   UNL     1     -42.027 -52.990  12.973  1.00  0.00     0.076 C 
BRANCH  19  20
HETATM   20  C   UNL     1     -41.137 -53.801  13.882  1.00  0.00     0.010 A 
HETATM   21  C   UNL     1     -41.571 -54.185  15.150  1.00  0.00     0.025 A 
HETATM   22  C   UNL     1     -40.706 -54.912  15.967  1.00  0.00     0.003 A 
HETATM   23  C   UNL     1     -39.436 -55.232  15.502  1.00  0.00     0.017 A 
HETATM   24  C   UNL     1     -39.084 -54.810  14.233  1.00  0.00     0.088 A 
HETATM   25  N   UNL     1     -39.901 -54.104  13.418  1.00  0.00    -0.369 N 
ATOM     26  HN  UNL     1     -39.597 -53.812  12.489  1.00  0.00     0.165 HD
ENDBRANCH  19  20
ENDBRANCH  18  19
ENDBRANCH   9  18
TORSDOF 6
ENDMDL
MODEL 9
REMARK VINA RESULT:      -5.9      3.579      7.405
REMARK  6 active torsions:
REMARK  status: ('A' for Active; 'I' for Inactive)
REMARK    1  A    between atoms: S_2  and  N_5 
REMARK    2  A    between atoms: N_5  and  C_6 
REMARK    3  A    between atoms: C_6  and  C_7 
REMARK       I    between atoms: N_12  and  C_13 
REMARK       I    between atoms: C_13  and  N_15 
REMARK    4  A    between atoms: N_15  and  C_16 
REMARK    5  A    between atoms: C_16  and  C_17 
REMARK    6  A    between atoms: C_17  and  C_18 
ROOT
HETATM    1  C   UNL     1     -44.136 -52.025  15.431  1.00  0.00     0.102 C 
HETATM    2  C   UNL     1     -45.104 -50.912  15.875  1.00  0.00     0.027 C 
HETATM    3  C   UNL     1     -46.572 -51.277  15.646  1.00  0.00     0.004 C 
HETATM    4  C   UNL     1     -46.807 -51.712  14.203  1.00  0.00     0.020 C 
HETATM    5  C   UNL     1     -45.831 -52.801  13.770  1.00  0.00     0.128 C 
HETATM    6  N   UNL     1     -44.441 -52.408  14.029  1.00  0.00    -0.328 N 
HETATM    7  C   UNL     1     -43.533 -52.546  12.992  1.00  0.00     0.318 C 
HETATM    8  O   UNL     1     -43.840 -53.038  11.908  1.00  0.00    -0.247 OA
HETATM    9  N   UNL     1     -42.255 -52.109  13.239  1.00  0.00    -0.343 N 
HETATM   10  H   UNL     1     -42.196 -51.301  13.836  1.00  0.00     0.164 HD
ENDROOT
BRANCH   1  11
HETATM   11  C   UNL     1     -44.189 -53.230  16.405  1.00  0.00     0.129 C 
BRANCH  11  12
HETATM   12  N   UNL     1     -42.823 -53.774  16.648  1.00  0.00    -0.218 NA
HETATM   13  H   UNL     1     -42.130 -53.025  16.562  1.00  0.00     0.139 HD
BRANCH  12  14
HETATM   14  S   UNL     1     -42.451 -55.080  15.636  1.00  0.00     0.205 S 
HETATM   15  C   UNL     1     -41.808 -56.272  16.787  1.00  0.00     0.179 C 
HETATM   16  O   UNL     1     -41.369 -54.640  14.784  1.00  0.00    -0.212 OA
HETATM   17  O   UNL     1     -43.694 -55.572  15.088  1.00  0.00    -0.212 OA
ENDBRANCH  12  14
ENDBRANCH  11  12
ENDBRANCH   1  11
BRANCH   9  18
HETATM   18  C   UNL     1     -41.279 -52.165  12.153  1.00  0.00     0.130 C 
BRANCH  18  19
HETATM   19  C   UNL     1     -40.053 -51.292  12.409  1.00  0.00     0.076 C 
BRANCH  19  20
HETATM   20  C   UNL     1     -40.279 -49.880  11.930  1.00  0.00     0.010 A 
HETATM   21  C   UNL     1     -39.479 -48.833  12.387  1.00  0.00     0.025 A 
HETATM   22  C   UNL     1     -39.740 -47.540  11.938  1.00  0.00     0.003 A 
HETATM   23  C   UNL     1     -40.788 -47.323  11.053  1.00  0.00     0.017 A 
HETATM   24  C   UNL     1     -41.535 -48.416  10.651  1.00  0.00     0.088 A 
HETATM   25  N   UNL     1     -41.306 -49.681  11.069  1.00  0.00    -0.369 N 
ATOM     26  HN  UNL     1     -41.884 -50.457  10.747  1.00  0.00     0.165 HD
ENDBRANCH  19  20
ENDBRANCH  18  19
ENDBRANCH   9  18
TORSDOF 6
ENDMDL
