MODEL 1
REMARK VINA RESULT:      -5.3      0.000      0.000
REMARK  4 active torsions:
REMARK  status: ('A' for Active; 'I' for Inactive)
REMARK    1  A    between atoms: C_7  and  N_10 
REMARK    2  A    between atoms: C_15  and  C_16 
REMARK    3  A    between atoms: C_16  and  C_17 
REMARK    4  A    between atoms: C_17  and  O_18 
ROOT
HETATM    1  N   UNL     1     -42.942 -52.616  13.155  1.00  0.00    -0.209 N 
HETATM    2  C   UNL     1     -42.096 -51.484  12.769  1.00  0.00     0.168 C 
HETATM    3  C   UNL     1     -40.960 -52.034  11.888  1.00  0.00     0.188 C 
HETATM    4  O   UNL     1     -40.205 -53.043  12.578  1.00  0.00    -0.387 OA
HETATM    5  C   UNL     1     -41.058 -54.134  12.980  1.00  0.00     0.193 C 
HETATM    6  C   UNL     1     -42.201 -53.651  13.916  1.00  0.00     0.128 C 
ENDROOT
BRANCH   1   7
HETATM    7  C   UNL     1     -44.250 -52.315  13.445  1.00  0.00     0.680 A 
HETATM    8  N   UNL     1     -44.596 -51.916  14.680  1.00  0.00    -0.202 N 
HETATM    9  C   UNL     1     -45.860 -51.492  14.855  1.00  0.00     0.108 A 
ATOM     10  HN  UNL     1     -43.928 -51.933  15.451  1.00  0.00     0.183 HD
HETATM   11  C   UNL     1     -46.789 -51.418  13.847  1.00  0.00     0.042 A 
HETATM   12  C   UNL     1     -46.350 -51.825  12.607  1.00  0.00     0.024 A 
HETATM   13  C   UNL     1     -47.236 -51.761  11.402  1.00  0.00     0.068 C 
HETATM   14  N   UNL     1     -45.104 -52.294  12.409  1.00  0.00    -0.196 N 
ATOM     15  HN  UNL     1     -44.815 -52.628  11.489  1.00  0.00     0.184 HD
ENDBRANCH   1   7
BRANCH   6  16
HETATM   16  C   UNL     1     -43.048 -54.822  14.441  1.00  0.00     0.054 C 
BRANCH  16  17
HETATM   17  C   UNL     1     -43.105 -54.889  15.965  1.00  0.00     0.166 C 
BRANCH  17  18
HETATM   18  O   UNL     1     -44.411 -54.557  16.423  1.00  0.00    -0.401 OA
HETATM   19  H   UNL     1     -44.574 -55.058  17.240  1.00  0.00     0.209 HD
ENDBRANCH  17  18
ENDBRANCH  16  17
ENDBRANCH   6  16
TORSDOF 4
ENDMDL
MODEL 2
REMARK VINA RESULT:      -5.3      1.848      3.789
REMARK  4 active torsions:
REMARK  status: ('A' for Active; 'I' for Inactive)
REMARK    1  A    between atoms: C_7  and  N_10 
REMARK    2  A    between atoms: C_15  and  C_16 
REMARK    3  A    between atoms: C_16  and  C_17 
REMARK    4  A    between atoms: C_17  and  O_18 
ROOT
HETATM    1  N   UNL     1     -42.479 -52.556  13.183  1.00  0.00    -0.209 N 
HETATM    2  C   UNL     1     -42.161 -53.984  13.233  1.00  0.00     0.168 C 
HETATM    3  C   UNL     1     -40.741 -54.122  13.809  1.00  0.00     0.188 C 
HETATM    4  O   UNL     1     -39.783 -53.398  13.018  1.00  0.00    -0.387 OA
HETATM    5  C   UNL     1     -40.129 -52.000  12.952  1.00  0.00     0.193 C 
HETATM    6  C   UNL     1     -41.538 -51.789  12.331  1.00  0.00     0.128 C 
ENDROOT
BRANCH   1   7
HETATM    7  C   UNL     1     -43.814 -52.237  13.241  1.00  0.00     0.680 A 
HETATM    8  N   UNL     1     -44.638 -52.585  12.239  1.00  0.00    -0.202 N 
HETATM    9  C   UNL     1     -45.953 -52.379  12.428  1.00  0.00     0.108 A 
ATOM     10  HN  UNL     1     -44.281 -52.989  11.373  1.00  0.00     0.183 HD
HETATM   11  C   UNL     1     -46.490 -51.869  13.584  1.00  0.00     0.042 A 
HETATM   12  C   UNL     1     -45.581 -51.558  14.570  1.00  0.00     0.024 A 
HETATM   13  C   UNL     1     -46.019 -51.033  15.902  1.00  0.00     0.068 C 
HETATM   14  N   UNL     1     -44.256 -51.712  14.396  1.00  0.00    -0.196 N 
ATOM     15  HN  UNL     1     -43.599 -51.436  15.127  1.00  0.00     0.184 HD
ENDBRANCH   1   7
BRANCH   6  16
HETATM   16  C   UNL     1     -41.871 -50.299  12.151  1.00  0.00     0.054 C 
BRANCH  16  17
HETATM   17  C   UNL     1     -40.741 -49.503  11.501  1.00  0.00     0.166 C 
BRANCH  17  18
HETATM   18  O   UNL     1     -40.536 -49.942  10.164  1.00  0.00    -0.401 OA
HETATM   19  H   UNL     1     -39.767 -50.537  10.163  1.00  0.00     0.209 HD
ENDBRANCH  17  18
ENDBRANCH  16  17
ENDBRANCH   6  16
TORSDOF 4
ENDMDL
MODEL 3
REMARK VINA RESULT:      -5.3      5.855      7.652
REMARK  4 active torsions:
REMARK  status: ('A' for Active; 'I' for Inactive)
REMARK    1  A    between atoms: C_7  and  N_10 
REMARK    2  A    between atoms: C_15  and  C_16 
REMARK    3  A    between atoms: C_16  and  C_17 
REMARK    4  A    between atoms: C_17  and  O_18 
ROOT
HETATM    1  N   UNL     1     -42.843 -46.777  10.371  1.00  0.00    -0.209 N 
HETATM    2  C   UNL     1     -42.034 -45.633  10.799  1.00  0.00     0.168 C 
HETATM    3  C   UNL     1     -42.949 -44.396  10.807  1.00  0.00     0.188 C 
HETATM    4  O   UNL     1     -43.535 -44.171   9.513  1.00  0.00    -0.387 OA
HETATM    5  C   UNL     1     -44.300 -45.318   9.093  1.00  0.00     0.193 C 
HETATM    6  C   UNL     1     -43.419 -46.596   9.017  1.00  0.00     0.128 C 
ENDROOT
BRANCH   1   7
HETATM    7  C   UNL     1     -42.419 -48.008  10.810  1.00  0.00     0.680 A 
HETATM    8  N   UNL     1     -41.242 -48.506  10.398  1.00  0.00    -0.202 N 
HETATM    9  C   UNL     1     -40.820 -49.641  10.982  1.00  0.00     0.108 A 
ATOM     10  HN  UNL     1     -40.693 -48.043   9.674  1.00  0.00     0.183 HD
HETATM   11  C   UNL     1     -41.503 -50.288  11.982  1.00  0.00     0.042 A 
HETATM   12  C   UNL     1     -42.689 -49.702  12.362  1.00  0.00     0.024 A 
HETATM   13  C   UNL     1     -43.523 -50.268  13.469  1.00  0.00     0.068 C 
HETATM   14  N   UNL     1     -43.160 -48.590  11.768  1.00  0.00    -0.196 N 
ATOM     15  HN  UNL     1     -44.061 -48.197  12.039  1.00  0.00     0.184 HD
ENDBRANCH   1   7
BRANCH   6  16
HETATM   16  C   UNL     1     -44.197 -47.800   8.461  1.00  0.00     0.054 C 
BRANCH  16  17
HETATM   17  C   UNL     1     -45.678 -47.786   8.835  1.00  0.00     0.166 C 
BRANCH  17  18
HETATM   18  O   UNL     1     -46.462 -48.285   7.758  1.00  0.00    -0.401 OA
HETATM   19  H   UNL     1     -46.236 -49.223   7.638  1.00  0.00     0.209 HD
ENDBRANCH  17  18
ENDBRANCH  16  17
ENDBRANCH   6  16
TORSDOF 4
ENDMDL
MODEL 4
REMARK VINA RESULT:      -4.8      1.768      2.769
REMARK  4 active torsions:
REMARK  status: ('A' for Active; 'I' for Inactive)
REMARK    1  A    between atoms: C_7  and  N_10 
REMARK    2  A    between atoms: C_15  and  C_16 
REMARK    3  A    between atoms: C_16  and  C_17 
REMARK    4  A    between atoms: C_17  and  O_18 
ROOT
HETATM    1  N   UNL     1     -42.815 -52.452  13.224  1.00  0.00    -0.209 N 
HETATM    2  C   UNL     1     -42.475 -53.853  12.965  1.00  0.00     0.168 C 
HETATM    3  C   UNL     1     -40.986 -54.038  13.306  1.00  0.00     0.188 C 
HETATM    4  O   UNL     1     -40.159 -53.146  12.540  1.00  0.00    -0.387 OA
HETATM    5  C   UNL     1     -40.529 -51.773  12.781  1.00  0.00     0.193 C 
HETATM    6  C   UNL     1     -42.014 -51.508  12.409  1.00  0.00     0.128 C 
ENDROOT
BRANCH   1   7
HETATM    7  C   UNL     1     -44.132 -52.201  13.522  1.00  0.00     0.680 A 
HETATM    8  N   UNL     1     -44.486 -51.820  14.760  1.00  0.00    -0.202 N 
HETATM    9  C   UNL     1     -45.765 -51.445  14.943  1.00  0.00     0.108 A 
ATOM     10  HN  UNL     1     -43.815 -51.815  15.528  1.00  0.00     0.183 HD
HETATM   11  C   UNL     1     -46.701 -51.401  13.940  1.00  0.00     0.042 A 
HETATM   12  C   UNL     1     -46.254 -51.787  12.697  1.00  0.00     0.024 A 
HETATM   13  C   UNL     1     -47.148 -51.752  11.497  1.00  0.00     0.068 C 
HETATM   14  N   UNL     1     -44.992 -52.209  12.490  1.00  0.00    -0.196 N 
ATOM     15  HN  UNL     1     -44.695 -52.528  11.568  1.00  0.00     0.184 HD
ENDBRANCH   1   7
BRANCH   6  16
HETATM   16  C   UNL     1     -42.387 -50.023  12.555  1.00  0.00     0.054 C 
BRANCH  16  17
HETATM   17  C   UNL     1     -41.746 -49.357  13.770  1.00  0.00     0.166 C 
BRANCH  17  18
HETATM   18  O   UNL     1     -42.687 -49.260  14.832  1.00  0.00    -0.401 OA
HETATM   19  H   UNL     1     -42.282 -48.730  15.539  1.00  0.00     0.209 HD
ENDBRANCH  17  18
ENDBRANCH  16  17
ENDBRANCH   6  16
TORSDOF 4
ENDMDL
MODEL 5
REMARK VINA RESULT:      -4.7      2.447      4.219
REMARK  4 active torsions:
REMARK  status: ('A' for Active; 'I' for Inactive)
REMARK    1  A    between atoms: C_7  and  N_10 
REMARK    2  A    between atoms: C_15  and  C_16 
REMARK    3  A    between atoms: C_16  and  C_17 
REMARK    4  A    between atoms: C_17  and  O_18 
ROOT
HETATM    1  N   UNL     1     -44.278 -51.700  13.337  1.00  0.00    -0.209 N 
HETATM    2  C   UNL     1     -45.669 -51.866  12.910  1.00  0.00     0.168 C 
HETATM    3  C   UNL     1     -46.151 -53.234  13.423  1.00  0.00     0.188 C 
HETATM    4  O   UNL     1     -45.319 -54.299  12.931  1.00  0.00    -0.387 OA
HETATM    5  C   UNL     1     -43.948 -54.103  13.332  1.00  0.00     0.193 C 
HETATM    6  C   UNL     1     -43.385 -52.756  12.801  1.00  0.00     0.128 C 
ENDROOT
BRANCH   1   7
HETATM    7  C   UNL     1     -43.847 -50.404  13.482  1.00  0.00     0.680 A 
HETATM    8  N   UNL     1     -43.520 -49.931  14.696  1.00  0.00    -0.202 N 
HETATM    9  C   UNL     1     -42.963 -48.708  14.747  1.00  0.00     0.108 A 
ATOM     10  HN  UNL     1     -43.687 -50.476  15.542  1.00  0.00     0.183 HD
HETATM   11  C   UNL     1     -42.687 -47.946  13.639  1.00  0.00     0.042 A 
HETATM   12  C   UNL     1     -43.032 -48.510  12.433  1.00  0.00     0.024 A 
HETATM   13  C   UNL     1     -42.755 -47.817  11.135  1.00  0.00     0.068 C 
HETATM   14  N   UNL     1     -43.631 -49.713  12.351  1.00  0.00    -0.196 N 
ATOM     15  HN  UNL     1     -43.914 -50.093  11.447  1.00  0.00     0.184 HD
ENDBRANCH   1   7
BRANCH   6  16
HETATM   16  C   UNL     1     -41.891 -52.588  13.125  1.00  0.00     0.054 C 
BRANCH  16  17
HETATM   17  C   UNL     1     -41.042 -52.254  11.901  1.00  0.00     0.166 C 
BRANCH  17  18
HETATM   18  O   UNL     1     -40.625 -53.449  11.251  1.00  0.00    -0.401 OA
HETATM   19  H   UNL     1     -39.923 -53.850  11.791  1.00  0.00     0.209 HD
ENDBRANCH  17  18
ENDBRANCH  16  17
ENDBRANCH   6  16
TORSDOF 4
ENDMDL
MODEL 6
REMARK VINA RESULT:      -4.6      2.412      3.274
REMARK  4 active torsions:
REMARK  status: ('A' for Active; 'I' for Inactive)
REMARK    1  A    between atoms: C_7  and  N_10 
REMARK    2  A    between atoms: C_15  and  C_16 
REMARK    3  A    between atoms: C_16  and  C_17 
REMARK    4  A    between atoms: C_17  and  O_18 
ROOT
HETATM    1  N   UNL     1     -43.011 -49.979  13.671  1.00  0.00    -0.209 N 
HETATM    2  C   UNL     1     -42.942 -48.597  14.152  1.00  0.00     0.168 C 
HETATM    3  C   UNL     1     -41.912 -47.855  13.284  1.00  0.00     0.188 C 
HETATM    4  O   UNL     1     -40.625 -48.494  13.336  1.00  0.00    -0.387 OA
HETATM    5  C   UNL     1     -40.717 -49.862  12.891  1.00  0.00     0.193 C 
HETATM    6  C   UNL     1     -41.709 -50.682  13.763  1.00  0.00     0.128 C 
ENDROOT
BRANCH   1   7
HETATM    7  C   UNL     1     -44.196 -50.634  13.900  1.00  0.00     0.680 A 
HETATM    8  N   UNL     1     -44.668 -50.765  15.150  1.00  0.00    -0.202 N 
HETATM    9  C   UNL     1     -45.902 -51.281  15.288  1.00  0.00     0.108 A 
ATOM     10  HN  UNL     1     -44.114 -50.485  15.960  1.00  0.00     0.183 HD
HETATM   11  C   UNL     1     -46.702 -51.645  14.234  1.00  0.00     0.042 A 
HETATM   12  C   UNL     1     -46.154 -51.460  12.985  1.00  0.00     0.024 A 
HETATM   13  C   UNL     1     -46.921 -51.772  11.738  1.00  0.00     0.068 C 
HETATM   14  N   UNL     1     -44.905 -50.987  12.815  1.00  0.00    -0.196 N 
ATOM     15  HN  UNL     1     -44.506 -50.896  11.880  1.00  0.00     0.184 HD
ENDBRANCH   1   7
BRANCH   6  16
HETATM   16  C   UNL     1     -41.729 -52.168  13.369  1.00  0.00     0.054 C 
BRANCH  16  17
HETATM   17  C   UNL     1     -40.698 -52.522  12.299  1.00  0.00     0.166 C 
BRANCH  17  18
HETATM   18  O   UNL     1     -41.336 -52.699  11.040  1.00  0.00    -0.401 OA
HETATM   19  H   UNL     1     -41.648 -51.828  10.742  1.00  0.00     0.209 HD
ENDBRANCH  17  18
ENDBRANCH  16  17
ENDBRANCH   6  16
TORSDOF 4
ENDMDL
MODEL 7
REMARK VINA RESULT:      -4.4      3.191      5.872
REMARK  4 active torsions:
REMARK  status: ('A' for Active; 'I' for Inactive)
REMARK    1  A    between atoms: C_7  and  N_10 
REMARK    2  A    between atoms: C_15  and  C_16 
REMARK    3  A    between atoms: C_16  and  C_17 
REMARK    4  A    between atoms: C_17  and  O_18 
ROOT
HETATM    1  N   UNL     1     -40.730 -52.338  13.683  1.00  0.00    -0.209 N 
HETATM    2  C   UNL     1     -42.070 -51.841  13.359  1.00  0.00     0.168 C 
HETATM    3  C   UNL     1     -43.050 -52.458  14.371  1.00  0.00     0.188 C 
HETATM    4  O   UNL     1     -43.001 -53.895  14.338  1.00  0.00    -0.387 OA
HETATM    5  C   UNL     1     -41.669 -54.367  14.626  1.00  0.00     0.193 C 
HETATM    6  C   UNL     1     -40.634 -53.816  13.606  1.00  0.00     0.128 C 
ENDROOT
BRANCH   1   7
HETATM    7  C   UNL     1     -39.685 -51.532  13.305  1.00  0.00     0.680 A 
HETATM    8  N   UNL     1     -39.566 -51.130  12.029  1.00  0.00    -0.202 N 
HETATM    9  C   UNL     1     -38.610 -50.223  11.759  1.00  0.00     0.108 A 
ATOM     10  HN  UNL     1     -40.174 -51.497  11.297  1.00  0.00     0.183 HD
HETATM   11  C   UNL     1     -37.786 -49.674  12.709  1.00  0.00     0.042 A 
HETATM   12  C   UNL     1     -37.986 -50.122  13.995  1.00  0.00     0.024 A 
HETATM   13  C   UNL     1     -37.192 -49.584  15.145  1.00  0.00     0.068 C 
HETATM   14  N   UNL     1     -38.904 -51.060  14.291  1.00  0.00    -0.196 N 
ATOM     15  HN  UNL     1     -39.006 -51.406  15.246  1.00  0.00     0.184 HD
ENDBRANCH   1   7
BRANCH   6  16
HETATM   16  C   UNL     1     -39.231 -54.402  13.836  1.00  0.00     0.054 C 
BRANCH  16  17
HETATM   17  C   UNL     1     -39.016 -54.911  15.259  1.00  0.00     0.166 C 
BRANCH  17  18
HETATM   18  O   UNL     1     -38.021 -55.928  15.273  1.00  0.00    -0.401 OA
HETATM   19  H   UNL     1     -38.076 -56.406  14.429  1.00  0.00     0.209 HD
ENDBRANCH  17  18
ENDBRANCH  16  17
ENDBRANCH   6  16
TORSDOF 4
ENDMDL
MODEL 8
REMARK VINA RESULT:      -4.3      5.472      7.592
REMARK  4 active torsions:
REMARK  status: ('A' for Active; 'I' for Inactive)
REMARK    1  A    between atoms: C_7  and  N_10 
REMARK    2  A    between atoms: C_15  and  C_16 
REMARK    3  A    between atoms: C_16  and  C_17 
REMARK    4  A    between atoms: C_17  and  O_18 
ROOT
HETATM    1  N   UNL     1     -40.443 -47.021  11.463  1.00  0.00    -0.209 N 
HETATM    2  C   UNL     1     -39.916 -45.868  10.728  1.00  0.00     0.168 C 
HETATM    3  C   UNL     1     -41.046 -44.829  10.625  1.00  0.00     0.188 C 
HETATM    4  O   UNL     1     -42.206 -45.379   9.979  1.00  0.00    -0.387 OA
HETATM    5  C   UNL     1     -42.692 -46.531  10.696  1.00  0.00     0.193 C 
HETATM    6  C   UNL     1     -41.610 -47.643  10.792  1.00  0.00     0.128 C 
ENDROOT
BRANCH   1   7
HETATM    7  C   UNL     1     -39.515 -47.779  12.133  1.00  0.00     0.680 A 
HETATM    8  N   UNL     1     -39.489 -47.788  13.476  1.00  0.00    -0.202 N 
HETATM    9  C   UNL     1     -38.658 -48.666  14.066  1.00  0.00     0.108 A 
ATOM     10  HN  UNL     1     -40.074 -47.157  14.023  1.00  0.00     0.183 HD
HETATM   11  C   UNL     1     -37.873 -49.558  13.379  1.00  0.00     0.042 A 
HETATM   12  C   UNL     1     -37.973 -49.499  12.008  1.00  0.00     0.024 A 
HETATM   13  C   UNL     1     -37.210 -50.438  11.126  1.00  0.00     0.068 C 
HETATM   14  N   UNL     1     -38.762 -48.604  11.386  1.00  0.00    -0.196 N 
ATOM     15  HN  UNL     1     -38.789 -48.553  10.367  1.00  0.00     0.184 HD
ENDBRANCH   1   7
BRANCH   6  16
HETATM   16  C   UNL     1     -42.154 -48.919  11.456  1.00  0.00     0.054 C 
BRANCH  16  17
HETATM   17  C   UNL     1     -43.121 -48.637  12.603  1.00  0.00     0.166 C 
BRANCH  17  18
HETATM   18  O   UNL     1     -42.431 -48.664  13.847  1.00  0.00    -0.401 OA
HETATM   19  H   UNL     1     -41.747 -49.353  13.791  1.00  0.00     0.209 HD
ENDBRANCH  17  18
ENDBRANCH  16  17
ENDBRANCH   6  16
TORSDOF 4
ENDMDL
MODEL 9
REMARK VINA RESULT:      -4.3      2.054      4.211
REMARK  4 active torsions:
REMARK  status: ('A' for Active; 'I' for Inactive)
REMARK    1  A    between atoms: C_7  and  N_10 
REMARK    2  A    between atoms: C_15  and  C_16 
REMARK    3  A    between atoms: C_16  and  C_17 
REMARK    4  A    between atoms: C_17  and  O_18 
ROOT
HETATM    1  N   UNL     1     -43.659 -52.790  13.875  1.00  0.00    -0.209 N 
HETATM    2  C   UNL     1     -43.088 -53.352  15.102  1.00  0.00     0.168 C 
HETATM    3  C   UNL     1     -43.107 -54.884  14.962  1.00  0.00     0.188 C 
HETATM    4  O   UNL     1     -44.439 -55.372  14.731  1.00  0.00    -0.387 OA
HETATM    5  C   UNL     1     -44.999 -54.785  13.539  1.00  0.00     0.193 C 
HETATM    6  C   UNL     1     -45.053 -53.235  13.637  1.00  0.00     0.128 C 
ENDROOT
BRANCH   1   7
HETATM    7  C   UNL     1     -43.246 -51.522  13.548  1.00  0.00     0.680 A 
HETATM    8  N   UNL     1     -43.705 -50.463  14.234  1.00  0.00    -0.202 N 
HETATM    9  C   UNL     1     -43.147 -49.269  13.964  1.00  0.00     0.108 A 
ATOM     10  HN  UNL     1     -44.445 -50.559  14.930  1.00  0.00     0.183 HD
HETATM   11  C   UNL     1     -42.128 -49.087  13.062  1.00  0.00     0.042 A 
HETATM   12  C   UNL     1     -41.700 -50.225  12.417  1.00  0.00     0.024 A 
HETATM   13  C   UNL     1     -40.569 -50.192  11.436  1.00  0.00     0.068 C 
HETATM   14  N   UNL     1     -42.268 -51.426  12.633  1.00  0.00    -0.196 N 
ATOM     15  HN  UNL     1     -41.960 -52.248  12.113  1.00  0.00     0.184 HD
ENDBRANCH   1   7
BRANCH   6  16
HETATM   16  C   UNL     1     -45.751 -52.605  12.420  1.00  0.00     0.054 C 
BRANCH  16  17
HETATM   17  C   UNL     1     -46.842 -51.606  12.800  1.00  0.00     0.166 C 
BRANCH  17  18
HETATM   18  O   UNL     1     -46.726 -51.250  14.173  1.00  0.00    -0.401 OA
HETATM   19  H   UNL     1     -46.071 -50.536  14.239  1.00  0.00     0.209 HD
ENDBRANCH  17  18
ENDBRANCH  16  17
ENDBRANCH   6  16
TORSDOF 4
ENDMDL
