MODEL 1
REMARK VINA RESULT:      -4.9      0.000      0.000
REMARK  4 active torsions:
REMARK  status: ('A' for Active; 'I' for Inactive)
REMARK    1  A    between atoms: C_2  and  N_3 
REMARK       I    between atoms: N_3  and  C_4 
REMARK    2  A    between atoms: C_4  and  C_6 
REMARK    3  A    between atoms: C_6  and  N_7 
REMARK    4  A    between atoms: C_10  and  N_11 
ROOT
HETATM    1  N   UNL     1     -43.083 -53.590  12.761  1.00  0.00    -0.293 N 
HETATM    2  C   UNL     1     -41.955 -53.997  13.414  1.00  0.00     0.114 A 
HETATM    3  C   UNL     1     -40.937 -53.213  12.925  1.00  0.00     0.068 A 
HETATM    4  C   UNL     1     -41.550 -52.378  11.970  1.00  0.00     0.114 A 
HETATM    5  N   UNL     1     -42.853 -52.609  11.865  1.00  0.00    -0.284 N 
ATOM      6  HN  UNL     1     -43.525 -52.151  11.249  1.00  0.00     0.188 HD
ENDROOT
BRANCH   1   7
HETATM    7  C   UNL     1     -44.417 -54.138  12.899  1.00  0.00     0.250 C 
BRANCH   7   8
HETATM    8  C   UNL     1     -45.457 -53.043  12.926  1.00  0.00     0.237 C 
HETATM    9  N   UNL     1     -45.680 -52.479  14.165  1.00  0.00    -0.360 N 
HETATM   10  H   UNL     1     -45.181 -52.834  14.972  1.00  0.00     0.162 HD
HETATM   11  O   UNL     1     -46.058 -52.693  11.913  1.00  0.00    -0.272 OA
BRANCH   9  12
HETATM   12  C   UNL     1     -46.686 -51.457  14.370  1.00  0.00     0.118 C 
HETATM   13  C   UNL     1     -47.174 -51.429  15.806  1.00  0.00     0.026 C 
ENDBRANCH   9  12
ENDBRANCH   7   8
ENDBRANCH   1   7
BRANCH   4  14
HETATM   14  N   UNL     1     -40.894 -51.469  11.242  1.00  0.00    -0.384 N 
HETATM   15  H   UNL     1     -41.191 -51.251  10.300  1.00  0.00     0.157 HD
HETATM   16  H   UNL     1     -40.509 -50.678  11.746  1.00  0.00     0.157 HD
ENDBRANCH   4  14
TORSDOF 4
ENDMDL
MODEL 2
REMARK VINA RESULT:      -4.9      5.499      6.354
REMARK  4 active torsions:
REMARK  status: ('A' for Active; 'I' for Inactive)
REMARK    1  A    between atoms: C_2  and  N_3 
REMARK       I    between atoms: N_3  and  C_4 
REMARK    2  A    between atoms: C_4  and  C_6 
REMARK    3  A    between atoms: C_6  and  N_7 
REMARK    4  A    between atoms: C_10  and  N_11 
ROOT
HETATM    1  N   UNL     1     -42.301 -47.269  10.604  1.00  0.00    -0.293 N 
HETATM    2  C   UNL     1     -42.187 -47.457  11.953  1.00  0.00     0.114 A 
HETATM    3  C   UNL     1     -41.428 -48.592  12.109  1.00  0.00     0.068 A 
HETATM    4  C   UNL     1     -41.147 -49.024  10.798  1.00  0.00     0.114 A 
HETATM    5  N   UNL     1     -41.682 -48.225   9.882  1.00  0.00    -0.284 N 
ATOM      6  HN  UNL     1     -41.635 -48.313   8.867  1.00  0.00     0.188 HD
ENDROOT
BRANCH   1   7
HETATM    7  C   UNL     1     -43.041 -46.224   9.927  1.00  0.00     0.250 C 
BRANCH   7   8
HETATM    8  C   UNL     1     -44.145 -46.802   9.074  1.00  0.00     0.237 C 
HETATM    9  N   UNL     1     -45.420 -46.633   9.575  1.00  0.00    -0.360 N 
HETATM   10  H   UNL     1     -45.548 -46.177  10.471  1.00  0.00     0.162 HD
HETATM   11  O   UNL     1     -43.912 -47.383   8.017  1.00  0.00    -0.272 OA
BRANCH   9  12
HETATM   12  C   UNL     1     -46.582 -47.178   8.905  1.00  0.00     0.118 C 
HETATM   13  C   UNL     1     -46.741 -48.663   9.174  1.00  0.00     0.026 C 
ENDBRANCH   9  12
ENDBRANCH   7   8
ENDBRANCH   1   7
BRANCH   4  14
HETATM   14  N   UNL     1     -40.440 -50.120  10.509  1.00  0.00    -0.384 N 
HETATM   15  H   UNL     1     -39.798 -50.128   9.727  1.00  0.00     0.157 HD
HETATM   16  H   UNL     1     -40.138 -50.684  11.295  1.00  0.00     0.157 HD
ENDBRANCH   4  14
TORSDOF 4
ENDMDL
MODEL 3
REMARK VINA RESULT:      -4.7      6.110      7.685
REMARK  4 active torsions:
REMARK  status: ('A' for Active; 'I' for Inactive)
REMARK    1  A    between atoms: C_2  and  N_3 
REMARK       I    between atoms: N_3  and  C_4 
REMARK    2  A    between atoms: C_4  and  C_6 
REMARK    3  A    between atoms: C_6  and  N_7 
REMARK    4  A    between atoms: C_10  and  N_11 
ROOT
HETATM    1  N   UNL     1     -42.352 -46.884   9.907  1.00  0.00    -0.293 N 
HETATM    2  C   UNL     1     -43.302 -45.907   9.818  1.00  0.00     0.114 A 
HETATM    3  C   UNL     1     -44.160 -46.309   8.822  1.00  0.00     0.068 A 
HETATM    4  C   UNL     1     -43.631 -47.531   8.361  1.00  0.00     0.114 A 
HETATM    5  N   UNL     1     -42.530 -47.880   9.015  1.00  0.00    -0.284 N 
ATOM      6  HN  UNL     1     -41.952 -48.708   8.876  1.00  0.00     0.188 HD
ENDROOT
BRANCH   1   7
HETATM    7  C   UNL     1     -41.202 -46.906  10.787  1.00  0.00     0.250 C 
BRANCH   7   8
HETATM    8  C   UNL     1     -40.841 -48.318  11.181  1.00  0.00     0.237 C 
HETATM    9  N   UNL     1     -39.490 -48.558  11.324  1.00  0.00    -0.360 N 
HETATM   10  H   UNL     1     -38.828 -47.815  11.134  1.00  0.00     0.162 HD
HETATM   11  O   UNL     1     -41.697 -49.183  11.352  1.00  0.00    -0.272 OA
BRANCH   9  12
HETATM   12  C   UNL     1     -38.977 -49.874  11.642  1.00  0.00     0.118 C 
HETATM   13  C   UNL     1     -37.502 -49.999  11.307  1.00  0.00     0.026 C 
ENDBRANCH   9  12
ENDBRANCH   7   8
ENDBRANCH   1   7
BRANCH   4  14
HETATM   14  N   UNL     1     -44.166 -48.248   7.368  1.00  0.00    -0.384 N 
HETATM   15  H   UNL     1     -44.259 -49.253   7.450  1.00  0.00     0.157 HD
HETATM   16  H   UNL     1     -44.913 -47.808   6.843  1.00  0.00     0.157 HD
ENDBRANCH   4  14
TORSDOF 4
ENDMDL
MODEL 4
REMARK VINA RESULT:      -4.7      5.832      7.530
REMARK  4 active torsions:
REMARK  status: ('A' for Active; 'I' for Inactive)
REMARK    1  A    between atoms: C_2  and  N_3 
REMARK       I    between atoms: N_3  and  C_4 
REMARK    2  A    between atoms: C_4  and  C_6 
REMARK    3  A    between atoms: C_6  and  N_7 
REMARK    4  A    between atoms: C_10  and  N_11 
ROOT
HETATM    1  N   UNL     1     -44.502 -47.635   8.587  1.00  0.00    -0.293 N 
HETATM    2  C   UNL     1     -45.701 -47.734   9.232  1.00  0.00     0.114 A 
HETATM    3  C   UNL     1     -46.512 -48.471   8.403  1.00  0.00     0.068 A 
HETATM    4  C   UNL     1     -45.716 -48.755   7.276  1.00  0.00     0.114 A 
HETATM    5  N   UNL     1     -44.495 -48.243   7.383  1.00  0.00    -0.284 N 
ATOM      6  HN  UNL     1     -43.730 -48.297   6.711  1.00  0.00     0.188 HD
ENDROOT
BRANCH   1   7
HETATM    7  C   UNL     1     -43.325 -46.919   9.035  1.00  0.00     0.250 C 
BRANCH   7   8
HETATM    8  C   UNL     1     -42.718 -47.574  10.253  1.00  0.00     0.237 C 
HETATM    9  N   UNL     1     -41.630 -48.383   9.999  1.00  0.00    -0.360 N 
HETATM   10  H   UNL     1     -41.322 -48.521   9.044  1.00  0.00     0.162 HD
HETATM   11  O   UNL     1     -43.172 -47.397  11.380  1.00  0.00    -0.272 OA
BRANCH   9  12
HETATM   12  C   UNL     1     -40.969 -49.129  11.051  1.00  0.00     0.118 C 
HETATM   13  C   UNL     1     -39.839 -48.334  11.678  1.00  0.00     0.026 C 
ENDBRANCH   9  12
ENDBRANCH   7   8
ENDBRANCH   1   7
BRANCH   4  14
HETATM   14  N   UNL     1     -46.143 -49.445   6.214  1.00  0.00    -0.384 N 
HETATM   15  H   UNL     1     -47.121 -49.685   6.115  1.00  0.00     0.157 HD
HETATM   16  H   UNL     1     -45.673 -49.259   5.335  1.00  0.00     0.157 HD
ENDBRANCH   4  14
TORSDOF 4
ENDMDL
MODEL 5
REMARK VINA RESULT:      -4.6      5.426      6.135
REMARK  4 active torsions:
REMARK  status: ('A' for Active; 'I' for Inactive)
REMARK    1  A    between atoms: C_2  and  N_3 
REMARK       I    between atoms: N_3  and  C_4 
REMARK    2  A    between atoms: C_4  and  C_6 
REMARK    3  A    between atoms: C_6  and  N_7 
REMARK    4  A    between atoms: C_10  and  N_11 
ROOT
HETATM    1  N   UNL     1     -40.262 -49.413  11.861  1.00  0.00    -0.293 N 
HETATM    2  C   UNL     1     -39.566 -49.446  13.035  1.00  0.00     0.114 A 
HETATM    3  C   UNL     1     -38.267 -49.738  12.692  1.00  0.00     0.068 A 
HETATM    4  C   UNL     1     -38.287 -49.880  11.291  1.00  0.00     0.114 A 
HETATM    5  N   UNL     1     -39.499 -49.689  10.784  1.00  0.00    -0.284 N 
ATOM      6  HN  UNL     1     -39.787 -49.739   9.807  1.00  0.00     0.188 HD
ENDROOT
BRANCH   1   7
HETATM    7  C   UNL     1     -41.683 -49.182  11.694  1.00  0.00     0.250 C 
BRANCH   7   8
HETATM    8  C   UNL     1     -41.943 -48.089  10.686  1.00  0.00     0.237 C 
HETATM    9  N   UNL     1     -43.120 -48.216   9.977  1.00  0.00    -0.360 N 
HETATM   10  H   UNL     1     -43.714 -49.023  10.135  1.00  0.00     0.162 HD
HETATM   11  O   UNL     1     -41.156 -47.162  10.514  1.00  0.00    -0.272 OA
BRANCH   9  12
HETATM   12  C   UNL     1     -43.489 -47.282   8.933  1.00  0.00     0.118 C 
HETATM   13  C   UNL     1     -43.437 -47.924   7.559  1.00  0.00     0.026 C 
ENDBRANCH   9  12
ENDBRANCH   7   8
ENDBRANCH   1   7
BRANCH   4  14
HETATM   14  N   UNL     1     -37.213 -50.189  10.557  1.00  0.00    -0.384 N 
HETATM   15  H   UNL     1     -36.390 -49.600  10.573  1.00  0.00     0.157 HD
HETATM   16  H   UNL     1     -37.011 -51.176  10.445  1.00  0.00     0.157 HD
ENDBRANCH   4  14
TORSDOF 4
ENDMDL
MODEL 6
REMARK VINA RESULT:      -4.5      6.373      7.203
REMARK  4 active torsions:
REMARK  status: ('A' for Active; 'I' for Inactive)
REMARK    1  A    between atoms: C_2  and  N_3 
REMARK       I    between atoms: N_3  and  C_4 
REMARK    2  A    between atoms: C_4  and  C_6 
REMARK    3  A    between atoms: C_6  and  N_7 
REMARK    4  A    between atoms: C_10  and  N_11 
ROOT
HETATM    1  N   UNL     1     -41.812 -46.707  11.031  1.00  0.00    -0.293 N 
HETATM    2  C   UNL     1     -41.386 -46.083  12.169  1.00  0.00     0.114 A 
HETATM    3  C   UNL     1     -40.319 -45.303  11.790  1.00  0.00     0.068 A 
HETATM    4  C   UNL     1     -40.170 -45.539  10.410  1.00  0.00     0.114 A 
HETATM    5  N   UNL     1     -41.072 -46.396   9.947  1.00  0.00    -0.284 N 
ATOM      6  HN  UNL     1     -41.181 -46.740   8.993  1.00  0.00     0.188 HD
ENDROOT
BRANCH   1   7
HETATM    7  C   UNL     1     -42.890 -47.667  10.913  1.00  0.00     0.250 C 
BRANCH   7   8
HETATM    8  C   UNL     1     -43.957 -47.176   9.964  1.00  0.00     0.237 C 
HETATM    9  N   UNL     1     -45.091 -47.959   9.905  1.00  0.00    -0.360 N 
HETATM   10  H   UNL     1     -45.140 -48.810  10.453  1.00  0.00     0.162 HD
HETATM   11  O   UNL     1     -43.812 -46.157   9.294  1.00  0.00    -0.272 OA
BRANCH   9  12
HETATM   12  C   UNL     1     -46.183 -47.657   9.002  1.00  0.00     0.118 C 
HETATM   13  C   UNL     1     -46.480 -48.819   8.072  1.00  0.00     0.026 C 
ENDBRANCH   9  12
ENDBRANCH   7   8
ENDBRANCH   1   7
BRANCH   4  14
HETATM   14  N   UNL     1     -39.219 -44.979   9.655  1.00  0.00    -0.384 N 
HETATM   15  H   UNL     1     -38.827 -44.079   9.903  1.00  0.00     0.157 HD
HETATM   16  H   UNL     1     -38.557 -45.610   9.218  1.00  0.00     0.157 HD
ENDBRANCH   4  14
TORSDOF 4
ENDMDL
MODEL 7
REMARK VINA RESULT:      -4.4      4.276      5.506
REMARK  4 active torsions:
REMARK  status: ('A' for Active; 'I' for Inactive)
REMARK    1  A    between atoms: C_2  and  N_3 
REMARK       I    between atoms: N_3  and  C_4 
REMARK    2  A    between atoms: C_4  and  C_6 
REMARK    3  A    between atoms: C_6  and  N_7 
REMARK    4  A    between atoms: C_10  and  N_11 
ROOT
HETATM    1  N   UNL     1     -40.581 -49.875  11.843  1.00  0.00    -0.293 N 
HETATM    2  C   UNL     1     -40.149 -50.202  13.097  1.00  0.00     0.114 A 
HETATM    3  C   UNL     1     -40.216 -51.574  13.168  1.00  0.00     0.068 A 
HETATM    4  C   UNL     1     -40.716 -51.977  11.915  1.00  0.00     0.114 A 
HETATM    5  N   UNL     1     -40.944 -50.947  11.110  1.00  0.00    -0.284 N 
ATOM      6  HN  UNL     1     -41.309 -50.962  10.158  1.00  0.00     0.188 HD
ENDROOT
BRANCH   1   7
HETATM    7  C   UNL     1     -40.731 -48.544  11.291  1.00  0.00     0.250 C 
BRANCH   7   8
HETATM    8  C   UNL     1     -42.137 -48.316  10.790  1.00  0.00     0.237 C 
HETATM    9  N   UNL     1     -42.230 -47.919   9.472  1.00  0.00    -0.360 N 
HETATM   10  H   UNL     1     -41.384 -47.772   8.933  1.00  0.00     0.162 HD
HETATM   11  O   UNL     1     -43.117 -48.470  11.513  1.00  0.00    -0.272 OA
BRANCH   9  12
HETATM   12  C   UNL     1     -43.502 -47.604   8.856  1.00  0.00     0.118 C 
HETATM   13  C   UNL     1     -43.763 -46.110   8.836  1.00  0.00     0.026 C 
ENDBRANCH   9  12
ENDBRANCH   7   8
ENDBRANCH   1   7
BRANCH   4  14
HETATM   14  N   UNL     1     -40.951 -53.250  11.580  1.00  0.00    -0.384 N 
HETATM   15  H   UNL     1     -41.703 -53.486  10.946  1.00  0.00     0.157 HD
HETATM   16  H   UNL     1     -40.140 -53.853  11.500  1.00  0.00     0.157 HD
ENDBRANCH   4  14
TORSDOF 4
ENDMDL
MODEL 8
REMARK VINA RESULT:      -4.3      2.232      2.889
REMARK  4 active torsions:
REMARK  status: ('A' for Active; 'I' for Inactive)
REMARK    1  A    between atoms: C_2  and  N_3 
REMARK       I    between atoms: N_3  and  C_4 
REMARK    2  A    between atoms: C_4  and  C_6 
REMARK    3  A    between atoms: C_6  and  N_7 
REMARK    4  A    between atoms: C_10  and  N_11 
ROOT
HETATM    1  N   UNL     1     -40.834 -52.444  12.591  1.00  0.00    -0.293 N 
HETATM    2  C   UNL     1     -39.965 -51.724  13.361  1.00  0.00     0.114 A 
HETATM    3  C   UNL     1     -39.649 -50.608  12.624  1.00  0.00     0.068 A 
HETATM    4  C   UNL     1     -40.365 -50.755  11.419  1.00  0.00     0.114 A 
HETATM    5  N   UNL     1     -41.081 -51.873  11.395  1.00  0.00    -0.284 N 
ATOM      6  HN  UNL     1     -41.680 -52.219  10.645  1.00  0.00     0.188 HD
ENDROOT
BRANCH   1   7
HETATM    7  C   UNL     1     -41.429 -53.725  12.911  1.00  0.00     0.250 C 
BRANCH   7   8
HETATM    8  C   UNL     1     -42.913 -53.594  13.153  1.00  0.00     0.237 C 
HETATM    9  N   UNL     1     -43.387 -54.271  14.258  1.00  0.00    -0.360 N 
HETATM   10  H   UNL     1     -42.749 -54.829  14.814  1.00  0.00     0.162 HD
HETATM   11  O   UNL     1     -43.637 -52.935  12.410  1.00  0.00    -0.272 OA
BRANCH   9  12
HETATM   12  C   UNL     1     -44.796 -54.293  14.595  1.00  0.00     0.118 C 
HETATM   13  C   UNL     1     -45.546 -55.352  13.809  1.00  0.00     0.026 C 
ENDBRANCH   9  12
ENDBRANCH   7   8
ENDBRANCH   1   7
BRANCH   4  14
HETATM   14  N   UNL     1     -40.316 -49.880  10.410  1.00  0.00    -0.384 N 
HETATM   15  H   UNL     1     -41.005 -49.907   9.670  1.00  0.00     0.157 HD
HETATM   16  H   UNL     1     -39.991 -48.946  10.636  1.00  0.00     0.157 HD
ENDBRANCH   4  14
TORSDOF 4
ENDMDL
MODEL 9
REMARK VINA RESULT:      -4.2      3.122      4.484
REMARK  4 active torsions:
REMARK  status: ('A' for Active; 'I' for Inactive)
REMARK    1  A    between atoms: C_2  and  N_3 
REMARK       I    between atoms: N_3  and  C_4 
REMARK    2  A    between atoms: C_4  and  C_6 
REMARK    3  A    between atoms: C_6  and  N_7 
REMARK    4  A    between atoms: C_10  and  N_11 
ROOT
HETATM    1  N   UNL     1     -39.976 -49.907  12.122  1.00  0.00    -0.293 N 
HETATM    2  C   UNL     1     -39.110 -49.560  13.121  1.00  0.00     0.114 A 
HETATM    3  C   UNL     1     -37.863 -49.541  12.543  1.00  0.00     0.068 A 
HETATM    4  C   UNL     1     -38.080 -49.906  11.200  1.00  0.00     0.114 A 
HETATM    5  N   UNL     1     -39.362 -50.135  10.944  1.00  0.00    -0.284 N 
ATOM      6  HN  UNL     1     -39.786 -50.417  10.060  1.00  0.00     0.188 HD
ENDROOT
BRANCH   1   7
HETATM    7  C   UNL     1     -41.407 -50.099  12.236  1.00  0.00     0.250 C 
BRANCH   7   8
HETATM    8  C   UNL     1     -41.765 -51.566  12.206  1.00  0.00     0.237 C 
HETATM    9  N   UNL     1     -43.102 -51.845  12.405  1.00  0.00    -0.360 N 
HETATM   10  H   UNL     1     -43.748 -51.087  12.589  1.00  0.00     0.162 HD
HETATM   11  O   UNL     1     -40.920 -52.437  12.022  1.00  0.00    -0.272 OA
BRANCH   9  12
HETATM   12  C   UNL     1     -43.598 -53.204  12.462  1.00  0.00     0.118 C 
HETATM   13  C   UNL     1     -45.064 -53.252  12.853  1.00  0.00     0.026 C 
ENDBRANCH   9  12
ENDBRANCH   7   8
ENDBRANCH   1   7
BRANCH   4  14
HETATM   14  N   UNL     1     -37.106 -50.027  10.293  1.00  0.00    -0.384 N 
HETATM   15  H   UNL     1     -36.303 -50.617  10.472  1.00  0.00     0.157 HD
HETATM   16  H   UNL     1     -37.389 -50.002   9.320  1.00  0.00     0.157 HD
ENDBRANCH   4  14
TORSDOF 4
ENDMDL
