MODEL 1
REMARK VINA RESULT:      -5.8      0.000      0.000
REMARK  4 active torsions:
REMARK  status: ('A' for Active; 'I' for Inactive)
REMARK    1  A    between atoms: O_2  and  C_3 
REMARK    2  A    between atoms: C_3  and  C_4 
REMARK    3  A    between atoms: C_4  and  N_5 
REMARK    4  A    between atoms: C_6  and  N_18 
ROOT
HETATM    1  N   UNL     1     -40.827 -47.735  12.100  1.00  0.00    -0.172 N 
HETATM    2  C   UNL     1     -40.569 -48.848  11.305  1.00  0.00     0.684 A 
HETATM    3  N   UNL     1     -41.320 -48.804  10.211  1.00  0.00    -0.174 N 
ATOM      4  HN  UNL     1     -41.378 -49.510   9.478  1.00  0.00     0.186 HD
HETATM    5  C   UNL     1     -41.996 -47.624  10.268  1.00  0.00     0.160 A 
HETATM    6  N   UNL     1     -42.911 -47.141   9.350  1.00  0.00    -0.287 N 
HETATM    7  C   UNL     1     -43.283 -47.863   8.155  1.00  0.00     0.163 C 
HETATM    8  C   UNL     1     -43.530 -45.919   9.598  1.00  0.00     0.330 A 
HETATM    9  O   UNL     1     -44.376 -45.416   8.858  1.00  0.00    -0.246 OA
HETATM   10  N   UNL     1     -43.160 -45.244  10.742  1.00  0.00    -0.273 N 
HETATM   11  C   UNL     1     -42.230 -45.641  11.670  1.00  0.00     0.280 A 
HETATM   12  O   UNL     1     -41.926 -44.933  12.627  1.00  0.00    -0.265 OA
HETATM   13  C   UNL     1     -41.676 -46.919  11.388  1.00  0.00     0.164 A 
HETATM   14  H   UNL     1     -43.610 -44.355  10.899  1.00  0.00     0.173 HD
ENDROOT
BRANCH   2  15
HETATM   15  N   UNL     1     -39.727 -49.864  11.642  1.00  0.00    -0.217 N 
HETATM   16  C   UNL     1     -38.283 -49.680  11.506  1.00  0.00     0.141 C 
HETATM   17  C   UNL     1     -37.652 -50.749  12.401  1.00  0.00     0.022 C 
HETATM   18  C   UNL     1     -38.754 -51.145  13.367  1.00  0.00     0.022 C 
HETATM   19  C   UNL     1     -40.027 -50.954  12.556  1.00  0.00     0.141 C 
ENDBRANCH   2  15
BRANCH   1  20
HETATM   20  C   UNL     1     -40.411 -47.481  13.467  1.00  0.00     0.174 C 
BRANCH  20  21
HETATM   21  C   UNL     1     -39.077 -46.746  13.591  1.00  0.00     0.187 C 
BRANCH  21  22
HETATM   22  O   UNL     1     -38.433 -47.093  14.817  1.00  0.00    -0.394 OA
HETATM   23  C   UNL     1     -37.160 -47.680  14.585  1.00  0.00     0.201 C 
ENDBRANCH  21  22
ENDBRANCH  20  21
ENDBRANCH   1  20
TORSDOF 4
ENDMDL
MODEL 2
REMARK VINA RESULT:      -5.7      2.087      2.751
REMARK  4 active torsions:
REMARK  status: ('A' for Active; 'I' for Inactive)
REMARK    1  A    between atoms: O_2  and  C_3 
REMARK    2  A    between atoms: C_3  and  C_4 
REMARK    3  A    between atoms: C_4  and  N_5 
REMARK    4  A    between atoms: C_6  and  N_18 
ROOT
HETATM    1  N   UNL     1     -40.630 -48.763  11.884  1.00  0.00    -0.172 N 
HETATM    2  C   UNL     1     -41.616 -49.743  11.964  1.00  0.00     0.684 A 
HETATM    3  N   UNL     1     -42.734 -49.303  11.401  1.00  0.00    -0.174 N 
ATOM      4  HN  UNL     1     -43.631 -49.787  11.359  1.00  0.00     0.186 HD
HETATM    5  C   UNL     1     -42.440 -48.077  10.889  1.00  0.00     0.160 A 
HETATM    6  N   UNL     1     -43.296 -47.224  10.216  1.00  0.00    -0.287 N 
HETATM    7  C   UNL     1     -44.682 -47.545   9.959  1.00  0.00     0.163 C 
HETATM    8  C   UNL     1     -42.819 -45.986   9.795  1.00  0.00     0.330 A 
HETATM    9  O   UNL     1     -43.508 -45.148   9.213  1.00  0.00    -0.246 OA
HETATM   10  N   UNL     1     -41.495 -45.701  10.048  1.00  0.00    -0.273 N 
HETATM   11  C   UNL     1     -40.579 -46.515  10.667  1.00  0.00     0.280 A 
HETATM   12  O   UNL     1     -39.400 -46.189  10.789  1.00  0.00    -0.265 OA
HETATM   13  C   UNL     1     -41.141 -47.738  11.122  1.00  0.00     0.164 A 
HETATM   14  H   UNL     1     -41.163 -44.805   9.725  1.00  0.00     0.173 HD
ENDROOT
BRANCH   2  15
HETATM   15  N   UNL     1     -41.469 -50.940  12.594  1.00  0.00    -0.217 N 
HETATM   16  C   UNL     1     -41.851 -51.069  13.999  1.00  0.00     0.141 C 
HETATM   17  C   UNL     1     -42.035 -52.570  14.234  1.00  0.00     0.022 C 
HETATM   18  C   UNL     1     -42.234 -53.157  12.848  1.00  0.00     0.022 C 
HETATM   19  C   UNL     1     -41.414 -52.243  11.951  1.00  0.00     0.141 C 
ENDBRANCH   2  15
BRANCH   1  20
HETATM   20  C   UNL     1     -39.342 -48.717  12.550  1.00  0.00     0.174 C 
BRANCH  20  21
HETATM   21  C   UNL     1     -38.208 -49.384  11.773  1.00  0.00     0.187 C 
BRANCH  21  22
HETATM   22  O   UNL     1     -38.213 -50.793  12.004  1.00  0.00    -0.394 OA
HETATM   23  C   UNL     1     -37.295 -51.152  13.028  1.00  0.00     0.201 C 
ENDBRANCH  21  22
ENDBRANCH  20  21
ENDBRANCH   1  20
TORSDOF 4
ENDMDL
MODEL 3
REMARK VINA RESULT:      -5.6      4.752      6.969
REMARK  4 active torsions:
REMARK  status: ('A' for Active; 'I' for Inactive)
REMARK    1  A    between atoms: O_2  and  C_3 
REMARK    2  A    between atoms: C_3  and  C_4 
REMARK    3  A    between atoms: C_4  and  N_5 
REMARK    4  A    between atoms: C_6  and  N_18 
ROOT
HETATM    1  N   UNL     1     -42.145 -52.397  13.944  1.00  0.00    -0.172 N 
HETATM    2  C   UNL     1     -43.209 -51.767  13.304  1.00  0.00     0.684 A 
HETATM    3  N   UNL     1     -42.751 -50.823  12.492  1.00  0.00    -0.174 N 
ATOM      4  HN  UNL     1     -43.303 -50.170  11.937  1.00  0.00     0.186 HD
HETATM    5  C   UNL     1     -41.393 -50.904  12.551  1.00  0.00     0.160 A 
HETATM    6  N   UNL     1     -40.479 -50.112  11.880  1.00  0.00    -0.287 N 
HETATM    7  C   UNL     1     -40.869 -49.045  10.987  1.00  0.00     0.163 C 
HETATM    8  C   UNL     1     -39.120 -50.325  12.095  1.00  0.00     0.330 A 
HETATM    9  O   UNL     1     -38.229 -49.658  11.568  1.00  0.00    -0.246 OA
HETATM   10  N   UNL     1     -38.768 -51.349  12.949  1.00  0.00    -0.273 N 
HETATM   11  C   UNL     1     -39.618 -52.200  13.610  1.00  0.00     0.280 A 
HETATM   12  O   UNL     1     -39.200 -53.125  14.302  1.00  0.00    -0.265 OA
HETATM   13  C   UNL     1     -40.989 -51.896  13.393  1.00  0.00     0.164 A 
HETATM   14  H   UNL     1     -37.780 -51.496  13.083  1.00  0.00     0.173 HD
ENDROOT
BRANCH   2  15
HETATM   15  N   UNL     1     -44.523 -52.034  13.539  1.00  0.00    -0.217 N 
HETATM   16  C   UNL     1     -45.256 -51.245  14.528  1.00  0.00     0.141 C 
HETATM   17  C   UNL     1     -46.736 -51.445  14.192  1.00  0.00     0.022 C 
HETATM   18  C   UNL     1     -46.744 -51.922  12.751  1.00  0.00     0.022 C 
HETATM   19  C   UNL     1     -45.438 -52.693  12.620  1.00  0.00     0.141 C 
ENDBRANCH   2  15
BRANCH   1  20
HETATM   20  C   UNL     1     -42.179 -53.320  15.063  1.00  0.00     0.174 C 
BRANCH  20  21
HETATM   21  C   UNL     1     -42.652 -54.728  14.703  1.00  0.00     0.187 C 
BRANCH  21  22
HETATM   22  O   UNL     1     -43.922 -54.991  15.300  1.00  0.00    -0.394 OA
HETATM   23  C   UNL     1     -44.112 -54.214  16.475  1.00  0.00     0.201 C 
ENDBRANCH  21  22
ENDBRANCH  20  21
ENDBRANCH   1  20
TORSDOF 4
ENDMDL
MODEL 4
REMARK VINA RESULT:      -5.6      5.294      8.278
REMARK  4 active torsions:
REMARK  status: ('A' for Active; 'I' for Inactive)
REMARK    1  A    between atoms: O_2  and  C_3 
REMARK    2  A    between atoms: C_3  and  C_4 
REMARK    3  A    between atoms: C_4  and  N_5 
REMARK    4  A    between atoms: C_6  and  N_18 
ROOT
HETATM    1  N   UNL     1     -41.811 -52.767  13.399  1.00  0.00    -0.172 N 
HETATM    2  C   UNL     1     -43.085 -52.929  13.935  1.00  0.00     0.684 A 
HETATM    3  N   UNL     1     -43.065 -53.872  14.868  1.00  0.00    -0.174 N 
ATOM      4  HN  UNL     1     -43.862 -54.235  15.390  1.00  0.00     0.186 HD
HETATM    5  C   UNL     1     -41.764 -54.255  14.986  1.00  0.00     0.160 A 
HETATM    6  N   UNL     1     -41.252 -55.223  15.830  1.00  0.00    -0.287 N 
HETATM    7  C   UNL     1     -42.074 -55.990  16.738  1.00  0.00     0.163 C 
HETATM    8  C   UNL     1     -39.888 -55.502  15.785  1.00  0.00     0.330 A 
HETATM    9  O   UNL     1     -39.340 -56.362  16.474  1.00  0.00    -0.246 OA
HETATM   10  N   UNL     1     -39.121 -54.759  14.913  1.00  0.00    -0.273 N 
HETATM   11  C   UNL     1     -39.554 -53.754  14.083  1.00  0.00     0.280 A 
HETATM   12  O   UNL     1     -38.774 -53.108  13.387  1.00  0.00    -0.265 OA
HETATM   13  C   UNL     1     -40.960 -53.557  14.136  1.00  0.00     0.164 A 
HETATM   14  H   UNL     1     -38.134 -54.965  14.902  1.00  0.00     0.173 HD
ENDROOT
BRANCH   2  15
HETATM   15  N   UNL     1     -44.196 -52.267  13.507  1.00  0.00    -0.217 N 
HETATM   16  C   UNL     1     -45.124 -52.931  12.593  1.00  0.00     0.141 C 
HETATM   17  C   UNL     1     -46.438 -52.155  12.716  1.00  0.00     0.022 C 
HETATM   18  C   UNL     1     -46.333 -51.422  14.041  1.00  0.00     0.022 C 
HETATM   19  C   UNL     1     -44.841 -51.155  14.184  1.00  0.00     0.141 C 
ENDBRANCH   2  15
BRANCH   1  20
HETATM   20  C   UNL     1     -41.411 -52.020  12.221  1.00  0.00     0.174 C 
BRANCH  20  21
HETATM   21  C   UNL     1     -41.123 -50.542  12.481  1.00  0.00     0.187 C 
BRANCH  21  22
HETATM   22  O   UNL     1     -40.363 -49.989  11.407  1.00  0.00    -0.394 OA
HETATM   23  C   UNL     1     -38.979 -49.934  11.727  1.00  0.00     0.201 C 
ENDBRANCH  21  22
ENDBRANCH  20  21
ENDBRANCH   1  20
TORSDOF 4
ENDMDL
MODEL 5
REMARK VINA RESULT:      -5.4      3.967      5.763
REMARK  4 active torsions:
REMARK  status: ('A' for Active; 'I' for Inactive)
REMARK    1  A    between atoms: O_2  and  C_3 
REMARK    2  A    between atoms: C_3  and  C_4 
REMARK    3  A    between atoms: C_4  and  N_5 
REMARK    4  A    between atoms: C_6  and  N_18 
ROOT
HETATM    1  N   UNL     1     -41.186 -50.824  12.340  1.00  0.00    -0.172 N 
HETATM    2  C   UNL     1     -42.035 -49.724  12.422  1.00  0.00     0.684 A 
HETATM    3  N   UNL     1     -43.288 -50.133  12.578  1.00  0.00    -0.174 N 
ATOM      4  HN  UNL     1     -44.123 -49.549  12.616  1.00  0.00     0.186 HD
HETATM    5  C   UNL     1     -43.231 -51.489  12.677  1.00  0.00     0.160 A 
HETATM    6  N   UNL     1     -44.292 -52.361  12.839  1.00  0.00    -0.287 N 
HETATM    7  C   UNL     1     -45.665 -51.919  12.927  1.00  0.00     0.163 C 
HETATM    8  C   UNL     1     -44.038 -53.729  12.887  1.00  0.00     0.330 A 
HETATM    9  O   UNL     1     -44.914 -54.586  13.001  1.00  0.00    -0.246 OA
HETATM   10  N   UNL     1     -42.722 -54.129  12.803  1.00  0.00    -0.273 N 
HETATM   11  C   UNL     1     -41.618 -53.320  12.688  1.00  0.00     0.280 A 
HETATM   12  O   UNL     1     -40.477 -53.777  12.684  1.00  0.00    -0.265 OA
HETATM   13  C   UNL     1     -41.949 -51.941  12.589  1.00  0.00     0.164 A 
HETATM   14  H   UNL     1     -42.555 -55.122  12.851  1.00  0.00     0.173 HD
ENDROOT
BRANCH   2  15
HETATM   15  N   UNL     1     -41.640 -48.428  12.286  1.00  0.00    -0.217 N 
HETATM   16  C   UNL     1     -41.108 -47.710  13.443  1.00  0.00     0.141 C 
HETATM   17  C   UNL     1     -40.328 -46.528  12.863  1.00  0.00     0.022 C 
HETATM   18  C   UNL     1     -40.045 -46.919  11.424  1.00  0.00     0.022 C 
HETATM   19  C   UNL     1     -41.239 -47.784  11.047  1.00  0.00     0.141 C 
ENDBRANCH   2  15
BRANCH   1  20
HETATM   20  C   UNL     1     -39.788 -50.863  11.953  1.00  0.00     0.174 C 
BRANCH  20  21
HETATM   21  C   UNL     1     -38.815 -50.511  13.078  1.00  0.00     0.187 C 
BRANCH  21  22
HETATM   22  O   UNL     1     -37.858 -49.555  12.622  1.00  0.00    -0.394 OA
HETATM   23  C   UNL     1     -37.453 -49.824  11.286  1.00  0.00     0.201 C 
ENDBRANCH  21  22
ENDBRANCH  20  21
ENDBRANCH   1  20
TORSDOF 4
ENDMDL
MODEL 6
REMARK VINA RESULT:      -5.4      3.931      5.462
REMARK  4 active torsions:
REMARK  status: ('A' for Active; 'I' for Inactive)
REMARK    1  A    between atoms: O_2  and  C_3 
REMARK    2  A    between atoms: C_3  and  C_4 
REMARK    3  A    between atoms: C_4  and  N_5 
REMARK    4  A    between atoms: C_6  and  N_18 
ROOT
HETATM    1  N   UNL     1     -41.949 -51.061  12.994  1.00  0.00    -0.172 N 
HETATM    2  C   UNL     1     -43.298 -50.717  13.002  1.00  0.00     0.684 A 
HETATM    3  N   UNL     1     -43.455 -49.498  12.504  1.00  0.00    -0.174 N 
ATOM      4  HN  UNL     1     -44.325 -48.970  12.436  1.00  0.00     0.186 HD
HETATM    5  C   UNL     1     -42.219 -49.095  12.102  1.00  0.00     0.160 A 
HETATM    6  N   UNL     1     -41.881 -47.883  11.527  1.00  0.00    -0.287 N 
HETATM    7  C   UNL     1     -42.846 -46.839  11.268  1.00  0.00     0.163 C 
HETATM    8  C   UNL     1     -40.547 -47.637  11.212  1.00  0.00     0.330 A 
HETATM    9  O   UNL     1     -40.141 -46.582  10.723  1.00  0.00    -0.246 OA
HETATM   10  N   UNL     1     -39.642 -48.646  11.464  1.00  0.00    -0.273 N 
HETATM   11  C   UNL     1     -39.914 -49.886  11.988  1.00  0.00     0.280 A 
HETATM   12  O   UNL     1     -39.040 -50.740  12.116  1.00  0.00    -0.265 OA
HETATM   13  C   UNL     1     -41.280 -50.053  12.339  1.00  0.00     0.164 A 
HETATM   14  H   UNL     1     -38.684 -48.455  11.218  1.00  0.00     0.173 HD
ENDROOT
BRANCH   2  15
HETATM   15  N   UNL     1     -44.292 -51.492  13.517  1.00  0.00    -0.217 N 
HETATM   16  C   UNL     1     -45.048 -51.022  14.677  1.00  0.00     0.141 C 
HETATM   17  C   UNL     1     -46.343 -51.838  14.676  1.00  0.00     0.022 C 
HETATM   18  C   UNL     1     -46.471 -52.359  13.256  1.00  0.00     0.022 C 
HETATM   19  C   UNL     1     -45.027 -52.523  12.803  1.00  0.00     0.141 C 
ENDBRANCH   2  15
BRANCH   1  20
HETATM   20  C   UNL     1     -41.296 -52.187  13.636  1.00  0.00     0.174 C 
BRANCH  20  21
HETATM   21  C   UNL     1     -41.199 -53.438  12.764  1.00  0.00     0.187 C 
BRANCH  21  22
HETATM   22  O   UNL     1     -40.300 -54.380  13.349  1.00  0.00    -0.394 OA
HETATM   23  C   UNL     1     -39.279 -53.727  14.092  1.00  0.00     0.201 C 
ENDBRANCH  21  22
ENDBRANCH  20  21
ENDBRANCH   1  20
TORSDOF 4
ENDMDL
MODEL 7
REMARK VINA RESULT:      -5.1      3.318      5.776
REMARK  4 active torsions:
REMARK  status: ('A' for Active; 'I' for Inactive)
REMARK    1  A    between atoms: O_2  and  C_3 
REMARK    2  A    between atoms: C_3  and  C_4 
REMARK    3  A    between atoms: C_4  and  N_5 
REMARK    4  A    between atoms: C_6  and  N_18 
ROOT
HETATM    1  N   UNL     1     -40.584 -50.274  12.121  1.00  0.00    -0.172 N 
HETATM    2  C   UNL     1     -41.694 -49.463  11.904  1.00  0.00     0.684 A 
HETATM    3  N   UNL     1     -42.803 -50.131  12.193  1.00  0.00    -0.174 N 
ATOM      4  HN  UNL     1     -43.762 -49.805  12.080  1.00  0.00     0.186 HD
HETATM    5  C   UNL     1     -42.399 -51.338  12.673  1.00  0.00     0.160 A 
HETATM    6  N   UNL     1     -43.204 -52.381  13.097  1.00  0.00    -0.287 N 
HETATM    7  C   UNL     1     -44.647 -52.315  13.083  1.00  0.00     0.163 C 
HETATM    8  C   UNL     1     -42.604 -53.562  13.526  1.00  0.00     0.330 A 
HETATM    9  O   UNL     1     -43.232 -54.554  13.897  1.00  0.00    -0.246 OA
HETATM   10  N   UNL     1     -41.226 -53.603  13.534  1.00  0.00    -0.273 N 
HETATM   11  C   UNL     1     -40.368 -52.595  13.172  1.00  0.00     0.280 A 
HETATM   12  O   UNL     1     -39.149 -52.713  13.276  1.00  0.00    -0.265 OA
HETATM   13  C   UNL     1     -41.041 -51.439  12.692  1.00  0.00     0.164 A 
HETATM   14  H   UNL     1     -40.809 -54.461  13.860  1.00  0.00     0.173 HD
ENDROOT
BRANCH   2  15
HETATM   15  N   UNL     1     -41.643 -48.200  11.397  1.00  0.00    -0.217 N 
HETATM   16  C   UNL     1     -42.227 -47.924  10.086  1.00  0.00     0.141 C 
HETATM   17  C   UNL     1     -42.448 -46.410  10.050  1.00  0.00     0.022 C 
HETATM   18  C   UNL     1     -42.444 -45.984  11.507  1.00  0.00     0.022 C 
HETATM   19  C   UNL     1     -41.499 -46.976  12.168  1.00  0.00     0.141 C 
ENDBRANCH   2  15
BRANCH   1  20
HETATM   20  C   UNL     1     -39.204 -50.045  11.734  1.00  0.00     0.174 C 
BRANCH  20  21
HETATM   21  C   UNL     1     -38.426 -49.138  12.686  1.00  0.00     0.187 C 
BRANCH  21  22
HETATM   22  O   UNL     1     -38.749 -49.452  14.042  1.00  0.00    -0.394 OA
HETATM   23  C   UNL     1     -37.586 -49.795  14.784  1.00  0.00     0.201 C 
ENDBRANCH  21  22
ENDBRANCH  20  21
ENDBRANCH   1  20
TORSDOF 4
ENDMDL
MODEL 8
REMARK VINA RESULT:      -4.9      2.426      4.202
REMARK  4 active torsions:
REMARK  status: ('A' for Active; 'I' for Inactive)
REMARK    1  A    between atoms: O_2  and  C_3 
REMARK    2  A    between atoms: C_3  and  C_4 
REMARK    3  A    between atoms: C_4  and  N_5 
REMARK    4  A    between atoms: C_6  and  N_18 
ROOT
HETATM    1  N   UNL     1     -39.596 -48.909  13.638  1.00  0.00    -0.172 N 
HETATM    2  C   UNL     1     -39.088 -47.631  13.856  1.00  0.00     0.684 A 
HETATM    3  N   UNL     1     -39.548 -46.800  12.929  1.00  0.00    -0.174 N 
ATOM      4  HN  UNL     1     -39.303 -45.817  12.811  1.00  0.00     0.186 HD
HETATM    5  C   UNL     1     -40.412 -47.526  12.169  1.00  0.00     0.160 A 
HETATM    6  N   UNL     1     -41.131 -47.089  11.071  1.00  0.00    -0.287 N 
HETATM    7  C   UNL     1     -41.051 -45.737  10.568  1.00  0.00     0.163 C 
HETATM    8  C   UNL     1     -41.944 -47.994  10.396  1.00  0.00     0.330 A 
HETATM    9  O   UNL     1     -42.602 -47.710   9.394  1.00  0.00    -0.246 OA
HETATM   10  N   UNL     1     -42.008 -49.278  10.893  1.00  0.00    -0.273 N 
HETATM   11  C   UNL     1     -41.360 -49.768  12.000  1.00  0.00     0.280 A 
HETATM   12  O   UNL     1     -41.535 -50.918  12.397  1.00  0.00    -0.265 OA
HETATM   13  C   UNL     1     -40.505 -48.812  12.611  1.00  0.00     0.164 A 
HETATM   14  H   UNL     1     -42.612 -49.917  10.398  1.00  0.00     0.173 HD
ENDROOT
BRANCH   2  15
HETATM   15  N   UNL     1     -38.195 -47.308  14.831  1.00  0.00    -0.217 N 
HETATM   16  C   UNL     1     -38.665 -47.088  16.198  1.00  0.00     0.141 C 
HETATM   17  C   UNL     1     -37.427 -47.246  17.084  1.00  0.00     0.022 C 
HETATM   18  C   UNL     1     -36.441 -48.028  16.236  1.00  0.00     0.022 C 
HETATM   19  C   UNL     1     -36.770 -47.596  14.814  1.00  0.00     0.141 C 
ENDBRANCH   2  15
BRANCH   1  20
HETATM   20  C   UNL     1     -39.198 -50.160  14.257  1.00  0.00     0.174 C 
BRANCH  20  21
HETATM   21  C   UNL     1     -38.063 -50.885  13.535  1.00  0.00     0.187 C 
BRANCH  21  22
HETATM   22  O   UNL     1     -38.428 -52.241  13.275  1.00  0.00    -0.394 OA
HETATM   23  C   UNL     1     -39.207 -52.778  14.336  1.00  0.00     0.201 C 
ENDBRANCH  21  22
ENDBRANCH  20  21
ENDBRANCH   1  20
TORSDOF 4
ENDMDL
MODEL 9
REMARK VINA RESULT:      -4.9      4.718      6.453
REMARK  4 active torsions:
REMARK  status: ('A' for Active; 'I' for Inactive)
REMARK    1  A    between atoms: O_2  and  C_3 
REMARK    2  A    between atoms: C_3  and  C_4 
REMARK    3  A    between atoms: C_4  and  N_5 
REMARK    4  A    between atoms: C_6  and  N_18 
ROOT
HETATM    1  N   UNL     1     -41.237 -52.186  13.409  1.00  0.00    -0.172 N 
HETATM    2  C   UNL     1     -41.813 -51.098  12.760  1.00  0.00     0.684 A 
HETATM    3  N   UNL     1     -43.097 -51.340  12.528  1.00  0.00    -0.174 N 
ATOM      4  HN  UNL     1     -43.752 -50.743  12.024  1.00  0.00     0.186 HD
HETATM    5  C   UNL     1     -43.360 -52.546  13.100  1.00  0.00     0.160 A 
HETATM    6  N   UNL     1     -44.568 -53.221  13.109  1.00  0.00    -0.287 N 
HETATM    7  C   UNL     1     -45.762 -52.705  12.480  1.00  0.00     0.163 C 
HETATM    8  C   UNL     1     -44.636 -54.470  13.720  1.00  0.00     0.330 A 
HETATM    9  O   UNL     1     -45.654 -55.161  13.759  1.00  0.00    -0.246 OA
HETATM   10  N   UNL     1     -43.487 -54.944  14.316  1.00  0.00    -0.273 N 
HETATM   11  C   UNL     1     -42.271 -54.310  14.386  1.00  0.00     0.280 A 
HETATM   12  O   UNL     1     -41.322 -54.794  14.998  1.00  0.00    -0.265 OA
HETATM   13  C   UNL     1     -42.252 -53.068  13.697  1.00  0.00     0.164 A 
HETATM   14  H   UNL     1     -43.558 -55.844  14.765  1.00  0.00     0.173 HD
ENDROOT
BRANCH   2  15
HETATM   15  N   UNL     1     -41.136 -49.987  12.359  1.00  0.00    -0.217 N 
HETATM   16  C   UNL     1     -40.993 -48.858  13.277  1.00  0.00     0.141 C 
HETATM   17  C   UNL     1     -39.815 -48.043  12.738  1.00  0.00     0.022 C 
HETATM   18  C   UNL     1     -39.050 -49.009  11.851  1.00  0.00     0.022 C 
HETATM   19  C   UNL     1     -40.132 -49.931  11.309  1.00  0.00     0.141 C 
ENDBRANCH   2  15
BRANCH   1  20
HETATM   20  C   UNL     1     -39.832 -52.454  13.657  1.00  0.00     0.174 C 
BRANCH  20  21
HETATM   21  C   UNL     1     -39.234 -51.653  14.813  1.00  0.00     0.187 C 
BRANCH  21  22
HETATM   22  O   UNL     1     -40.171 -51.560  15.887  1.00  0.00    -0.394 OA
HETATM   23  C   UNL     1     -39.766 -52.352  16.995  1.00  0.00     0.201 C 
ENDBRANCH  21  22
ENDBRANCH  20  21
ENDBRANCH   1  20
TORSDOF 4
ENDMDL
