MODEL 1
REMARK VINA RESULT:      -5.7      0.000      0.000
REMARK  6 active torsions:
REMARK  status: ('A' for Active; 'I' for Inactive)
REMARK    1  A    between atoms: C_2  and  CA_3 
REMARK    2  A    between atoms: CA_3  and  N_4 
REMARK    3  A    between atoms: CA_3  and  C_17 
REMARK       I    between atoms: N_4  and  C_5 
REMARK    4  A    between atoms: C_5  and  C_7 
REMARK    5  A    between atoms: C_7  and  N_10 
REMARK    6  A    between atoms: C_17  and  OXT_19 
ROOT
HETATM    1  N   UNL     1     -43.926 -48.051  10.560  1.00  0.00    -0.344 N 
HETATM    2  C   UNL     1     -43.110 -47.417  11.468  1.00  0.00     0.248 C 
HETATM    3  O   UNL     1     -42.879 -46.211  11.314  1.00  0.00    -0.271 OA
HETATM    4  H   UNL     1     -44.038 -49.058  10.594  1.00  0.00     0.163 HD
ENDROOT
BRANCH   2   5
HETATM    5  C   UNL     1     -42.464 -48.249  12.597  1.00  0.00     0.126 C 
HETATM    6  C   UNL     1     -42.869 -47.680  13.976  1.00  0.00     0.051 C 
HETATM    7  C   UNL     1     -43.041 -49.684  12.526  1.00  0.00     0.051 C 
BRANCH   5   8
HETATM    8  N   UNL     1     -41.004 -48.300  12.415  1.00  0.00    -0.283 N 
HETATM    9  C   UNL     1     -40.285 -49.233  11.710  1.00  0.00     0.137 A 
HETATM   10  C   UNL     1     -38.961 -48.962  11.950  1.00  0.00     0.068 A 
HETATM   11 CL   UNL     1     -37.599 -49.790  11.386  1.00  0.00    -0.081 Cl
HETATM   12  C   UNL     1     -38.966 -47.840  12.790  1.00  0.00     0.132 A 
HETATM   13  N   UNL     1     -40.206 -47.417  13.062  1.00  0.00    -0.307 N 
ATOM     14  HN  UNL     1     -40.486 -46.614  13.625  1.00  0.00     0.186 HD
ENDBRANCH   5   8
ENDBRANCH   2   5
BRANCH   1  15
HETATM   15  CA  UNL     1     -44.485 -47.345   9.393  1.00  0.00     0.182 C 
BRANCH  15  16
HETATM   16  C   UNL     1     -45.786 -47.994   8.900  1.00  0.00     0.032 C 
HETATM   17  C   UNL     1     -47.010 -47.118   9.111  1.00  0.00     0.007 C 
ENDBRANCH  15  16
BRANCH  15  18
HETATM   18  C   UNL     1     -43.458 -47.288   8.238  1.00  0.00     0.163 C 
HETATM   19  O   UNL     1     -43.328 -48.147   7.376  1.00  0.00    -0.648 OA
BRANCH  18  20
HETATM   20  OXT UNL     1     -42.722 -46.147   8.223  1.00  0.00    -0.775 OA
HETATM   21  HXT UNL     1     -41.997 -46.154   8.893  1.00  0.00     0.167 HD
ENDBRANCH  18  20
ENDBRANCH  15  18
ENDBRANCH   1  15
TORSDOF 6
ENDMDL
MODEL 2
REMARK VINA RESULT:      -5.5      6.255      8.187
REMARK  6 active torsions:
REMARK  status: ('A' for Active; 'I' for Inactive)
REMARK    1  A    between atoms: C_2  and  CA_3 
REMARK    2  A    between atoms: CA_3  and  N_4 
REMARK    3  A    between atoms: CA_3  and  C_17 
REMARK       I    between atoms: N_4  and  C_5 
REMARK    4  A    between atoms: C_5  and  C_7 
REMARK    5  A    between atoms: C_7  and  N_10 
REMARK    6  A    between atoms: C_17  and  OXT_19 
ROOT
HETATM    1  N   UNL     1     -42.949 -52.999  13.615  1.00  0.00    -0.344 N 
HETATM    2  C   UNL     1     -44.235 -53.211  13.177  1.00  0.00     0.248 C 
HETATM    3  O   UNL     1     -44.507 -54.293  12.642  1.00  0.00    -0.271 OA
HETATM    4  H   UNL     1     -42.671 -52.082  13.949  1.00  0.00     0.163 HD
ENDROOT
BRANCH   2   5
HETATM    5  C   UNL     1     -45.267 -52.069  13.311  1.00  0.00     0.126 C 
HETATM    6  C   UNL     1     -44.568 -50.700  13.156  1.00  0.00     0.051 C 
HETATM    7  C   UNL     1     -46.268 -52.188  12.136  1.00  0.00     0.051 C 
BRANCH   5   8
HETATM    8  N   UNL     1     -45.993 -52.192  14.585  1.00  0.00    -0.283 N 
HETATM    9  C   UNL     1     -46.944 -51.340  15.087  1.00  0.00     0.137 A 
HETATM   10  C   UNL     1     -47.220 -51.774  16.360  1.00  0.00     0.068 A 
HETATM   11 CL   UNL     1     -48.283 -51.107  17.492  1.00  0.00    -0.081 Cl
HETATM   12  C   UNL     1     -46.409 -52.903  16.542  1.00  0.00     0.132 A 
HETATM   13  N   UNL     1     -45.674 -53.178  15.458  1.00  0.00    -0.307 N 
ATOM     14  HN  UNL     1     -45.024 -53.952  15.320  1.00  0.00     0.186 HD
ENDBRANCH   5   8
ENDBRANCH   2   5
BRANCH   1  15
HETATM   15  CA  UNL     1     -41.886 -54.000  13.417  1.00  0.00     0.182 C 
BRANCH  15  16
HETATM   16  C   UNL     1     -41.429 -54.621  14.745  1.00  0.00     0.032 C 
HETATM   17  C   UNL     1     -42.546 -55.330  15.491  1.00  0.00     0.007 C 
ENDBRANCH  15  16
BRANCH  15  18
HETATM   18  C   UNL     1     -40.673 -53.380  12.683  1.00  0.00     0.163 C 
HETATM   19  O   UNL     1     -39.685 -52.916  13.237  1.00  0.00    -0.648 OA
BRANCH  18  20
HETATM   20  OXT UNL     1     -40.769 -53.442  11.331  1.00  0.00    -0.775 OA
HETATM   21  HXT UNL     1     -41.554 -53.958  11.029  1.00  0.00     0.167 HD
ENDBRANCH  18  20
ENDBRANCH  15  18
ENDBRANCH   1  15
TORSDOF 6
ENDMDL
MODEL 3
REMARK VINA RESULT:      -5.4      2.364      3.304
REMARK  6 active torsions:
REMARK  status: ('A' for Active; 'I' for Inactive)
REMARK    1  A    between atoms: C_2  and  CA_3 
REMARK    2  A    between atoms: CA_3  and  N_4 
REMARK    3  A    between atoms: CA_3  and  C_17 
REMARK       I    between atoms: N_4  and  C_5 
REMARK    4  A    between atoms: C_5  and  C_7 
REMARK    5  A    between atoms: C_7  and  N_10 
REMARK    6  A    between atoms: C_17  and  OXT_19 
ROOT
HETATM    1  N   UNL     1     -43.485 -48.170  10.411  1.00  0.00    -0.344 N 
HETATM    2  C   UNL     1     -42.441 -47.654  11.143  1.00  0.00     0.248 C 
HETATM    3  O   UNL     1     -42.155 -46.458  11.003  1.00  0.00    -0.271 OA
HETATM    4  H   UNL     1     -43.666 -49.168  10.418  1.00  0.00     0.163 HD
ENDROOT
BRANCH   2   5
HETATM    5  C   UNL     1     -41.631 -48.599  12.056  1.00  0.00     0.126 C 
HETATM    6  C   UNL     1     -40.431 -49.189  11.281  1.00  0.00     0.051 C 
HETATM    7  C   UNL     1     -41.039 -47.758  13.213  1.00  0.00     0.051 C 
BRANCH   5   8
HETATM    8  N   UNL     1     -42.511 -49.641  12.611  1.00  0.00    -0.283 N 
HETATM    9  C   UNL     1     -43.397 -49.515  13.652  1.00  0.00     0.137 A 
HETATM   10  C   UNL     1     -43.874 -50.776  13.909  1.00  0.00     0.068 A 
HETATM   11 CL   UNL     1     -44.967 -51.265  15.102  1.00  0.00    -0.081 Cl
HETATM   12  C   UNL     1     -43.241 -51.602  12.969  1.00  0.00     0.132 A 
HETATM   13  N   UNL     1     -42.426 -50.916  12.160  1.00  0.00    -0.307 N 
ATOM     14  HN  UNL     1     -41.869 -51.270  11.383  1.00  0.00     0.186 HD
ENDBRANCH   5   8
ENDBRANCH   2   5
BRANCH   1  15
HETATM   15  CA  UNL     1     -44.229 -47.353   9.435  1.00  0.00     0.182 C 
BRANCH  15  16
HETATM   16  C   UNL     1     -45.650 -47.887   9.206  1.00  0.00     0.032 C 
HETATM   17  C   UNL     1     -46.688 -46.787   9.065  1.00  0.00     0.007 C 
ENDBRANCH  15  16
BRANCH  15  18
HETATM   18  C   UNL     1     -43.473 -47.276   8.088  1.00  0.00     0.163 C 
HETATM   19  O   UNL     1     -43.509 -48.137   7.218  1.00  0.00    -0.648 OA
BRANCH  18  20
HETATM   20  OXT UNL     1     -42.786 -46.119   7.916  1.00  0.00    -0.775 OA
HETATM   21  HXT UNL     1     -42.676 -45.880   6.964  1.00  0.00     0.167 HD
ENDBRANCH  18  20
ENDBRANCH  15  18
ENDBRANCH   1  15
TORSDOF 6
ENDMDL
MODEL 4
REMARK VINA RESULT:      -5.4      3.795      5.768
REMARK  6 active torsions:
REMARK  status: ('A' for Active; 'I' for Inactive)
REMARK    1  A    between atoms: C_2  and  CA_3 
REMARK    2  A    between atoms: CA_3  and  N_4 
REMARK    3  A    between atoms: CA_3  and  C_17 
REMARK       I    between atoms: N_4  and  C_5 
REMARK    4  A    between atoms: C_5  and  C_7 
REMARK    5  A    between atoms: C_7  and  N_10 
REMARK    6  A    between atoms: C_17  and  OXT_19 
ROOT
HETATM    1  N   UNL     1     -42.093 -50.377  11.960  1.00  0.00    -0.344 N 
HETATM    2  C   UNL     1     -41.390 -49.419  11.267  1.00  0.00     0.248 C 
HETATM    3  O   UNL     1     -40.371 -49.760  10.654  1.00  0.00    -0.271 OA
HETATM    4  H   UNL     1     -42.861 -50.106  12.564  1.00  0.00     0.163 HD
ENDROOT
BRANCH   2   5
HETATM    5  C   UNL     1     -41.863 -47.950  11.338  1.00  0.00     0.126 C 
HETATM    6  C   UNL     1     -42.365 -47.621  12.762  1.00  0.00     0.051 C 
HETATM    7  C   UNL     1     -40.638 -47.040  11.081  1.00  0.00     0.051 C 
BRANCH   5   8
HETATM    8  N   UNL     1     -42.883 -47.698  10.308  1.00  0.00    -0.283 N 
HETATM    9  C   UNL     1     -44.199 -47.361  10.503  1.00  0.00     0.137 A 
HETATM   10  C   UNL     1     -44.791 -47.382   9.264  1.00  0.00     0.068 A 
HETATM   11 CL   UNL     1     -46.408 -47.087   8.867  1.00  0.00    -0.081 Cl
HETATM   12  C   UNL     1     -43.762 -47.720   8.375  1.00  0.00     0.132 A 
HETATM   13  N   UNL     1     -42.591 -47.894   8.999  1.00  0.00    -0.307 N 
ATOM     14  HN  UNL     1     -41.687 -48.120   8.585  1.00  0.00     0.186 HD
ENDBRANCH   5   8
ENDBRANCH   2   5
BRANCH   1  15
HETATM   15  CA  UNL     1     -41.636 -51.777  12.030  1.00  0.00     0.182 C 
BRANCH  15  16
HETATM   16  C   UNL     1     -42.764 -52.727  12.457  1.00  0.00     0.032 C 
HETATM   17  C   UNL     1     -43.914 -52.018  13.152  1.00  0.00     0.007 C 
ENDBRANCH  15  16
BRANCH  15  18
HETATM   18  C   UNL     1     -40.436 -51.919  12.996  1.00  0.00     0.163 C 
HETATM   19  O   UNL     1     -40.529 -52.050  14.209  1.00  0.00    -0.648 OA
BRANCH  18  20
HETATM   20  OXT UNL     1     -39.234 -51.941  12.368  1.00  0.00    -0.775 OA
HETATM   21  HXT UNL     1     -38.505 -51.581  12.929  1.00  0.00     0.167 HD
ENDBRANCH  18  20
ENDBRANCH  15  18
ENDBRANCH   1  15
TORSDOF 6
ENDMDL
MODEL 5
REMARK VINA RESULT:      -5.3      4.823      6.890
REMARK  6 active torsions:
REMARK  status: ('A' for Active; 'I' for Inactive)
REMARK    1  A    between atoms: C_2  and  CA_3 
REMARK    2  A    between atoms: CA_3  and  N_4 
REMARK    3  A    between atoms: CA_3  and  C_17 
REMARK       I    between atoms: N_4  and  C_5 
REMARK    4  A    between atoms: C_5  and  C_7 
REMARK    5  A    between atoms: C_7  and  N_10 
REMARK    6  A    between atoms: C_17  and  OXT_19 
ROOT
HETATM    1  N   UNL     1     -39.854 -51.285  13.249  1.00  0.00    -0.344 N 
HETATM    2  C   UNL     1     -40.629 -52.389  12.980  1.00  0.00     0.248 C 
HETATM    3  O   UNL     1     -40.531 -52.924  11.869  1.00  0.00    -0.271 OA
HETATM    4  H   UNL     1     -39.998 -50.758  14.104  1.00  0.00     0.163 HD
ENDROOT
BRANCH   2   5
HETATM    5  C   UNL     1     -41.633 -52.872  14.049  1.00  0.00     0.126 C 
HETATM    6  C   UNL     1     -41.338 -54.340  14.432  1.00  0.00     0.051 C 
HETATM    7  C   UNL     1     -41.414 -52.030  15.329  1.00  0.00     0.051 C 
BRANCH   5   8
HETATM    8  N   UNL     1     -43.012 -52.681  13.569  1.00  0.00    -0.283 N 
HETATM    9  C   UNL     1     -43.972 -51.858  14.102  1.00  0.00     0.137 A 
HETATM   10  C   UNL     1     -45.133 -52.127  13.420  1.00  0.00     0.068 A 
HETATM   11 CL   UNL     1     -46.667 -51.456  13.650  1.00  0.00    -0.081 Cl
HETATM   12  C   UNL     1     -44.784 -53.107  12.481  1.00  0.00     0.132 A 
HETATM   13  N   UNL     1     -43.488 -53.435  12.549  1.00  0.00    -0.307 N 
ATOM     14  HN  UNL     1     -42.978 -54.099  11.968  1.00  0.00     0.186 HD
ENDBRANCH   5   8
ENDBRANCH   2   5
BRANCH   1  15
HETATM   15  CA  UNL     1     -38.957 -50.700  12.236  1.00  0.00     0.182 C 
BRANCH  15  16
HETATM   16  C   UNL     1     -37.684 -50.118  12.865  1.00  0.00     0.032 C 
HETATM   17  C   UNL     1     -37.631 -50.283  14.375  1.00  0.00     0.007 C 
ENDBRANCH  15  16
BRANCH  15  18
HETATM   18  C   UNL     1     -39.685 -49.607  11.418  1.00  0.00     0.163 C 
HETATM   19  O   UNL     1     -39.640 -48.408  11.660  1.00  0.00    -0.648 OA
BRANCH  18  20
HETATM   20  OXT UNL     1     -40.358 -50.091  10.344  1.00  0.00    -0.775 OA
HETATM   21  HXT UNL     1     -39.764 -50.541   9.695  1.00  0.00     0.167 HD
ENDBRANCH  18  20
ENDBRANCH  15  18
ENDBRANCH   1  15
TORSDOF 6
ENDMDL
MODEL 6
REMARK VINA RESULT:      -5.2      5.270      6.637
REMARK  6 active torsions:
REMARK  status: ('A' for Active; 'I' for Inactive)
REMARK    1  A    between atoms: C_2  and  CA_3 
REMARK    2  A    between atoms: CA_3  and  N_4 
REMARK    3  A    between atoms: CA_3  and  C_17 
REMARK       I    between atoms: N_4  and  C_5 
REMARK    4  A    between atoms: C_5  and  C_7 
REMARK    5  A    between atoms: C_7  and  N_10 
REMARK    6  A    between atoms: C_17  and  OXT_19 
ROOT
HETATM    1  N   UNL     1     -44.300 -52.958  14.308  1.00  0.00    -0.344 N 
HETATM    2  C   UNL     1     -43.430 -53.101  13.253  1.00  0.00     0.248 C 
HETATM    3  O   UNL     1     -43.886 -53.432  12.151  1.00  0.00    -0.271 OA
HETATM    4  H   UNL     1     -43.943 -52.802  15.244  1.00  0.00     0.163 HD
ENDROOT
BRANCH   2   5
HETATM    5  C   UNL     1     -41.918 -52.909  13.502  1.00  0.00     0.126 C 
HETATM    6  C   UNL     1     -41.633 -52.841  15.019  1.00  0.00     0.051 C 
HETATM    7  C   UNL     1     -41.182 -54.163  12.970  1.00  0.00     0.051 C 
BRANCH   5   8
HETATM    8  N   UNL     1     -41.436 -51.718  12.782  1.00  0.00    -0.283 N 
HETATM    9  C   UNL     1     -40.155 -51.228  12.748  1.00  0.00     0.137 A 
HETATM   10  C   UNL     1     -40.218 -50.028  12.084  1.00  0.00     0.068 A 
HETATM   11 CL   UNL     1     -38.966 -48.938  11.760  1.00  0.00    -0.081 Cl
HETATM   12  C   UNL     1     -41.567 -49.877  11.735  1.00  0.00     0.132 A 
HETATM   13  N   UNL     1     -42.313 -50.912  12.137  1.00  0.00    -0.307 N 
ATOM     14  HN  UNL     1     -43.312 -51.060  11.991  1.00  0.00     0.186 HD
ENDBRANCH   5   8
ENDBRANCH   2   5
BRANCH   1  15
HETATM   15  CA  UNL     1     -45.741 -53.236  14.171  1.00  0.00     0.182 C 
BRANCH  15  16
HETATM   16  C   UNL     1     -46.596 -51.995  14.464  1.00  0.00     0.032 C 
HETATM   17  C   UNL     1     -46.002 -51.099  15.538  1.00  0.00     0.007 C 
ENDBRANCH  15  16
BRANCH  15  18
HETATM   18  C   UNL     1     -46.170 -54.400  15.096  1.00  0.00     0.163 C 
HETATM   19  O   UNL     1     -45.909 -54.474  16.289  1.00  0.00    -0.648 OA
BRANCH  18  20
HETATM   20  OXT UNL     1     -46.928 -55.337  14.473  1.00  0.00    -0.775 OA
HETATM   21  HXT UNL     1     -47.675 -55.656  15.035  1.00  0.00     0.167 HD
ENDBRANCH  18  20
ENDBRANCH  15  18
ENDBRANCH   1  15
TORSDOF 6
ENDMDL
MODEL 7
REMARK VINA RESULT:      -5.0      1.676      2.010
REMARK  6 active torsions:
REMARK  status: ('A' for Active; 'I' for Inactive)
REMARK    1  A    between atoms: C_2  and  CA_3 
REMARK    2  A    between atoms: CA_3  and  N_4 
REMARK    3  A    between atoms: CA_3  and  C_17 
REMARK       I    between atoms: N_4  and  C_5 
REMARK    4  A    between atoms: C_5  and  C_7 
REMARK    5  A    between atoms: C_7  and  N_10 
REMARK    6  A    between atoms: C_17  and  OXT_19 
ROOT
HETATM    1  N   UNL     1     -42.964 -48.070  10.275  1.00  0.00    -0.344 N 
HETATM    2  C   UNL     1     -42.600 -48.131  11.600  1.00  0.00     0.248 C 
HETATM    3  O   UNL     1     -43.194 -47.409  12.410  1.00  0.00    -0.271 OA
HETATM    4  H   UNL     1     -42.418 -48.561   9.575  1.00  0.00     0.163 HD
ENDROOT
BRANCH   2   5
HETATM    5  C   UNL     1     -41.424 -49.045  12.009  1.00  0.00     0.126 C 
HETATM    6  C   UNL     1     -41.924 -50.170  12.943  1.00  0.00     0.051 C 
HETATM    7  C   UNL     1     -40.889 -49.738  10.732  1.00  0.00     0.051 C 
BRANCH   5   8
HETATM    8  N   UNL     1     -40.349 -48.243  12.616  1.00  0.00    -0.283 N 
HETATM    9  C   UNL     1     -39.249 -48.703  13.295  1.00  0.00     0.137 A 
HETATM   10  C   UNL     1     -38.618 -47.595  13.804  1.00  0.00     0.068 A 
HETATM   11 CL   UNL     1     -37.227 -47.525  14.762  1.00  0.00    -0.081 Cl
HETATM   12  C   UNL     1     -39.389 -46.507  13.371  1.00  0.00     0.132 A 
HETATM   13  N   UNL     1     -40.433 -46.891  12.628  1.00  0.00    -0.307 N 
ATOM     14  HN  UNL     1     -41.131 -46.301  12.176  1.00  0.00     0.186 HD
ENDBRANCH   5   8
ENDBRANCH   2   5
BRANCH   1  15
HETATM   15  CA  UNL     1     -43.999 -47.137   9.796  1.00  0.00     0.182 C 
BRANCH  15  16
HETATM   16  C   UNL     1     -44.884 -47.770   8.713  1.00  0.00     0.032 C 
HETATM   17  C   UNL     1     -46.370 -47.662   9.014  1.00  0.00     0.007 C 
ENDBRANCH  15  16
BRANCH  15  18
HETATM   18  C   UNL     1     -43.362 -45.834   9.258  1.00  0.00     0.163 C 
HETATM   19  O   UNL     1     -43.979 -44.806   9.010  1.00  0.00    -0.648 OA
BRANCH  18  20
HETATM   20  OXT UNL     1     -42.014 -45.903   9.127  1.00  0.00    -0.775 OA
HETATM   21  HXT UNL     1     -41.603 -46.545   9.756  1.00  0.00     0.167 HD
ENDBRANCH  18  20
ENDBRANCH  15  18
ENDBRANCH   1  15
TORSDOF 6
ENDMDL
MODEL 8
REMARK VINA RESULT:      -4.9      3.330      4.611
REMARK  6 active torsions:
REMARK  status: ('A' for Active; 'I' for Inactive)
REMARK    1  A    between atoms: C_2  and  CA_3 
REMARK    2  A    between atoms: CA_3  and  N_4 
REMARK    3  A    between atoms: CA_3  and  C_17 
REMARK       I    between atoms: N_4  and  C_5 
REMARK    4  A    between atoms: C_5  and  C_7 
REMARK    5  A    between atoms: C_7  and  N_10 
REMARK    6  A    between atoms: C_17  and  OXT_19 
ROOT
HETATM    1  N   UNL     1     -39.992 -47.731  11.258  1.00  0.00    -0.344 N 
HETATM    2  C   UNL     1     -39.744 -48.389  12.440  1.00  0.00     0.248 C 
HETATM    3  O   UNL     1     -40.176 -47.899  13.491  1.00  0.00    -0.271 OA
HETATM    4  H   UNL     1     -39.553 -48.045  10.400  1.00  0.00     0.163 HD
ENDROOT
BRANCH   2   5
HETATM    5  C   UNL     1     -38.884 -49.671  12.414  1.00  0.00     0.126 C 
HETATM    6  C   UNL     1     -37.959 -49.666  11.175  1.00  0.00     0.051 C 
HETATM    7  C   UNL     1     -37.960 -49.654  13.655  1.00  0.00     0.051 C 
BRANCH   5   8
HETATM    8  N   UNL     1     -39.750 -50.860  12.467  1.00  0.00    -0.283 N 
HETATM    9  C   UNL     1     -39.707 -51.882  13.382  1.00  0.00     0.137 A 
HETATM   10  C   UNL     1     -40.594 -52.833  12.942  1.00  0.00     0.068 A 
HETATM   11 CL   UNL     1     -40.953 -54.335  13.630  1.00  0.00    -0.081 Cl
HETATM   12  C   UNL     1     -41.144 -52.301  11.767  1.00  0.00     0.132 A 
HETATM   13  N   UNL     1     -40.653 -51.090  11.482  1.00  0.00    -0.307 N 
ATOM     14  HN  UNL     1     -40.900 -50.480  10.703  1.00  0.00     0.186 HD
ENDBRANCH   5   8
ENDBRANCH   2   5
BRANCH   1  15
HETATM   15  CA  UNL     1     -40.708 -46.442  11.221  1.00  0.00     0.182 C 
BRANCH  15  16
HETATM   16  C   UNL     1     -41.941 -46.498  10.308  1.00  0.00     0.032 C 
HETATM   17  C   UNL     1     -42.340 -47.913   9.924  1.00  0.00     0.007 C 
ENDBRANCH  15  16
BRANCH  15  18
HETATM   18  C   UNL     1     -39.768 -45.301  10.766  1.00  0.00     0.163 C 
HETATM   19  O   UNL     1     -39.493 -44.314  11.436  1.00  0.00    -0.648 OA
BRANCH  18  20
HETATM   20  OXT UNL     1     -39.211 -45.511   9.546  1.00  0.00    -0.775 OA
HETATM   21  HXT UNL     1     -38.357 -45.029   9.431  1.00  0.00     0.167 HD
ENDBRANCH  18  20
ENDBRANCH  15  18
ENDBRANCH   1  15
TORSDOF 6
ENDMDL
MODEL 9
REMARK VINA RESULT:      -4.9      4.271      5.991
REMARK  6 active torsions:
REMARK  status: ('A' for Active; 'I' for Inactive)
REMARK    1  A    between atoms: C_2  and  CA_3 
REMARK    2  A    between atoms: CA_3  and  N_4 
REMARK    3  A    between atoms: CA_3  and  C_17 
REMARK       I    between atoms: N_4  and  C_5 
REMARK    4  A    between atoms: C_5  and  C_7 
REMARK    5  A    between atoms: C_7  and  N_10 
REMARK    6  A    between atoms: C_17  and  OXT_19 
ROOT
HETATM    1  N   UNL     1     -40.265 -51.104  13.390  1.00  0.00    -0.344 N 
HETATM    2  C   UNL     1     -39.977 -50.250  12.352  1.00  0.00     0.248 C 
HETATM    3  O   UNL     1     -40.650 -50.330  11.316  1.00  0.00    -0.271 OA
HETATM    4  H   UNL     1     -39.658 -51.141  14.202  1.00  0.00     0.163 HD
ENDROOT
BRANCH   2   5
HETATM    5  C   UNL     1     -38.787 -49.276  12.495  1.00  0.00     0.126 C 
HETATM    6  C   UNL     1     -38.142 -49.426  13.892  1.00  0.00     0.051 C 
HETATM    7  C   UNL     1     -37.707 -49.684  11.465  1.00  0.00     0.051 C 
BRANCH   5   8
HETATM    8  N   UNL     1     -39.227 -47.898  12.222  1.00  0.00    -0.283 N 
HETATM    9  C   UNL     1     -39.353 -46.870  13.121  1.00  0.00     0.137 A 
HETATM   10  C   UNL     1     -39.937 -45.830  12.441  1.00  0.00     0.068 A 
HETATM   11 CL   UNL     1     -40.378 -44.307  13.026  1.00  0.00    -0.081 Cl
HETATM   12  C   UNL     1     -40.112 -46.305  11.133  1.00  0.00     0.132 A 
HETATM   13  N   UNL     1     -39.662 -47.556  10.985  1.00  0.00    -0.307 N 
ATOM     14  HN  UNL     1     -39.650 -48.122  10.136  1.00  0.00     0.186 HD
ENDBRANCH   5   8
ENDBRANCH   2   5
BRANCH   1  15
HETATM   15  CA  UNL     1     -41.312 -52.136  13.280  1.00  0.00     0.182 C 
BRANCH  15  16
HETATM   16  C   UNL     1     -41.983 -52.419  14.632  1.00  0.00     0.032 C 
HETATM   17  C   UNL     1     -41.256 -51.785  15.806  1.00  0.00     0.007 C 
ENDBRANCH  15  16
BRANCH  15  18
HETATM   18  C   UNL     1     -40.737 -53.447  12.695  1.00  0.00     0.163 C 
HETATM   19  O   UNL     1     -40.424 -54.428  13.357  1.00  0.00    -0.648 OA
BRANCH  18  20
HETATM   20  OXT UNL     1     -40.653 -53.446  11.341  1.00  0.00    -0.775 OA
HETATM   21  HXT UNL     1     -41.457 -53.065  10.911  1.00  0.00     0.167 HD
ENDBRANCH  18  20
ENDBRANCH  15  18
ENDBRANCH   1  15
TORSDOF 6
ENDMDL
