MODEL 1
REMARK VINA RESULT:      -5.0      0.000      0.000
REMARK  4 active torsions:
REMARK  status: ('A' for Active; 'I' for Inactive)
REMARK    1  A    between atoms: O_1  and  C_2 
REMARK    2  A    between atoms: C_2  and  C_3 
REMARK    3  A    between atoms: C_3  and  N_4 
REMARK    4  A    between atoms: C_5  and  C_6 
ROOT
HETATM    1  N   UNL     1     -44.321 -53.249  13.070  1.00  0.00    -0.332 N 
HETATM    2  C   UNL     1     -44.841 -51.974  12.941  1.00  0.00     0.098 A 
HETATM    3  N   UNL     1     -43.869 -51.079  12.914  1.00  0.00    -0.343 N 
ATOM      4  HN  UNL     1     -43.971 -50.069  12.813  1.00  0.00     0.167 HD
HETATM    5  C   UNL     1     -42.701 -51.777  13.046  1.00  0.00     0.062 A 
HETATM    6  C   UNL     1     -41.390 -51.289  13.120  1.00  0.00     0.055 A 
HETATM    7  C   UNL     1     -40.353 -52.210  13.273  1.00  0.00     0.036 A 
HETATM    8 CL   UNL     1     -38.731 -51.638  13.384  1.00  0.00    -0.084 Cl
HETATM    9  C   UNL     1     -40.604 -53.581  13.345  1.00  0.00     0.026 A 
HETATM   10  C   UNL     1     -41.913 -54.081  13.277  1.00  0.00     0.034 A 
HETATM   11  C   UNL     1     -42.945 -53.145  13.133  1.00  0.00     0.062 A 
ENDROOT
BRANCH   1  12
HETATM   12  C   UNL     1     -45.065 -54.481  13.243  1.00  0.00     0.156 C 
BRANCH  12  13
HETATM   13  C   UNL     1     -45.621 -54.683  14.648  1.00  0.00     0.184 C 
BRANCH  13  14
HETATM   14  O   UNL     1     -46.901 -55.304  14.556  1.00  0.00    -0.399 OA
HETATM   15  H   UNL     1     -47.398 -54.839  13.859  1.00  0.00     0.209 HD
ENDBRANCH  13  14
ENDBRANCH  12  13
ENDBRANCH   1  12
BRANCH   2  16
HETATM   16  C   UNL     1     -46.291 -51.620  12.927  1.00  0.00     0.191 C 
HETATM   17 CL   UNL     1     -46.923 -51.303  14.552  1.00  0.00    -0.122 Cl
ENDBRANCH   2  16
TORSDOF 4
ENDMDL
MODEL 2
REMARK VINA RESULT:      -4.9      6.138      7.420
REMARK  4 active torsions:
REMARK  status: ('A' for Active; 'I' for Inactive)
REMARK    1  A    between atoms: O_1  and  C_2 
REMARK    2  A    between atoms: C_2  and  C_3 
REMARK    3  A    between atoms: C_3  and  N_4 
REMARK    4  A    between atoms: C_5  and  C_6 
ROOT
HETATM    1  N   UNL     1     -41.401 -46.593  10.867  1.00  0.00    -0.332 N 
HETATM    2  C   UNL     1     -42.232 -47.290  10.010  1.00  0.00     0.098 A 
HETATM    3  N   UNL     1     -42.028 -48.590  10.125  1.00  0.00    -0.343 N 
ATOM      4  HN  UNL     1     -42.512 -49.333   9.620  1.00  0.00     0.167 HD
HETATM    5  C   UNL     1     -41.037 -48.743  11.055  1.00  0.00     0.062 A 
HETATM    6  C   UNL     1     -40.426 -49.921  11.502  1.00  0.00     0.055 A 
HETATM    7  C   UNL     1     -39.415 -49.816  12.458  1.00  0.00     0.036 A 
HETATM    8 CL   UNL     1     -38.634 -51.247  13.016  1.00  0.00    -0.084 Cl
HETATM    9  C   UNL     1     -39.020 -48.576  12.965  1.00  0.00     0.026 A 
HETATM   10  C   UNL     1     -39.622 -47.390  12.521  1.00  0.00     0.034 A 
HETATM   11  C   UNL     1     -40.629 -47.510  11.555  1.00  0.00     0.062 A 
ENDROOT
BRANCH   1  12
HETATM   12  C   UNL     1     -41.252 -45.153  10.959  1.00  0.00     0.156 C 
BRANCH  12  13
HETATM   13  C   UNL     1     -39.887 -44.638  10.516  1.00  0.00     0.184 C 
BRANCH  13  14
HETATM   14  O   UNL     1     -39.721 -44.900   9.125  1.00  0.00    -0.399 OA
HETATM   15  H   UNL     1     -39.014 -45.565   9.038  1.00  0.00     0.209 HD
ENDBRANCH  13  14
ENDBRANCH  12  13
ENDBRANCH   1  12
BRANCH   2  16
HETATM   16  C   UNL     1     -43.168 -46.685   9.018  1.00  0.00     0.191 C 
HETATM   17 CL   UNL     1     -43.573 -47.803   7.704  1.00  0.00    -0.122 Cl
ENDBRANCH   2  16
TORSDOF 4
ENDMDL
MODEL 3
REMARK VINA RESULT:      -4.8      6.682      8.870
REMARK  4 active torsions:
REMARK  status: ('A' for Active; 'I' for Inactive)
REMARK    1  A    between atoms: O_1  and  C_2 
REMARK    2  A    between atoms: C_2  and  C_3 
REMARK    3  A    between atoms: C_3  and  N_4 
REMARK    4  A    between atoms: C_5  and  C_6 
ROOT
HETATM    1  N   UNL     1     -41.243 -46.408  10.420  1.00  0.00    -0.332 N 
HETATM    2  C   UNL     1     -41.073 -47.578  11.137  1.00  0.00     0.098 A 
HETATM    3  N   UNL     1     -42.187 -48.290  11.130  1.00  0.00    -0.343 N 
ATOM      4  HN  UNL     1     -42.335 -49.198  11.570  1.00  0.00     0.167 HD
HETATM    5  C   UNL     1     -43.101 -47.566  10.416  1.00  0.00     0.062 A 
HETATM    6  C   UNL     1     -44.445 -47.861  10.155  1.00  0.00     0.055 A 
HETATM    7  C   UNL     1     -45.186 -46.947   9.406  1.00  0.00     0.036 A 
HETATM    8 CL   UNL     1     -46.847 -47.275   9.083  1.00  0.00    -0.084 Cl
HETATM    9  C   UNL     1     -44.612 -45.770   8.922  1.00  0.00     0.026 A 
HETATM   10  C   UNL     1     -43.269 -45.461   9.181  1.00  0.00     0.034 A 
HETATM   11  C   UNL     1     -42.539 -46.384   9.942  1.00  0.00     0.062 A 
ENDROOT
BRANCH   1  12
HETATM   12  C   UNL     1     -40.292 -45.321  10.286  1.00  0.00     0.156 C 
BRANCH  12  13
HETATM   13  C   UNL     1     -40.537 -44.157  11.238  1.00  0.00     0.184 C 
BRANCH  13  14
HETATM   14  O   UNL     1     -40.623 -42.950  10.484  1.00  0.00    -0.399 OA
HETATM   15  H   UNL     1     -41.124 -42.310  11.021  1.00  0.00     0.209 HD
ENDBRANCH  13  14
ENDBRANCH  12  13
ENDBRANCH   1  12
BRANCH   2  16
HETATM   16  C   UNL     1     -39.850 -47.965  11.899  1.00  0.00     0.191 C 
HETATM   17 CL   UNL     1     -39.372 -49.645  11.598  1.00  0.00    -0.122 Cl
ENDBRANCH   2  16
TORSDOF 4
ENDMDL
MODEL 4
REMARK VINA RESULT:      -4.8      3.063      5.109
REMARK  4 active torsions:
REMARK  status: ('A' for Active; 'I' for Inactive)
REMARK    1  A    between atoms: O_1  and  C_2 
REMARK    2  A    between atoms: C_2  and  C_3 
REMARK    3  A    between atoms: C_3  and  N_4 
REMARK    4  A    between atoms: C_5  and  C_6 
ROOT
HETATM    1  N   UNL     1     -40.953 -52.473  13.579  1.00  0.00    -0.332 N 
HETATM    2  C   UNL     1     -41.194 -51.895  12.346  1.00  0.00     0.098 A 
HETATM    3  N   UNL     1     -42.362 -52.289  11.871  1.00  0.00    -0.343 N 
ATOM      4  HN  UNL     1     -42.791 -52.006  10.990  1.00  0.00     0.167 HD
HETATM    5  C   UNL     1     -42.883 -53.149  12.798  1.00  0.00     0.062 A 
HETATM    6  C   UNL     1     -44.081 -53.873  12.748  1.00  0.00     0.055 A 
HETATM    7  C   UNL     1     -44.390 -54.708  13.822  1.00  0.00     0.036 A 
HETATM    8 CL   UNL     1     -45.849 -55.624  13.782  1.00  0.00    -0.084 Cl
HETATM    9  C   UNL     1     -43.538 -54.823  14.922  1.00  0.00     0.026 A 
HETATM   10  C   UNL     1     -42.334 -54.106  14.980  1.00  0.00     0.034 A 
HETATM   11  C   UNL     1     -42.032 -53.279  13.891  1.00  0.00     0.062 A 
ENDROOT
BRANCH   1  12
HETATM   12  C   UNL     1     -39.741 -52.374  14.368  1.00  0.00     0.156 C 
BRANCH  12  13
HETATM   13  C   UNL     1     -39.034 -53.705  14.596  1.00  0.00     0.184 C 
BRANCH  13  14
HETATM   14  O   UNL     1     -38.670 -54.260  13.335  1.00  0.00    -0.399 OA
HETATM   15  H   UNL     1     -38.343 -53.528  12.781  1.00  0.00     0.209 HD
ENDBRANCH  13  14
ENDBRANCH  12  13
ENDBRANCH   1  12
BRANCH   2  16
HETATM   16  C   UNL     1     -40.247 -51.023  11.592  1.00  0.00     0.191 C 
HETATM   17 CL   UNL     1     -40.768 -49.329  11.562  1.00  0.00    -0.122 Cl
ENDBRANCH   2  16
TORSDOF 4
ENDMDL
MODEL 5
REMARK VINA RESULT:      -4.8      4.523      6.599
REMARK  4 active torsions:
REMARK  status: ('A' for Active; 'I' for Inactive)
REMARK    1  A    between atoms: O_1  and  C_2 
REMARK    2  A    between atoms: C_2  and  C_3 
REMARK    3  A    between atoms: C_3  and  N_4 
REMARK    4  A    between atoms: C_5  and  C_6 
ROOT
HETATM    1  N   UNL     1     -40.548 -49.959  12.240  1.00  0.00    -0.332 N 
HETATM    2  C   UNL     1     -39.276 -49.576  11.858  1.00  0.00     0.098 A 
HETATM    3  N   UNL     1     -39.308 -48.399  11.259  1.00  0.00    -0.343 N 
ATOM      4  HN  UNL     1     -38.512 -47.878  10.891  1.00  0.00     0.167 HD
HETATM    5  C   UNL     1     -40.621 -48.017  11.232  1.00  0.00     0.062 A 
HETATM    6  C   UNL     1     -41.190 -46.869  10.667  1.00  0.00     0.055 A 
HETATM    7  C   UNL     1     -42.573 -46.710  10.754  1.00  0.00     0.036 A 
HETATM    8 CL   UNL     1     -43.304 -45.315  10.053  1.00  0.00    -0.084 Cl
HETATM    9  C   UNL     1     -43.375 -47.660  11.389  1.00  0.00     0.026 A 
HETATM   10  C   UNL     1     -42.817 -48.815  11.955  1.00  0.00     0.034 A 
HETATM   11  C   UNL     1     -41.428 -48.967  11.852  1.00  0.00     0.062 A 
ENDROOT
BRANCH   1  12
HETATM   12  C   UNL     1     -40.940 -51.227  12.826  1.00  0.00     0.156 C 
BRANCH  12  13
HETATM   13  C   UNL     1     -41.525 -52.220  11.830  1.00  0.00     0.184 C 
BRANCH  13  14
HETATM   14  O   UNL     1     -40.540 -53.202  11.518  1.00  0.00    -0.399 OA
HETATM   15  H   UNL     1     -39.717 -52.937  11.967  1.00  0.00     0.209 HD
ENDBRANCH  13  14
ENDBRANCH  12  13
ENDBRANCH   1  12
BRANCH   2  16
HETATM   16  C   UNL     1     -38.037 -50.395  12.005  1.00  0.00     0.191 C 
HETATM   17 CL   UNL     1     -36.926 -50.187  10.640  1.00  0.00    -0.122 Cl
ENDBRANCH   2  16
TORSDOF 4
ENDMDL
MODEL 6
REMARK VINA RESULT:      -4.6      2.823      4.410
REMARK  4 active torsions:
REMARK  status: ('A' for Active; 'I' for Inactive)
REMARK    1  A    between atoms: O_1  and  C_2 
REMARK    2  A    between atoms: C_2  and  C_3 
REMARK    3  A    between atoms: C_3  and  N_4 
REMARK    4  A    between atoms: C_5  and  C_6 
ROOT
HETATM    1  N   UNL     1     -42.332 -52.007  13.056  1.00  0.00    -0.332 N 
HETATM    2  C   UNL     1     -41.179 -52.656  12.656  1.00  0.00     0.098 A 
HETATM    3  N   UNL     1     -40.393 -51.831  11.987  1.00  0.00    -0.343 N 
ATOM      4  HN  UNL     1     -39.478 -52.045  11.590  1.00  0.00     0.167 HD
HETATM    5  C   UNL     1     -41.050 -50.633  11.933  1.00  0.00     0.062 A 
HETATM    6  C   UNL     1     -40.663 -49.446  11.298  1.00  0.00     0.055 A 
HETATM    7  C   UNL     1     -41.522 -48.349  11.372  1.00  0.00     0.036 A 
HETATM    8 CL   UNL     1     -41.080 -46.881  10.587  1.00  0.00    -0.084 Cl
HETATM    9  C   UNL     1     -42.734 -48.421  12.061  1.00  0.00     0.026 A 
HETATM   10  C   UNL     1     -43.135 -49.606  12.697  1.00  0.00     0.034 A 
HETATM   11  C   UNL     1     -42.266 -50.701  12.607  1.00  0.00     0.062 A 
ENDROOT
BRANCH   1  12
HETATM   12  C   UNL     1     -43.481 -52.596  13.717  1.00  0.00     0.156 C 
BRANCH  12  13
HETATM   13  C   UNL     1     -44.616 -52.977  12.773  1.00  0.00     0.184 C 
BRANCH  13  14
HETATM   14  O   UNL     1     -44.297 -54.212  12.138  1.00  0.00    -0.399 OA
HETATM   15  H   UNL     1     -44.478 -54.922  12.780  1.00  0.00     0.209 HD
ENDBRANCH  13  14
ENDBRANCH  12  13
ENDBRANCH   1  12
BRANCH   2  16
HETATM   16  C   UNL     1     -40.879 -54.104  12.854  1.00  0.00     0.191 C 
HETATM   17 CL   UNL     1     -39.432 -54.363  13.844  1.00  0.00    -0.122 Cl
ENDBRANCH   2  16
TORSDOF 4
ENDMDL
MODEL 7
REMARK VINA RESULT:      -4.5      3.056      5.485
REMARK  4 active torsions:
REMARK  status: ('A' for Active; 'I' for Inactive)
REMARK    1  A    between atoms: O_1  and  C_2 
REMARK    2  A    between atoms: C_2  and  C_3 
REMARK    3  A    between atoms: C_3  and  N_4 
REMARK    4  A    between atoms: C_5  and  C_6 
ROOT
HETATM    1  N   UNL     1     -40.091 -53.333  13.746  1.00  0.00    -0.332 N 
HETATM    2  C   UNL     1     -39.653 -52.028  13.609  1.00  0.00     0.098 A 
HETATM    3  N   UNL     1     -40.672 -51.222  13.371  1.00  0.00    -0.343 N 
ATOM      4  HN  UNL     1     -40.634 -50.210  13.241  1.00  0.00     0.167 HD
HETATM    5  C   UNL     1     -41.787 -52.012  13.332  1.00  0.00     0.062 A 
HETATM    6  C   UNL     1     -43.113 -51.647  13.067  1.00  0.00     0.055 A 
HETATM    7  C   UNL     1     -44.084 -52.649  13.068  1.00  0.00     0.036 A 
HETATM    8 CL   UNL     1     -45.721 -52.233  12.729  1.00  0.00    -0.084 Cl
HETATM    9  C   UNL     1     -43.753 -53.980  13.329  1.00  0.00     0.026 A 
HETATM   10  C   UNL     1     -42.428 -54.358  13.590  1.00  0.00     0.034 A 
HETATM   11  C   UNL     1     -41.463 -53.343  13.577  1.00  0.00     0.062 A 
ENDROOT
BRANCH   1  12
HETATM   12  C   UNL     1     -39.270 -54.517  13.907  1.00  0.00     0.156 C 
BRANCH  12  13
HETATM   13  C   UNL     1     -38.921 -54.841  15.355  1.00  0.00     0.184 C 
BRANCH  13  14
HETATM   14  O   UNL     1     -37.980 -55.911  15.378  1.00  0.00    -0.399 OA
HETATM   15  H   UNL     1     -38.486 -56.742  15.325  1.00  0.00     0.209 HD
ENDBRANCH  13  14
ENDBRANCH  12  13
ENDBRANCH   1  12
BRANCH   2  16
HETATM   16  C   UNL     1     -38.230 -51.579  13.630  1.00  0.00     0.191 C 
HETATM   17 CL   UNL     1     -37.824 -50.561  12.237  1.00  0.00    -0.122 Cl
ENDBRANCH   2  16
TORSDOF 4
ENDMDL
MODEL 8
REMARK VINA RESULT:      -4.5      3.195      4.154
REMARK  4 active torsions:
REMARK  status: ('A' for Active; 'I' for Inactive)
REMARK    1  A    between atoms: O_1  and  C_2 
REMARK    2  A    between atoms: C_2  and  C_3 
REMARK    3  A    between atoms: C_3  and  N_4 
REMARK    4  A    between atoms: C_5  and  C_6 
ROOT
HETATM    1  N   UNL     1     -41.811 -51.379  13.070  1.00  0.00    -0.332 N 
HETATM    2  C   UNL     1     -43.168 -51.114  13.049  1.00  0.00     0.098 A 
HETATM    3  N   UNL     1     -43.398 -49.927  12.515  1.00  0.00    -0.343 N 
ATOM      4  HN  UNL     1     -44.307 -49.489  12.366  1.00  0.00     0.167 HD
HETATM    5  C   UNL     1     -42.174 -49.403  12.200  1.00  0.00     0.062 A 
HETATM    6  C   UNL     1     -41.870 -48.151  11.652  1.00  0.00     0.055 A 
HETATM    7  C   UNL     1     -40.528 -47.837  11.434  1.00  0.00     0.036 A 
HETATM    8 CL   UNL     1     -40.121 -46.297  10.776  1.00  0.00    -0.084 Cl
HETATM    9  C   UNL     1     -39.511 -48.741  11.746  1.00  0.00     0.026 A 
HETATM   10  C   UNL     1     -39.804 -49.996  12.300  1.00  0.00     0.034 A 
HETATM   11  C   UNL     1     -41.154 -50.294  12.521  1.00  0.00     0.062 A 
ENDROOT
BRANCH   1  12
HETATM   12  C   UNL     1     -41.155 -52.525  13.670  1.00  0.00     0.156 C 
BRANCH  12  13
HETATM   13  C   UNL     1     -41.163 -53.776  12.799  1.00  0.00     0.184 C 
BRANCH  13  14
HETATM   14  O   UNL     1     -40.546 -53.476  11.550  1.00  0.00    -0.399 OA
HETATM   15  H   UNL     1     -40.902 -52.620  11.250  1.00  0.00     0.209 HD
ENDBRANCH  13  14
ENDBRANCH  12  13
ENDBRANCH   1  12
BRANCH   2  16
HETATM   16  C   UNL     1     -44.236 -51.981  13.626  1.00  0.00     0.191 C 
HETATM   17 CL   UNL     1     -45.862 -51.447  13.165  1.00  0.00    -0.122 Cl
ENDBRANCH   2  16
TORSDOF 4
ENDMDL
MODEL 9
REMARK VINA RESULT:      -4.3      3.348      4.284
REMARK  4 active torsions:
REMARK  status: ('A' for Active; 'I' for Inactive)
REMARK    1  A    between atoms: O_1  and  C_2 
REMARK    2  A    between atoms: C_2  and  C_3 
REMARK    3  A    between atoms: C_3  and  N_4 
REMARK    4  A    between atoms: C_5  and  C_6 
ROOT
HETATM    1  N   UNL     1     -42.354 -53.047  13.888  1.00  0.00    -0.332 N 
HETATM    2  C   UNL     1     -43.635 -53.542  13.725  1.00  0.00     0.098 A 
HETATM    3  N   UNL     1     -43.816 -54.614  14.476  1.00  0.00    -0.343 N 
ATOM      4  HN  UNL     1     -44.669 -55.167  14.557  1.00  0.00     0.167 HD
HETATM    5  C   UNL     1     -42.631 -54.833  15.125  1.00  0.00     0.062 A 
HETATM    6  C   UNL     1     -42.290 -55.868  16.003  1.00  0.00     0.055 A 
HETATM    7  C   UNL     1     -40.998 -55.885  16.529  1.00  0.00     0.036 A 
HETATM    8 CL   UNL     1     -40.542 -57.156  17.600  1.00  0.00    -0.084 Cl
HETATM    9  C   UNL     1     -40.067 -54.898  16.201  1.00  0.00     0.026 A 
HETATM   10  C   UNL     1     -40.397 -53.858  15.319  1.00  0.00     0.034 A 
HETATM   11  C   UNL     1     -41.694 -53.860  14.791  1.00  0.00     0.062 A 
ENDROOT
BRANCH   1  12
HETATM   12  C   UNL     1     -41.742 -51.953  13.161  1.00  0.00     0.156 C 
BRANCH  12  13
HETATM   13  C   UNL     1     -41.407 -52.278  11.710  1.00  0.00     0.184 C 
BRANCH  13  14
HETATM   14  O   UNL     1     -40.547 -53.414  11.675  1.00  0.00    -0.399 OA
HETATM   15  H   UNL     1     -39.761 -53.166  11.156  1.00  0.00     0.209 HD
ENDBRANCH  13  14
ENDBRANCH  12  13
ENDBRANCH   1  12
BRANCH   2  16
HETATM   16  C   UNL     1     -44.657 -53.019  12.772  1.00  0.00     0.191 C 
HETATM   17 CL   UNL     1     -45.485 -51.580  13.395  1.00  0.00    -0.122 Cl
ENDBRANCH   2  16
TORSDOF 4
ENDMDL
