MODEL 1
REMARK VINA RESULT:      -6.6      0.000      0.000
REMARK  5 active torsions:
REMARK  status: ('A' for Active; 'I' for Inactive)
REMARK    1  A    between atoms: N_4  and  C_5 
REMARK    2  A    between atoms: C_5  and  C_6 
REMARK    3  A    between atoms: C_6  and  O_7 
REMARK    4  A    between atoms: C_6  and  C_8 
REMARK    5  A    between atoms: C_8  and  N_9 
ROOT
HETATM    1  C   UNL     1     -41.117 -50.130  12.563  1.00  0.00     0.163 C 
ENDROOT
BRANCH   1   2
HETATM    2  C   UNL     1     -41.327 -49.412  11.229  1.00  0.00     0.164 C 
BRANCH   2   3
HETATM    3  C   UNL     1     -41.120 -47.880  11.381  1.00  0.00     0.305 C 
BRANCH   3   4
HETATM    4  N   UNL     1     -42.266 -47.074  10.904  1.00  0.00     0.096 N 
HETATM    5  C   UNL     1     -42.474 -47.256   9.446  1.00  0.00     0.303 C 
HETATM    6  C   UNL     1     -43.626 -46.388   8.896  1.00  0.00     0.146 C 
HETATM    7  C   UNL     1     -45.004 -46.856   9.361  1.00  0.00     0.041 C 
HETATM    8  O   UNL     1     -43.411 -44.999   9.196  1.00  0.00    -0.378 OA
HETATM    9  C   UNL     1     -43.212 -44.766  10.599  1.00  0.00     0.146 C 
HETATM   10  C   UNL     1     -42.054 -45.625  11.149  1.00  0.00     0.303 C 
HETATM   11  C   UNL     1     -42.910 -43.284  10.788  1.00  0.00     0.041 C 
ENDBRANCH   3   4
ENDBRANCH   2   3
BRANCH   2  12
HETATM   12  O   UNL     1     -40.406 -49.950  10.272  1.00  0.00    -0.392 OA
HETATM   13  H   UNL     1     -40.918 -50.306   9.523  1.00  0.00     0.210 HD
ENDBRANCH   2  12
ENDBRANCH   1   2
BRANCH   1  14
HETATM   14  N   UNL     1     -41.715 -51.453  12.579  1.00  0.00    -0.339 N 
HETATM   15  C   UNL     1     -41.048 -52.613  12.278  1.00  0.00     0.184 A 
HETATM   16  N   UNL     1     -41.818 -53.665  12.427  1.00  0.00    -0.350 N 
HETATM   17  C   UNL     1     -43.039 -53.172  12.801  1.00  0.00     0.063 A 
ATOM     18  HN  UNL     1     -41.560 -54.644  12.293  1.00  0.00     0.166 HD
HETATM   19  C   UNL     1     -44.224 -53.865  13.077  1.00  0.00     0.077 A 
HETATM   20  C   UNL     1     -43.009 -51.777  12.901  1.00  0.00     0.065 A 
HETATM   21  C   UNL     1     -45.348 -53.126  13.438  1.00  0.00     0.157 A 
HETATM   22  F   UNL     1     -46.492 -53.774  13.706  1.00  0.00    -0.203 F 
HETATM   23  C   UNL     1     -45.303 -51.738  13.527  1.00  0.00     0.157 A 
HETATM   24  F   UNL     1     -46.406 -51.057  13.870  1.00  0.00    -0.203 F 
HETATM   25  C   UNL     1     -44.133 -51.020  13.257  1.00  0.00     0.077 A 
ENDBRANCH   1  14
TORSDOF 5
ENDMDL
MODEL 2
REMARK VINA RESULT:      -6.5      2.893      4.634
REMARK  5 active torsions:
REMARK  status: ('A' for Active; 'I' for Inactive)
REMARK    1  A    between atoms: N_4  and  C_5 
REMARK    2  A    between atoms: C_5  and  C_6 
REMARK    3  A    between atoms: C_6  and  O_7 
REMARK    4  A    between atoms: C_6  and  C_8 
REMARK    5  A    between atoms: C_8  and  N_9 
ROOT
HETATM    1  C   UNL     1     -42.175 -54.133  13.744  1.00  0.00     0.163 C 
ENDROOT
BRANCH   1   2
HETATM    2  C   UNL     1     -40.986 -53.579  12.957  1.00  0.00     0.164 C 
BRANCH   2   3
HETATM    3  C   UNL     1     -40.435 -52.285  13.616  1.00  0.00     0.305 C 
BRANCH   3   4
HETATM    4  N   UNL     1     -39.900 -51.303  12.646  1.00  0.00     0.096 N 
HETATM    5  C   UNL     1     -38.908 -50.407  13.290  1.00  0.00     0.303 C 
HETATM    6  C   UNL     1     -38.365 -49.330  12.326  1.00  0.00     0.146 C 
HETATM    7  C   UNL     1     -37.455 -49.900  11.240  1.00  0.00     0.041 C 
HETATM    8  O   UNL     1     -39.438 -48.557  11.763  1.00  0.00    -0.378 OA
HETATM    9  C   UNL     1     -40.425 -49.378  11.119  1.00  0.00     0.146 C 
HETATM   10  C   UNL     1     -40.976 -50.449  12.084  1.00  0.00     0.303 C 
HETATM   11  C   UNL     1     -41.549 -48.467  10.639  1.00  0.00     0.041 C 
ENDBRANCH   3   4
ENDBRANCH   2   3
BRANCH   2  12
HETATM   12  O   UNL     1     -39.968 -54.586  12.901  1.00  0.00    -0.392 OA
HETATM   13  H   UNL     1     -39.969 -55.067  13.748  1.00  0.00     0.210 HD
ENDBRANCH   2  12
ENDBRANCH   1   2
BRANCH   1  14
HETATM   14  N   UNL     1     -43.418 -53.458  13.413  1.00  0.00    -0.339 N 
HETATM   15  C   UNL     1     -43.900 -53.296  12.140  1.00  0.00     0.184 A 
HETATM   16  N   UNL     1     -45.070 -52.700  12.138  1.00  0.00    -0.350 N 
HETATM   17  C   UNL     1     -45.342 -52.432  13.453  1.00  0.00     0.063 A 
ATOM     18  HN  UNL     1     -45.652 -52.484  11.329  1.00  0.00     0.166 HD
HETATM   19  C   UNL     1     -46.458 -51.795  14.012  1.00  0.00     0.077 A 
HETATM   20  C   UNL     1     -44.316 -52.894  14.284  1.00  0.00     0.065 A 
HETATM   21  C   UNL     1     -46.498 -51.635  15.394  1.00  0.00     0.157 A 
HETATM   22  F   UNL     1     -47.560 -51.028  15.946  1.00  0.00    -0.203 F 
HETATM   23  C   UNL     1     -45.465 -52.096  16.207  1.00  0.00     0.157 A 
HETATM   24  F   UNL     1     -45.534 -51.919  17.534  1.00  0.00    -0.203 F 
HETATM   25  C   UNL     1     -44.341 -52.735  15.676  1.00  0.00     0.077 A 
ENDBRANCH   1  14
TORSDOF 5
ENDMDL
MODEL 3
REMARK VINA RESULT:      -6.5      1.080      1.985
REMARK  5 active torsions:
REMARK  status: ('A' for Active; 'I' for Inactive)
REMARK    1  A    between atoms: N_4  and  C_5 
REMARK    2  A    between atoms: C_5  and  C_6 
REMARK    3  A    between atoms: C_6  and  O_7 
REMARK    4  A    between atoms: C_6  and  C_8 
REMARK    5  A    between atoms: C_8  and  N_9 
ROOT
HETATM    1  C   UNL     1     -40.717 -50.172  12.777  1.00  0.00     0.163 C 
ENDROOT
BRANCH   1   2
HETATM    2  C   UNL     1     -40.771 -49.312  11.513  1.00  0.00     0.164 C 
BRANCH   2   3
HETATM    3  C   UNL     1     -39.815 -48.093  11.626  1.00  0.00     0.305 C 
BRANCH   3   4
HETATM    4  N   UNL     1     -40.406 -46.825  11.143  1.00  0.00     0.096 N 
HETATM    5  C   UNL     1     -40.681 -45.903  12.273  1.00  0.00     0.303 C 
HETATM    6  C   UNL     1     -41.350 -44.587  11.818  1.00  0.00     0.146 C 
HETATM    7  C   UNL     1     -40.409 -43.676  11.032  1.00  0.00     0.041 C 
HETATM    8  O   UNL     1     -42.560 -44.852  11.088  1.00  0.00    -0.378 OA
HETATM    9  C   UNL     1     -42.347 -45.736   9.977  1.00  0.00     0.146 C 
HETATM   10  C   UNL     1     -41.687 -47.055  10.431  1.00  0.00     0.303 C 
HETATM   11  C   UNL     1     -43.701 -46.013   9.335  1.00  0.00     0.041 C 
ENDBRANCH   3   4
ENDBRANCH   2   3
BRANCH   2  12
HETATM   12  O   UNL     1     -40.413 -50.128  10.391  1.00  0.00    -0.392 OA
HETATM   13  H   UNL     1     -40.911 -49.814   9.615  1.00  0.00     0.210 HD
ENDBRANCH   2  12
ENDBRANCH   1   2
BRANCH   1  14
HETATM   14  N   UNL     1     -41.397 -51.444  12.609  1.00  0.00    -0.339 N 
HETATM   15  C   UNL     1     -40.794 -52.598  12.177  1.00  0.00     0.184 A 
HETATM   16  N   UNL     1     -41.632 -53.608  12.171  1.00  0.00    -0.350 N 
HETATM   17  C   UNL     1     -42.831 -53.087  12.578  1.00  0.00     0.063 A 
ATOM     18  HN  UNL     1     -41.432 -54.576  11.919  1.00  0.00     0.166 HD
HETATM   19  C   UNL     1     -44.065 -53.730  12.736  1.00  0.00     0.077 A 
HETATM   20  C   UNL     1     -42.717 -51.721  12.857  1.00  0.00     0.065 A 
HETATM   21  C   UNL     1     -45.152 -52.971  13.162  1.00  0.00     0.157 A 
HETATM   22  F   UNL     1     -46.341 -53.571  13.319  1.00  0.00    -0.203 F 
HETATM   23  C   UNL     1     -45.023 -51.611  13.430  1.00  0.00     0.157 A 
HETATM   24  F   UNL     1     -46.092 -50.908  13.833  1.00  0.00    -0.203 F 
HETATM   25  C   UNL     1     -43.803 -50.943  13.282  1.00  0.00     0.077 A 
ENDBRANCH   1  14
TORSDOF 5
ENDMDL
MODEL 4
REMARK VINA RESULT:      -6.4      3.537      4.691
REMARK  5 active torsions:
REMARK  status: ('A' for Active; 'I' for Inactive)
REMARK    1  A    between atoms: N_4  and  C_5 
REMARK    2  A    between atoms: C_5  and  C_6 
REMARK    3  A    between atoms: C_6  and  O_7 
REMARK    4  A    between atoms: C_6  and  C_8 
REMARK    5  A    between atoms: C_8  and  N_9 
ROOT
HETATM    1  C   UNL     1     -41.926 -54.205  13.224  1.00  0.00     0.163 C 
ENDROOT
BRANCH   1   2
HETATM    2  C   UNL     1     -41.310 -52.999  12.513  1.00  0.00     0.164 C 
BRANCH   2   3
HETATM    3  C   UNL     1     -40.378 -52.206  13.468  1.00  0.00     0.305 C 
BRANCH   3   4
HETATM    4  N   UNL     1     -39.689 -51.068  12.820  1.00  0.00     0.096 N 
HETATM    5  C   UNL     1     -38.249 -51.045  13.177  1.00  0.00     0.303 C 
HETATM    6  C   UNL     1     -37.502 -49.840  12.566  1.00  0.00     0.146 C 
HETATM    7  C   UNL     1     -37.337 -49.942  11.050  1.00  0.00     0.041 C 
HETATM    8  O   UNL     1     -38.127 -48.602  12.945  1.00  0.00    -0.378 OA
HETATM    9  C   UNL     1     -39.523 -48.569  12.613  1.00  0.00     0.146 C 
HETATM   10  C   UNL     1     -40.273 -49.768  13.232  1.00  0.00     0.303 C 
HETATM   11  C   UNL     1     -40.096 -47.257  13.136  1.00  0.00     0.041 C 
ENDBRANCH   3   4
ENDBRANCH   2   3
BRANCH   2  12
HETATM   12  O   UNL     1     -40.579 -53.467  11.373  1.00  0.00    -0.392 OA
HETATM   13  H   UNL     1     -39.966 -54.164  11.669  1.00  0.00     0.210 HD
ENDBRANCH   2  12
ENDBRANCH   1   2
BRANCH   1  14
HETATM   14  N   UNL     1     -42.846 -53.814  14.278  1.00  0.00    -0.339 N 
HETATM   15  C   UNL     1     -42.688 -54.126  15.604  1.00  0.00     0.184 A 
HETATM   16  N   UNL     1     -43.636 -53.598  16.342  1.00  0.00    -0.350 N 
HETATM   17  C   UNL     1     -44.462 -52.951  15.462  1.00  0.00     0.063 A 
ATOM     18  HN  UNL     1     -43.736 -53.657  17.356  1.00  0.00     0.166 HD
HETATM   19  C   UNL     1     -45.635 -52.230  15.719  1.00  0.00     0.077 A 
HETATM   20  C   UNL     1     -43.993 -53.073  14.150  1.00  0.00     0.065 A 
HETATM   21  C   UNL     1     -46.307 -51.662  14.639  1.00  0.00     0.157 A 
HETATM   22  F   UNL     1     -47.432 -50.969  14.867  1.00  0.00    -0.203 F 
HETATM   23  C   UNL     1     -45.830 -51.798  13.338  1.00  0.00     0.157 A 
HETATM   24  F   UNL     1     -46.505 -51.243  12.321  1.00  0.00    -0.203 F 
HETATM   25  C   UNL     1     -44.660 -52.510  13.053  1.00  0.00     0.077 A 
ENDBRANCH   1  14
TORSDOF 5
ENDMDL
MODEL 5
REMARK VINA RESULT:      -6.4      4.177      5.409
REMARK  5 active torsions:
REMARK  status: ('A' for Active; 'I' for Inactive)
REMARK    1  A    between atoms: N_4  and  C_5 
REMARK    2  A    between atoms: C_5  and  C_6 
REMARK    3  A    between atoms: C_6  and  O_7 
REMARK    4  A    between atoms: C_6  and  C_8 
REMARK    5  A    between atoms: C_8  and  N_9 
ROOT
HETATM    1  C   UNL     1     -41.143 -54.100  13.941  1.00  0.00     0.163 C 
ENDROOT
BRANCH   1   2
HETATM    2  C   UNL     1     -39.673 -53.728  13.745  1.00  0.00     0.164 C 
BRANCH   2   3
HETATM    3  C   UNL     1     -39.099 -53.036  15.011  1.00  0.00     0.305 C 
BRANCH   3   4
HETATM    4  N   UNL     1     -38.660 -51.641  14.781  1.00  0.00     0.096 N 
HETATM    5  C   UNL     1     -39.740 -50.682  15.119  1.00  0.00     0.303 C 
HETATM    6  C   UNL     1     -39.343 -49.216  14.840  1.00  0.00     0.146 C 
HETATM    7  C   UNL     1     -38.286 -48.686  15.808  1.00  0.00     0.041 C 
HETATM    8  O   UNL     1     -38.937 -49.045  13.472  1.00  0.00    -0.378 OA
HETATM    9  C   UNL     1     -37.886 -49.946  13.095  1.00  0.00     0.146 C 
HETATM   10  C   UNL     1     -38.285 -51.413  13.364  1.00  0.00     0.303 C 
HETATM   11  C   UNL     1     -37.600 -49.737  11.613  1.00  0.00     0.041 C 
ENDBRANCH   3   4
ENDBRANCH   2   3
BRANCH   2  12
HETATM   12  O   UNL     1     -38.936 -54.921  13.448  1.00  0.00    -0.392 OA
HETATM   13  H   UNL     1     -38.183 -54.680  12.880  1.00  0.00     0.210 HD
ENDBRANCH   2  12
ENDBRANCH   1   2
BRANCH   1  14
HETATM   14  N   UNL     1     -42.043 -53.067  13.458  1.00  0.00    -0.339 N 
HETATM   15  C   UNL     1     -41.780 -52.240  12.397  1.00  0.00     0.184 A 
HETATM   16  N   UNL     1     -42.790 -51.440  12.145  1.00  0.00    -0.350 N 
HETATM   17  C   UNL     1     -43.729 -51.730  13.099  1.00  0.00     0.063 A 
ATOM     18  HN  UNL     1     -42.860 -50.750  11.398  1.00  0.00     0.166 HD
HETATM   19  C   UNL     1     -44.992 -51.159  13.297  1.00  0.00     0.077 A 
HETATM   20  C   UNL     1     -43.285 -52.751  13.947  1.00  0.00     0.065 A 
HETATM   21  C   UNL     1     -45.767 -51.630  14.354  1.00  0.00     0.157 A 
HETATM   22  F   UNL     1     -46.980 -51.094  14.558  1.00  0.00    -0.203 F 
HETATM   23  C   UNL     1     -45.309 -52.642  15.193  1.00  0.00     0.157 A 
HETATM   24  F   UNL     1     -46.079 -53.067  16.205  1.00  0.00    -0.203 F 
HETATM   25  C   UNL     1     -44.052 -53.231  15.017  1.00  0.00     0.077 A 
ENDBRANCH   1  14
TORSDOF 5
ENDMDL
MODEL 6
REMARK VINA RESULT:      -6.3      2.415      3.361
REMARK  5 active torsions:
REMARK  status: ('A' for Active; 'I' for Inactive)
REMARK    1  A    between atoms: N_4  and  C_5 
REMARK    2  A    between atoms: C_5  and  C_6 
REMARK    3  A    between atoms: C_6  and  O_7 
REMARK    4  A    between atoms: C_6  and  C_8 
REMARK    5  A    between atoms: C_8  and  N_9 
ROOT
HETATM    1  C   UNL     1     -41.846 -52.867  13.521  1.00  0.00     0.163 C 
ENDROOT
BRANCH   1   2
HETATM    2  C   UNL     1     -41.235 -52.292  12.242  1.00  0.00     0.164 C 
BRANCH   2   3
HETATM    3  C   UNL     1     -40.211 -51.171  12.569  1.00  0.00     0.305 C 
BRANCH   3   4
HETATM    4  N   UNL     1     -40.754 -49.803  12.415  1.00  0.00     0.096 N 
HETATM    5  C   UNL     1     -40.933 -49.461  10.982  1.00  0.00     0.303 C 
HETATM    6  C   UNL     1     -41.446 -48.019  10.774  1.00  0.00     0.146 C 
HETATM    7  C   UNL     1     -42.896 -47.829  11.215  1.00  0.00     0.041 C 
HETATM    8  O   UNL     1     -40.574 -47.067  11.407  1.00  0.00    -0.378 OA
HETATM    9  C   UNL     1     -40.373 -47.349  12.800  1.00  0.00     0.146 C 
HETATM   10  C   UNL     1     -39.851 -48.787  13.009  1.00  0.00     0.303 C 
HETATM   11  C   UNL     1     -39.372 -46.336  13.342  1.00  0.00     0.041 C 
ENDBRANCH   3   4
ENDBRANCH   2   3
BRANCH   2  12
HETATM   12  O   UNL     1     -40.602 -53.356  11.521  1.00  0.00    -0.392 OA
HETATM   13  H   UNL     1     -41.265 -53.760  10.931  1.00  0.00     0.210 HD
ENDBRANCH   2  12
ENDBRANCH   1   2
BRANCH   1  14
HETATM   14  N   UNL     1     -43.292 -52.971  13.444  1.00  0.00    -0.339 N 
HETATM   15  C   UNL     1     -43.969 -53.791  12.578  1.00  0.00     0.184 A 
HETATM   16  N   UNL     1     -45.266 -53.726  12.763  1.00  0.00    -0.350 N 
HETATM   17  C   UNL     1     -45.444 -52.804  13.759  1.00  0.00     0.063 A 
ATOM     18  HN  UNL     1     -45.989 -54.251  12.270  1.00  0.00     0.166 HD
HETATM   19  C   UNL     1     -46.636 -52.346  14.336  1.00  0.00     0.077 A 
HETATM   20  C   UNL     1     -44.217 -52.304  14.208  1.00  0.00     0.065 A 
HETATM   21  C   UNL     1     -46.552 -51.388  15.343  1.00  0.00     0.157 A 
HETATM   22  F   UNL     1     -47.683 -50.938  15.907  1.00  0.00    -0.203 F 
HETATM   23  C   UNL     1     -45.322 -50.897  15.774  1.00  0.00     0.157 A 
HETATM   24  F   UNL     1     -45.279 -49.970  16.742  1.00  0.00    -0.203 F 
HETATM   25  C   UNL     1     -44.118 -51.337  15.217  1.00  0.00     0.077 A 
ENDBRANCH   1  14
TORSDOF 5
ENDMDL
MODEL 7
REMARK VINA RESULT:      -6.2      5.563      8.236
REMARK  5 active torsions:
REMARK  status: ('A' for Active; 'I' for Inactive)
REMARK    1  A    between atoms: N_4  and  C_5 
REMARK    2  A    between atoms: C_5  and  C_6 
REMARK    3  A    between atoms: C_6  and  O_7 
REMARK    4  A    between atoms: C_6  and  C_8 
REMARK    5  A    between atoms: C_8  and  N_9 
ROOT
HETATM    1  C   UNL     1     -40.141 -51.408  12.737  1.00  0.00     0.163 C 
ENDROOT
BRANCH   1   2
HETATM    2  C   UNL     1     -40.856 -52.749  12.564  1.00  0.00     0.164 C 
BRANCH   2   3
HETATM    3  C   UNL     1     -42.397 -52.570  12.612  1.00  0.00     0.305 C 
BRANCH   3   4
HETATM    4  N   UNL     1     -43.103 -53.667  13.311  1.00  0.00     0.096 N 
HETATM    5  C   UNL     1     -44.362 -53.179  13.929  1.00  0.00     0.303 C 
HETATM    6  C   UNL     1     -45.104 -54.281  14.717  1.00  0.00     0.146 C 
HETATM    7  C   UNL     1     -45.716 -55.353  13.819  1.00  0.00     0.041 C 
HETATM    8  O   UNL     1     -44.250 -54.858  15.720  1.00  0.00    -0.378 OA
HETATM    9  C   UNL     1     -43.019 -55.353  15.173  1.00  0.00     0.146 C 
HETATM   10  C   UNL     1     -42.271 -54.251  14.392  1.00  0.00     0.303 C 
HETATM   11  C   UNL     1     -42.164 -55.858  16.329  1.00  0.00     0.041 C 
ENDBRANCH   3   4
ENDBRANCH   2   3
BRANCH   2  12
HETATM   12  O   UNL     1     -40.456 -53.320  11.311  1.00  0.00    -0.392 OA
HETATM   13  H   UNL     1     -40.666 -54.271  11.329  1.00  0.00     0.210 HD
ENDBRANCH   2  12
ENDBRANCH   1   2
BRANCH   1  14
HETATM   14  N   UNL     1     -39.348 -51.359  13.953  1.00  0.00    -0.339 N 
HETATM   15  C   UNL     1     -39.311 -52.350  14.899  1.00  0.00     0.184 A 
HETATM   16  N   UNL     1     -38.468 -52.067  15.864  1.00  0.00    -0.350 N 
HETATM   17  C   UNL     1     -37.966 -50.831  15.556  1.00  0.00     0.063 A 
ATOM     18  HN  UNL     1     -38.236 -52.645  16.673  1.00  0.00     0.166 HD
HETATM   19  C   UNL     1     -37.035 -50.055  16.259  1.00  0.00     0.077 A 
HETATM   20  C   UNL     1     -38.505 -50.354  14.356  1.00  0.00     0.065 A 
HETATM   21  C   UNL     1     -36.685 -48.814  15.734  1.00  0.00     0.157 A 
HETATM   22  F   UNL     1     -35.795 -48.058  16.394  1.00  0.00    -0.203 F 
HETATM   23  C   UNL     1     -37.236 -48.351  14.542  1.00  0.00     0.157 A 
HETATM   24  F   UNL     1     -36.880 -47.148  14.068  1.00  0.00    -0.203 F 
HETATM   25  C   UNL     1     -38.165 -49.105  13.819  1.00  0.00     0.077 A 
ENDBRANCH   1  14
TORSDOF 5
ENDMDL
MODEL 8
REMARK VINA RESULT:      -6.2      3.309      7.520
REMARK  5 active torsions:
REMARK  status: ('A' for Active; 'I' for Inactive)
REMARK    1  A    between atoms: N_4  and  C_5 
REMARK    2  A    between atoms: C_5  and  C_6 
REMARK    3  A    between atoms: C_6  and  O_7 
REMARK    4  A    between atoms: C_6  and  C_8 
REMARK    5  A    between atoms: C_8  and  N_9 
ROOT
HETATM    1  C   UNL     1     -41.118 -51.352  13.157  1.00  0.00     0.163 C 
ENDROOT
BRANCH   1   2
HETATM    2  C   UNL     1     -40.644 -52.558  12.345  1.00  0.00     0.164 C 
BRANCH   2   3
HETATM    3  C   UNL     1     -40.934 -53.885  13.098  1.00  0.00     0.305 C 
BRANCH   3   4
HETATM    4  N   UNL     1     -42.064 -53.796  14.049  1.00  0.00     0.096 N 
HETATM    5  C   UNL     1     -41.752 -54.510  15.313  1.00  0.00     0.303 C 
HETATM    6  C   UNL     1     -42.927 -54.489  16.314  1.00  0.00     0.146 C 
HETATM    7  C   UNL     1     -43.180 -53.108  16.914  1.00  0.00     0.041 C 
HETATM    8  O   UNL     1     -44.118 -55.032  15.719  1.00  0.00    -0.378 OA
HETATM    9  C   UNL     1     -44.469 -54.370  14.495  1.00  0.00     0.146 C 
HETATM   10  C   UNL     1     -43.299 -54.397  13.489  1.00  0.00     0.303 C 
HETATM   11  C   UNL     1     -45.687 -55.079  13.913  1.00  0.00     0.041 C 
ENDBRANCH   3   4
ENDBRANCH   2   3
BRANCH   2  12
HETATM   12  O   UNL     1     -41.311 -52.545  11.077  1.00  0.00    -0.392 OA
HETATM   13  H   UNL     1     -41.816 -53.373  10.990  1.00  0.00     0.210 HD
ENDBRANCH   2  12
ENDBRANCH   1   2
BRANCH   1  14
HETATM   14  N   UNL     1     -40.561 -50.103  12.667  1.00  0.00    -0.339 N 
HETATM   15  C   UNL     1     -39.238 -49.755  12.752  1.00  0.00     0.184 A 
HETATM   16  N   UNL     1     -39.004 -48.597  12.179  1.00  0.00    -0.350 N 
HETATM   17  C   UNL     1     -40.224 -48.158  11.739  1.00  0.00     0.063 A 
ATOM     18  HN  UNL     1     -38.105 -48.125  12.083  1.00  0.00     0.166 HD
HETATM   19  C   UNL     1     -40.547 -46.971  11.069  1.00  0.00     0.077 A 
HETATM   20  C   UNL     1     -41.229 -49.085  12.036  1.00  0.00     0.065 A 
HETATM   21  C   UNL     1     -41.879 -46.750  10.727  1.00  0.00     0.157 A 
HETATM   22  F   UNL     1     -42.205 -45.619  10.085  1.00  0.00    -0.203 F 
HETATM   23  C   UNL     1     -42.868 -47.680  11.036  1.00  0.00     0.157 A 
HETATM   24  F   UNL     1     -44.142 -47.433  10.697  1.00  0.00    -0.203 F 
HETATM   25  C   UNL     1     -42.574 -48.874  11.702  1.00  0.00     0.077 A 
ENDBRANCH   1  14
TORSDOF 5
ENDMDL
MODEL 9
REMARK VINA RESULT:      -6.0      3.081      3.927
REMARK  5 active torsions:
REMARK  status: ('A' for Active; 'I' for Inactive)
REMARK    1  A    between atoms: N_4  and  C_5 
REMARK    2  A    between atoms: C_5  and  C_6 
REMARK    3  A    between atoms: C_6  and  O_7 
REMARK    4  A    between atoms: C_6  and  C_8 
REMARK    5  A    between atoms: C_8  and  N_9 
ROOT
HETATM    1  C   UNL     1     -41.365 -52.266  13.572  1.00  0.00     0.163 C 
ENDROOT
BRANCH   1   2
HETATM    2  C   UNL     1     -41.315 -52.104  12.052  1.00  0.00     0.164 C 
BRANCH   2   3
HETATM    3  C   UNL     1     -40.709 -50.731  11.657  1.00  0.00     0.305 C 
BRANCH   3   4
HETATM    4  N   UNL     1     -40.552 -49.799  12.796  1.00  0.00     0.096 N 
HETATM    5  C   UNL     1     -41.312 -48.545  12.565  1.00  0.00     0.303 C 
HETATM    6  C   UNL     1     -41.131 -47.520  13.705  1.00  0.00     0.146 C 
HETATM    7  C   UNL     1     -41.816 -47.940  15.004  1.00  0.00     0.041 C 
HETATM    8  O   UNL     1     -39.739 -47.225  13.915  1.00  0.00    -0.378 OA
HETATM    9  C   UNL     1     -38.959 -48.406  14.151  1.00  0.00     0.146 C 
HETATM   10  C   UNL     1     -39.130 -49.428  13.008  1.00  0.00     0.303 C 
HETATM   11  C   UNL     1     -37.499 -47.985  14.272  1.00  0.00     0.041 C 
ENDBRANCH   3   4
ENDBRANCH   2   3
BRANCH   2  12
HETATM   12  O   UNL     1     -40.533 -53.174  11.505  1.00  0.00    -0.392 OA
HETATM   13  H   UNL     1     -40.256 -53.754  12.238  1.00  0.00     0.210 HD
ENDBRANCH   2  12
ENDBRANCH   1   2
BRANCH   1  14
HETATM   14  N   UNL     1     -42.382 -53.213  13.993  1.00  0.00    -0.339 N 
HETATM   15  C   UNL     1     -42.128 -54.491  14.418  1.00  0.00     0.184 A 
HETATM   16  N   UNL     1     -43.226 -55.105  14.791  1.00  0.00    -0.350 N 
HETATM   17  C   UNL     1     -44.237 -54.209  14.566  1.00  0.00     0.063 A 
ATOM     18  HN  UNL     1     -43.309 -56.050  15.168  1.00  0.00     0.166 HD
HETATM   19  C   UNL     1     -45.613 -54.357  14.781  1.00  0.00     0.077 A 
HETATM   20  C   UNL     1     -43.737 -53.005  14.058  1.00  0.00     0.065 A 
HETATM   21  C   UNL     1     -46.446 -53.287  14.465  1.00  0.00     0.157 A 
HETATM   22  F   UNL     1     -47.767 -53.412  14.664  1.00  0.00    -0.203 F 
HETATM   23  C   UNL     1     -45.933 -52.097  13.954  1.00  0.00     0.157 A 
HETATM   24  F   UNL     1     -46.765 -51.089  13.655  1.00  0.00    -0.203 F 
HETATM   25  C   UNL     1     -44.564 -51.921  13.732  1.00  0.00     0.077 A 
ENDBRANCH   1  14
TORSDOF 5
ENDMDL
