MODEL 1
REMARK VINA RESULT:      -7.2      0.000      0.000
REMARK  5 active torsions:
REMARK  status: ('A' for Active; 'I' for Inactive)
REMARK    1  A    between atoms: N_5  and  C_6 
REMARK    2  A    between atoms: C_6  and  C_7 
REMARK       I    between atoms: C_7  and  N_9 
REMARK    3  A    between atoms: N_9  and  C_10 
REMARK    4  A    between atoms: C_22  and  C_23 
REMARK    5  A    between atoms: C_23  and  N_24 
ROOT
HETATM    1  C   UNL     1     -40.611 -54.136  13.907  1.00  0.00     0.255 C 
ENDROOT
BRANCH   1   2
HETATM    2  N   UNL     1     -40.019 -52.816  13.687  1.00  0.00    -0.247 N 
HETATM    3  N   UNL     1     -39.084 -52.356  14.587  1.00  0.00    -0.299 N 
HETATM    4  C   UNL     1     -38.616 -51.150  14.434  1.00  0.00     0.029 A 
ATOM      5  HN  UNL     1     -38.764 -52.946  15.355  1.00  0.00     0.187 HD
HETATM    6  C   UNL     1     -37.623 -50.653  15.459  1.00  0.00     0.070 C 
HETATM    7  C   UNL     1     -38.995 -50.227  13.330  1.00  0.00    -0.013 A 
HETATM    8  C   UNL     1     -39.890 -50.730  12.472  1.00  0.00     0.103 A 
HETATM    9  C   UNL     1     -38.393 -48.860  13.251  1.00  0.00     0.052 C 
HETATM   10  C   UNL     1     -40.455 -52.090  12.594  1.00  0.00     0.282 A 
HETATM   11  O   UNL     1     -41.267 -52.507  11.779  1.00  0.00    -0.265 OA
BRANCH   8  12
HETATM   12  C   UNL     1     -40.435 -49.935  11.297  1.00  0.00    -0.031 C 
BRANCH  12  13
HETATM   13  N   UNL     1     -40.886 -49.275  10.322  1.00  0.00    -0.365 N 
ATOM     14  HN2 UNL     1     -40.499 -49.822  11.092  1.00  0.00     0.165 HD
ATOM     15  HN1 UNL     1     -41.251 -48.741   9.533  1.00  0.00     0.165 HD
ENDBRANCH  12  13
ENDBRANCH   8  12
ENDBRANCH   1   2
BRANCH   1  16
HETATM   16  C   UNL     1     -41.807 -54.096  14.859  1.00  0.00     0.237 C 
HETATM   17  O   UNL     1     -42.094 -55.041  15.586  1.00  0.00    -0.272 OA
HETATM   18  N   UNL     1     -42.638 -53.002  14.678  1.00  0.00    -0.354 N 
HETATM   19  H   UNL     1     -42.306 -52.331  13.996  1.00  0.00     0.162 HD
BRANCH  18  20
HETATM   20  C   UNL     1     -43.994 -52.881  15.215  1.00  0.00     0.092 C 
HETATM   21  C   UNL     1     -45.042 -53.667  14.376  1.00  0.00     0.009 C 
HETATM   22  C   UNL     1     -46.449 -53.482  14.980  1.00  0.00     0.011 C 
HETATM   23  C   UNL     1     -45.041 -53.128  12.935  1.00  0.00     0.011 C 
HETATM   24  C   UNL     1     -46.843 -51.999  14.966  1.00  0.00    -0.013 C 
HETATM   25  C   UNL     1     -45.828 -51.230  15.827  1.00  0.00     0.011 C 
HETATM   26  C   UNL     1     -46.814 -51.474  13.517  1.00  0.00     0.009 C 
HETATM   27  C   UNL     1     -44.411 -51.384  15.242  1.00  0.00     0.009 C 
HETATM   28  C   UNL     1     -44.427 -50.822  13.802  1.00  0.00     0.011 C 
HETATM   29  C   UNL     1     -45.405 -51.631  12.930  1.00  0.00    -0.013 C 
ENDBRANCH  18  20
ENDBRANCH   1  16
TORSDOF 5
ENDMDL
MODEL 2
REMARK VINA RESULT:      -7.0      3.238      4.372
REMARK  5 active torsions:
REMARK  status: ('A' for Active; 'I' for Inactive)
REMARK    1  A    between atoms: N_5  and  C_6 
REMARK    2  A    between atoms: C_6  and  C_7 
REMARK       I    between atoms: C_7  and  N_9 
REMARK    3  A    between atoms: N_9  and  C_10 
REMARK    4  A    between atoms: C_22  and  C_23 
REMARK    5  A    between atoms: C_23  and  N_24 
ROOT
HETATM    1  C   UNL     1     -43.005 -48.228  12.123  1.00  0.00     0.255 C 
ENDROOT
BRANCH   1   2
HETATM    2  N   UNL     1     -41.906 -47.282  12.322  1.00  0.00    -0.247 N 
HETATM    3  N   UNL     1     -41.594 -46.897  13.607  1.00  0.00    -0.299 N 
HETATM    4  C   UNL     1     -40.669 -45.995  13.777  1.00  0.00     0.029 A 
ATOM      5  HN  UNL     1     -42.075 -47.308  14.407  1.00  0.00     0.187 HD
HETATM    6  C   UNL     1     -40.374 -45.559  15.193  1.00  0.00     0.070 C 
HETATM    7  C   UNL     1     -39.890 -45.361  12.679  1.00  0.00    -0.013 A 
HETATM    8  C   UNL     1     -40.218 -45.786  11.453  1.00  0.00     0.103 A 
HETATM    9  C   UNL     1     -38.847 -44.336  12.989  1.00  0.00     0.052 C 
HETATM   10  C   UNL     1     -41.257 -46.805  11.198  1.00  0.00     0.282 A 
HETATM   11  O   UNL     1     -41.516 -47.165  10.058  1.00  0.00    -0.265 OA
BRANCH   8  12
HETATM   12  C   UNL     1     -39.565 -45.236  10.195  1.00  0.00    -0.031 C 
BRANCH  12  13
HETATM   13  N   UNL     1     -39.025 -44.780   9.151  1.00  0.00    -0.365 N 
ATOM     14  HN2 UNL     1     -39.439 -45.137  10.012  1.00  0.00     0.165 HD
ATOM     15  HN1 UNL     1     -38.588 -44.411   8.306  1.00  0.00     0.165 HD
ENDBRANCH  12  13
ENDBRANCH   8  12
ENDBRANCH   1   2
BRANCH   1  16
HETATM   16  C   UNL     1     -42.841 -49.505  12.947  1.00  0.00     0.237 C 
HETATM   17  O   UNL     1     -41.752 -49.870  13.375  1.00  0.00    -0.272 OA
HETATM   18  N   UNL     1     -43.974 -50.301  12.987  1.00  0.00    -0.354 N 
HETATM   19  H   UNL     1     -44.786 -49.900  12.533  1.00  0.00     0.162 HD
BRANCH  18  20
HETATM   20  C   UNL     1     -44.001 -51.700  13.419  1.00  0.00     0.092 C 
HETATM   21  C   UNL     1     -45.064 -52.542  12.657  1.00  0.00     0.009 C 
HETATM   22  C   UNL     1     -45.057 -53.995  13.172  1.00  0.00     0.011 C 
HETATM   23  C   UNL     1     -46.457 -51.932  12.897  1.00  0.00     0.011 C 
HETATM   24  C   UNL     1     -45.403 -54.031  14.666  1.00  0.00    -0.013 C 
HETATM   25  C   UNL     1     -44.330 -53.231  15.422  1.00  0.00     0.011 C 
HETATM   26  C   UNL     1     -46.791 -53.397  14.887  1.00  0.00     0.009 C 
HETATM   27  C   UNL     1     -44.321 -51.768  14.939  1.00  0.00     0.009 C 
HETATM   28  C   UNL     1     -45.721 -51.170  15.204  1.00  0.00     0.011 C 
HETATM   29  C   UNL     1     -46.785 -51.941  14.401  1.00  0.00    -0.013 C 
ENDBRANCH  18  20
ENDBRANCH   1  16
TORSDOF 5
ENDMDL
MODEL 3
REMARK VINA RESULT:      -6.9      2.622      4.046
REMARK  5 active torsions:
REMARK  status: ('A' for Active; 'I' for Inactive)
REMARK    1  A    between atoms: N_5  and  C_6 
REMARK    2  A    between atoms: C_6  and  C_7 
REMARK       I    between atoms: C_7  and  N_9 
REMARK    3  A    between atoms: N_9  and  C_10 
REMARK    4  A    between atoms: C_22  and  C_23 
REMARK    5  A    between atoms: C_23  and  N_24 
ROOT
HETATM    1  C   UNL     1     -40.955 -50.685  11.667  1.00  0.00     0.255 C 
ENDROOT
BRANCH   1   2
HETATM    2  N   UNL     1     -41.321 -49.270  11.609  1.00  0.00    -0.247 N 
HETATM    3  N   UNL     1     -42.466 -48.913  10.932  1.00  0.00    -0.299 N 
HETATM    4  C   UNL     1     -42.748 -47.646  10.813  1.00  0.00     0.029 A 
ATOM      5  HN  UNL     1     -43.079 -49.624  10.532  1.00  0.00     0.187 HD
HETATM    6  C   UNL     1     -43.987 -47.280  10.030  1.00  0.00     0.070 C 
HETATM    7  C   UNL     1     -41.936 -46.539  11.387  1.00  0.00    -0.013 A 
HETATM    8  C   UNL     1     -40.847 -46.941  12.053  1.00  0.00     0.103 A 
HETATM    9  C   UNL     1     -42.355 -45.117  11.190  1.00  0.00     0.052 C 
HETATM   10  C   UNL     1     -40.476 -48.361  12.220  1.00  0.00     0.282 A 
HETATM   11  O   UNL     1     -39.473 -48.678  12.844  1.00  0.00    -0.265 OA
BRANCH   8  12
HETATM   12  C   UNL     1     -39.867 -45.965  12.682  1.00  0.00    -0.031 C 
BRANCH  12  13
HETATM   13  N   UNL     1     -39.054 -45.155  13.205  1.00  0.00    -0.365 N 
ATOM     14  HN2 UNL     1     -39.727 -45.811  12.809  1.00  0.00     0.165 HD
ATOM     15  HN1 UNL     1     -38.397 -44.499  13.627  1.00  0.00     0.165 HD
ENDBRANCH  12  13
ENDBRANCH   8  12
ENDBRANCH   1   2
BRANCH   1  16
HETATM   16  C   UNL     1     -41.560 -51.402  12.874  1.00  0.00     0.237 C 
HETATM   17  O   UNL     1     -40.896 -51.682  13.867  1.00  0.00    -0.272 OA
HETATM   18  N   UNL     1     -42.843 -51.882  12.663  1.00  0.00    -0.354 N 
HETATM   19  H   UNL     1     -43.244 -51.628  11.768  1.00  0.00     0.162 HD
BRANCH  18  20
HETATM   20  C   UNL     1     -43.521 -52.864  13.510  1.00  0.00     0.092 C 
HETATM   21  C   UNL     1     -44.720 -53.548  12.793  1.00  0.00     0.009 C 
HETATM   22  C   UNL     1     -45.402 -54.552  13.744  1.00  0.00     0.011 C 
HETATM   23  C   UNL     1     -45.742 -52.472  12.384  1.00  0.00     0.011 C 
HETATM   24  C   UNL     1     -45.940 -53.828  14.985  1.00  0.00    -0.013 C 
HETATM   25  C   UNL     1     -44.748 -53.186  15.714  1.00  0.00     0.011 C 
HETATM   26  C   UNL     1     -46.944 -52.742  14.552  1.00  0.00     0.009 C 
HETATM   27  C   UNL     1     -44.051 -52.165  14.794  1.00  0.00     0.009 C 
HETATM   28  C   UNL     1     -45.088 -51.086  14.408  1.00  0.00     0.011 C 
HETATM   29  C   UNL     1     -46.253 -51.727  13.631  1.00  0.00    -0.013 C 
ENDBRANCH  18  20
ENDBRANCH   1  16
TORSDOF 5
ENDMDL
MODEL 4
REMARK VINA RESULT:      -6.9      1.625      2.170
REMARK  5 active torsions:
REMARK  status: ('A' for Active; 'I' for Inactive)
REMARK    1  A    between atoms: N_5  and  C_6 
REMARK    2  A    between atoms: C_6  and  C_7 
REMARK       I    between atoms: C_7  and  N_9 
REMARK    3  A    between atoms: N_9  and  C_10 
REMARK    4  A    between atoms: C_22  and  C_23 
REMARK    5  A    between atoms: C_23  and  N_24 
ROOT
HETATM    1  C   UNL     1     -40.890 -51.915  11.764  1.00  0.00     0.255 C 
ENDROOT
BRANCH   1   2
HETATM    2  N   UNL     1     -40.073 -50.831  12.309  1.00  0.00    -0.247 N 
HETATM    3  N   UNL     1     -39.195 -51.118  13.332  1.00  0.00    -0.299 N 
HETATM    4  C   UNL     1     -38.527 -50.137  13.869  1.00  0.00     0.029 A 
ATOM      5  HN  UNL     1     -39.072 -52.075  13.660  1.00  0.00     0.187 HD
HETATM    6  C   UNL     1     -37.603 -50.472  15.017  1.00  0.00     0.070 C 
HETATM    7  C   UNL     1     -38.613 -48.715  13.439  1.00  0.00    -0.013 A 
HETATM    8  C   UNL     1     -39.463 -48.494  12.429  1.00  0.00     0.103 A 
HETATM    9  C   UNL     1     -37.797 -47.669  14.128  1.00  0.00     0.052 C 
HETATM   10  C   UNL     1     -40.248 -49.565  11.781  1.00  0.00     0.282 A 
HETATM   11  O   UNL     1     -41.008 -49.313  10.855  1.00  0.00    -0.265 OA
BRANCH   8  12
HETATM   12  C   UNL     1     -39.723 -47.106  11.867  1.00  0.00    -0.031 C 
BRANCH  12  13
HETATM   13  N   UNL     1     -39.940 -45.955  11.401  1.00  0.00    -0.365 N 
ATOM     14  HN2 UNL     1     -39.792 -46.885  11.793  1.00  0.00     0.165 HD
ATOM     15  HN1 UNL     1     -40.115 -45.024  11.024  1.00  0.00     0.165 HD
ENDBRANCH  12  13
ENDBRANCH   8  12
ENDBRANCH   1   2
BRANCH   1  16
HETATM   16  C   UNL     1     -41.441 -52.842  12.848  1.00  0.00     0.237 C 
HETATM   17  O   UNL     1     -40.819 -53.820  13.248  1.00  0.00    -0.272 OA
HETATM   18  N   UNL     1     -42.765 -52.602  13.177  1.00  0.00    -0.354 N 
HETATM   19  H   UNL     1     -43.173 -51.796  12.718  1.00  0.00     0.162 HD
BRANCH  18  20
HETATM   20  C   UNL     1     -43.622 -53.521  13.928  1.00  0.00     0.092 C 
HETATM   21  C   UNL     1     -44.840 -54.018  13.097  1.00  0.00     0.009 C 
HETATM   22  C   UNL     1     -45.712 -54.962  13.948  1.00  0.00     0.011 C 
HETATM   23  C   UNL     1     -45.686 -52.806  12.669  1.00  0.00     0.011 C 
HETATM   24  C   UNL     1     -46.247 -54.224  15.182  1.00  0.00    -0.013 C 
HETATM   25  C   UNL     1     -45.043 -53.768  16.022  1.00  0.00     0.011 C 
HETATM   26  C   UNL     1     -47.073 -53.003  14.731  1.00  0.00     0.009 C 
HETATM   27  C   UNL     1     -44.157 -52.810  15.202  1.00  0.00     0.009 C 
HETATM   28  C   UNL     1     -45.019 -51.593  14.797  1.00  0.00     0.011 C 
HETATM   29  C   UNL     1     -46.193 -52.049  13.911  1.00  0.00    -0.013 C 
ENDBRANCH  18  20
ENDBRANCH   1  16
TORSDOF 5
ENDMDL
MODEL 5
REMARK VINA RESULT:      -6.9      1.851      2.429
REMARK  5 active torsions:
REMARK  status: ('A' for Active; 'I' for Inactive)
REMARK    1  A    between atoms: N_5  and  C_6 
REMARK    2  A    between atoms: C_6  and  C_7 
REMARK       I    between atoms: C_7  and  N_9 
REMARK    3  A    between atoms: N_9  and  C_10 
REMARK    4  A    between atoms: C_22  and  C_23 
REMARK    5  A    between atoms: C_23  and  N_24 
ROOT
HETATM    1  C   UNL     1     -40.126 -52.351  14.950  1.00  0.00     0.255 C 
ENDROOT
BRANCH   1   2
HETATM    2  N   UNL     1     -39.964 -51.118  14.181  1.00  0.00    -0.247 N 
HETATM    3  N   UNL     1     -40.784 -50.049  14.468  1.00  0.00    -0.299 N 
HETATM    4  C   UNL     1     -40.692 -48.980  13.729  1.00  0.00     0.029 A 
ATOM      5  HN  UNL     1     -41.447 -50.094  15.241  1.00  0.00     0.187 HD
HETATM    6  C   UNL     1     -41.631 -47.838  14.039  1.00  0.00     0.070 C 
HETATM    7  C   UNL     1     -39.736 -48.807  12.602  1.00  0.00    -0.013 A 
HETATM    8  C   UNL     1     -38.948 -49.866  12.379  1.00  0.00     0.103 A 
HETATM    9  C   UNL     1     -39.715 -47.532  11.820  1.00  0.00     0.052 C 
HETATM   10  C   UNL     1     -39.007 -51.104  13.182  1.00  0.00     0.282 A 
HETATM   11  O   UNL     1     -38.260 -52.043  12.942  1.00  0.00    -0.265 OA
BRANCH   8  12
HETATM   12  C   UNL     1     -37.930 -49.904  11.251  1.00  0.00    -0.031 C 
BRANCH  12  13
HETATM   13  N   UNL     1     -37.085 -49.935  10.316  1.00  0.00    -0.365 N 
ATOM     14  HN2 UNL     1     -37.776 -49.881  11.064  1.00  0.00     0.165 HD
ATOM     15  HN1 UNL     1     -36.401 -49.961   9.559  1.00  0.00     0.165 HD
ENDBRANCH  12  13
ENDBRANCH   8  12
ENDBRANCH   1   2
BRANCH   1  16
HETATM   16  C   UNL     1     -41.296 -53.204  14.459  1.00  0.00     0.237 C 
HETATM   17  O   UNL     1     -41.206 -53.931  13.476  1.00  0.00    -0.272 OA
HETATM   18  N   UNL     1     -42.500 -52.928  15.087  1.00  0.00    -0.354 N 
HETATM   19  H   UNL     1     -42.435 -52.256  15.842  1.00  0.00     0.162 HD
BRANCH  18  20
HETATM   20  C   UNL     1     -43.815 -53.352  14.603  1.00  0.00     0.092 C 
HETATM   21  C   UNL     1     -44.376 -52.415  13.496  1.00  0.00     0.009 C 
HETATM   22  C   UNL     1     -45.768 -52.902  13.045  1.00  0.00     0.011 C 
HETATM   23  C   UNL     1     -44.504 -50.989  14.060  1.00  0.00     0.011 C 
HETATM   24  C   UNL     1     -46.746 -52.883  14.227  1.00  0.00    -0.013 C 
HETATM   25  C   UNL     1     -46.210 -53.839  15.304  1.00  0.00     0.011 C 
HETATM   26  C   UNL     1     -46.842 -51.451  14.790  1.00  0.00     0.009 C 
HETATM   27  C   UNL     1     -44.823 -53.371  15.786  1.00  0.00     0.009 C 
HETATM   28  C   UNL     1     -44.975 -51.946  16.363  1.00  0.00     0.011 C 
HETATM   29  C   UNL     1     -45.461 -50.981  15.266  1.00  0.00    -0.013 C 
ENDBRANCH  18  20
ENDBRANCH   1  16
TORSDOF 5
ENDMDL
MODEL 6
REMARK VINA RESULT:      -6.7      2.351      6.216
REMARK  5 active torsions:
REMARK  status: ('A' for Active; 'I' for Inactive)
REMARK    1  A    between atoms: N_5  and  C_6 
REMARK    2  A    between atoms: C_6  and  C_7 
REMARK       I    between atoms: C_7  and  N_9 
REMARK    3  A    between atoms: N_9  and  C_10 
REMARK    4  A    between atoms: C_22  and  C_23 
REMARK    5  A    between atoms: C_23  and  N_24 
ROOT
HETATM    1  C   UNL     1     -42.124 -53.137  12.237  1.00  0.00     0.255 C 
ENDROOT
BRANCH   1   2
HETATM    2  N   UNL     1     -43.324 -52.710  12.956  1.00  0.00    -0.247 N 
HETATM    3  N   UNL     1     -44.487 -52.520  12.242  1.00  0.00    -0.299 N 
HETATM    4  C   UNL     1     -45.533 -52.064  12.870  1.00  0.00     0.029 A 
ATOM      5  HN  UNL     1     -44.528 -52.733  11.245  1.00  0.00     0.187 HD
HETATM    6  C   UNL     1     -46.783 -51.826  12.057  1.00  0.00     0.070 C 
HETATM    7  C   UNL     1     -45.581 -51.756  14.325  1.00  0.00    -0.013 A 
HETATM    8  C   UNL     1     -44.433 -51.978  14.976  1.00  0.00     0.103 A 
HETATM    9  C   UNL     1     -46.840 -51.237  14.944  1.00  0.00     0.052 C 
HETATM   10  C   UNL     1     -43.215 -52.494  14.317  1.00  0.00     0.282 A 
HETATM   11  O   UNL     1     -42.190 -52.686  14.957  1.00  0.00    -0.265 OA
BRANCH   8  12
HETATM   12  C   UNL     1     -44.264 -51.692  16.459  1.00  0.00    -0.031 C 
BRANCH  12  13
HETATM   13  N   UNL     1     -44.123 -51.454  17.689  1.00  0.00    -0.365 N 
ATOM     14  HN2 UNL     1     -44.229 -51.677  16.699  1.00  0.00     0.165 HD
ATOM     15  HN1 UNL     1     -44.010 -51.262  18.684  1.00  0.00     0.165 HD
ENDBRANCH  12  13
ENDBRANCH   8  12
ENDBRANCH   1   2
BRANCH   1  16
HETATM   16  C   UNL     1     -41.104 -52.010  12.067  1.00  0.00     0.237 C 
HETATM   17  O   UNL     1     -39.932 -52.133  12.407  1.00  0.00    -0.272 OA
HETATM   18  N   UNL     1     -41.660 -50.795  11.699  1.00  0.00    -0.354 N 
HETATM   19  H   UNL     1     -42.655 -50.828  11.512  1.00  0.00     0.162 HD
BRANCH  18  20
HETATM   20  C   UNL     1     -40.979 -49.502  11.781  1.00  0.00     0.092 C 
HETATM   21  C   UNL     1     -40.918 -48.948  13.234  1.00  0.00     0.009 C 
HETATM   22  C   UNL     1     -40.210 -47.579  13.249  1.00  0.00     0.011 C 
HETATM   23  C   UNL     1     -42.351 -48.776  13.768  1.00  0.00     0.011 C 
HETATM   24  C   UNL     1     -40.982 -46.571  12.387  1.00  0.00    -0.013 C 
HETATM   25  C   UNL     1     -41.008 -47.101  10.944  1.00  0.00     0.011 C 
HETATM   26  C   UNL     1     -42.420 -46.431  12.925  1.00  0.00     0.009 C 
HETATM   27  C   UNL     1     -41.722 -48.466  10.892  1.00  0.00     0.009 C 
HETATM   28  C   UNL     1     -43.163 -48.269  11.417  1.00  0.00     0.011 C 
HETATM   29  C   UNL     1     -43.132 -47.790  12.879  1.00  0.00    -0.013 C 
ENDBRANCH  18  20
ENDBRANCH   1  16
TORSDOF 5
ENDMDL
MODEL 7
REMARK VINA RESULT:      -6.6      1.776      6.056
REMARK  5 active torsions:
REMARK  status: ('A' for Active; 'I' for Inactive)
REMARK    1  A    between atoms: N_5  and  C_6 
REMARK    2  A    between atoms: C_6  and  C_7 
REMARK       I    between atoms: C_7  and  N_9 
REMARK    3  A    between atoms: N_9  and  C_10 
REMARK    4  A    between atoms: C_22  and  C_23 
REMARK    5  A    between atoms: C_23  and  N_24 
ROOT
HETATM    1  C   UNL     1     -42.047 -54.012  13.948  1.00  0.00     0.255 C 
ENDROOT
BRANCH   1   2
HETATM    2  N   UNL     1     -43.287 -53.284  14.215  1.00  0.00    -0.247 N 
HETATM    3  N   UNL     1     -43.563 -52.904  15.510  1.00  0.00    -0.299 N 
HETATM    4  C   UNL     1     -44.704 -52.326  15.758  1.00  0.00     0.029 A 
ATOM      5  HN  UNL     1     -42.889 -53.071  16.257  1.00  0.00     0.187 HD
HETATM    6  C   UNL     1     -44.999 -51.958  17.193  1.00  0.00     0.070 C 
HETATM    7  C   UNL     1     -45.735 -52.011  14.734  1.00  0.00    -0.013 A 
HETATM    8  C   UNL     1     -45.410 -52.381  13.489  1.00  0.00     0.103 A 
HETATM    9  C   UNL     1     -47.013 -51.342  15.131  1.00  0.00     0.052 C 
HETATM   10  C   UNL     1     -44.132 -53.039  13.147  1.00  0.00     0.282 A 
HETATM   11  O   UNL     1     -43.877 -53.353  11.992  1.00  0.00    -0.265 OA
BRANCH   8  12
HETATM   12  C   UNL     1     -46.342 -52.182  12.306  1.00  0.00    -0.031 C 
BRANCH  12  13
HETATM   13  N   UNL     1     -47.116 -52.016  11.324  1.00  0.00    -0.365 N 
ATOM     14  HN2 UNL     1     -46.471 -52.128  12.107  1.00  0.00     0.165 HD
ATOM     15  HN1 UNL     1     -47.742 -51.881  10.530  1.00  0.00     0.165 HD
ENDBRANCH  12  13
ENDBRANCH   8  12
ENDBRANCH   1   2
BRANCH   1  16
HETATM   16  C   UNL     1     -40.801 -53.225  14.355  1.00  0.00     0.237 C 
HETATM   17  O   UNL     1     -40.338 -53.277  15.489  1.00  0.00    -0.272 OA
HETATM   18  N   UNL     1     -40.377 -52.307  13.407  1.00  0.00    -0.354 N 
HETATM   19  H   UNL     1     -40.896 -52.331  12.537  1.00  0.00     0.162 HD
BRANCH  18  20
HETATM   20  C   UNL     1     -39.431 -51.219  13.658  1.00  0.00     0.092 C 
HETATM   21  C   UNL     1     -40.074 -50.032  14.432  1.00  0.00     0.009 C 
HETATM   22  C   UNL     1     -39.034 -48.914  14.644  1.00  0.00     0.011 C 
HETATM   23  C   UNL     1     -41.250 -49.474  13.612  1.00  0.00     0.011 C 
HETATM   24  C   UNL     1     -38.537 -48.386  13.292  1.00  0.00    -0.013 C 
HETATM   25  C   UNL     1     -37.867 -49.550  12.544  1.00  0.00     0.011 C 
HETATM   26  C   UNL     1     -39.733 -47.852  12.479  1.00  0.00     0.009 C 
HETATM   27  C   UNL     1     -38.885 -50.682  12.304  1.00  0.00     0.009 C 
HETATM   28  C   UNL     1     -40.049 -50.106  11.466  1.00  0.00     0.011 C 
HETATM   29  C   UNL     1     -40.750 -48.976  12.242  1.00  0.00    -0.013 C 
ENDBRANCH  18  20
ENDBRANCH   1  16
TORSDOF 5
ENDMDL
MODEL 8
REMARK VINA RESULT:      -6.6      3.663      7.154
REMARK  5 active torsions:
REMARK  status: ('A' for Active; 'I' for Inactive)
REMARK    1  A    between atoms: N_5  and  C_6 
REMARK    2  A    between atoms: C_6  and  C_7 
REMARK       I    between atoms: C_7  and  N_9 
REMARK    3  A    between atoms: N_9  and  C_10 
REMARK    4  A    between atoms: C_22  and  C_23 
REMARK    5  A    between atoms: C_23  and  N_24 
ROOT
HETATM    1  C   UNL     1     -40.821 -49.970  11.467  1.00  0.00     0.255 C 
ENDROOT
BRANCH   1   2
HETATM    2  N   UNL     1     -41.253 -51.228  12.076  1.00  0.00    -0.247 N 
HETATM    3  N   UNL     1     -42.598 -51.520  12.101  1.00  0.00    -0.299 N 
HETATM    4  C   UNL     1     -42.988 -52.602  12.713  1.00  0.00     0.029 A 
ATOM      5  HN  UNL     1     -43.275 -50.904  11.650  1.00  0.00     0.187 HD
HETATM    6  C   UNL     1     -44.472 -52.878  12.763  1.00  0.00     0.070 C 
HETATM    7  C   UNL     1     -42.077 -53.578  13.372  1.00  0.00    -0.013 A 
HETATM    8  C   UNL     1     -40.780 -53.259  13.300  1.00  0.00     0.103 A 
HETATM    9  C   UNL     1     -42.634 -54.791  14.046  1.00  0.00     0.052 C 
HETATM   10  C   UNL     1     -40.279 -52.046  12.619  1.00  0.00     0.282 A 
HETATM   11  O   UNL     1     -39.081 -51.801  12.576  1.00  0.00    -0.265 OA
BRANCH   8  12
HETATM   12  C   UNL     1     -39.692 -54.105  13.940  1.00  0.00    -0.031 C 
BRANCH  12  13
HETATM   13  N   UNL     1     -38.790 -54.808  14.471  1.00  0.00    -0.365 N 
ATOM     14  HN2 UNL     1     -39.498 -54.219  14.032  1.00  0.00     0.165 HD
ATOM     15  HN1 UNL     1     -38.060 -55.377  14.901  1.00  0.00     0.165 HD
ENDBRANCH  12  13
ENDBRANCH   8  12
ENDBRANCH   1   2
BRANCH   1  16
HETATM   16  C   UNL     1     -41.327 -48.743  12.225  1.00  0.00     0.237 C 
HETATM   17  O   UNL     1     -42.018 -48.838  13.233  1.00  0.00    -0.272 OA
HETATM   18  N   UNL     1     -41.114 -47.543  11.565  1.00  0.00    -0.354 N 
HETATM   19  H   UNL     1     -40.583 -47.624  10.707  1.00  0.00     0.162 HD
BRANCH  18  20
HETATM   20  C   UNL     1     -41.768 -46.276  11.897  1.00  0.00     0.092 C 
HETATM   21  C   UNL     1     -41.685 -45.238  10.741  1.00  0.00     0.009 C 
HETATM   22  C   UNL     1     -42.371 -43.923  11.161  1.00  0.00     0.011 C 
HETATM   23  C   UNL     1     -40.207 -44.953  10.425  1.00  0.00     0.011 C 
HETATM   24  C   UNL     1     -41.669 -43.326  12.388  1.00  0.00    -0.013 C 
HETATM   25  C   UNL     1     -41.786 -44.336  13.541  1.00  0.00     0.011 C 
HETATM   26  C   UNL     1     -40.186 -43.068  12.056  1.00  0.00     0.009 C 
HETATM   27  C   UNL     1     -41.097 -45.660  13.157  1.00  0.00     0.009 C 
HETATM   28  C   UNL     1     -39.612 -45.355  12.859  1.00  0.00     0.011 C 
HETATM   29  C   UNL     1     -39.499 -44.385  11.669  1.00  0.00    -0.013 C 
ENDBRANCH  18  20
ENDBRANCH   1  16
TORSDOF 5
ENDMDL
MODEL 9
REMARK VINA RESULT:      -6.5      2.840      5.978
REMARK  5 active torsions:
REMARK  status: ('A' for Active; 'I' for Inactive)
REMARK    1  A    between atoms: N_5  and  C_6 
REMARK    2  A    between atoms: C_6  and  C_7 
REMARK       I    between atoms: C_7  and  N_9 
REMARK    3  A    between atoms: N_9  and  C_10 
REMARK    4  A    between atoms: C_22  and  C_23 
REMARK    5  A    between atoms: C_23  and  N_24 
ROOT
HETATM    1  C   UNL     1     -41.225 -52.163  11.761  1.00  0.00     0.255 C 
ENDROOT
BRANCH   1   2
HETATM    2  N   UNL     1     -41.641 -53.036  12.858  1.00  0.00    -0.247 N 
HETATM    3  N   UNL     1     -40.692 -53.449  13.767  1.00  0.00    -0.299 N 
HETATM    4  C   UNL     1     -41.047 -54.290  14.697  1.00  0.00     0.029 A 
ATOM      5  HN  UNL     1     -39.733 -53.105  13.713  1.00  0.00     0.187 HD
HETATM    6  C   UNL     1     -39.979 -54.760  15.655  1.00  0.00     0.070 C 
HETATM    7  C   UNL     1     -42.425 -54.822  14.877  1.00  0.00    -0.013 A 
HETATM    8  C   UNL     1     -43.313 -54.373  13.982  1.00  0.00     0.103 A 
HETATM    9  C   UNL     1     -42.723 -55.783  15.983  1.00  0.00     0.052 C 
HETATM   10  C   UNL     1     -42.968 -53.420  12.906  1.00  0.00     0.282 A 
HETATM   11  O   UNL     1     -43.818 -53.034  12.115  1.00  0.00    -0.265 OA
BRANCH   8  12
HETATM   12  C   UNL     1     -44.764 -54.824  13.971  1.00  0.00    -0.031 C 
BRANCH  12  13
HETATM   13  N   UNL     1     -45.968 -55.199  13.961  1.00  0.00    -0.365 N 
ATOM     14  HN2 UNL     1     -45.001 -54.873  13.948  1.00  0.00     0.165 HD
ATOM     15  HN1 UNL     1     -46.942 -55.502  13.953  1.00  0.00     0.165 HD
ENDBRANCH  12  13
ENDBRANCH   8  12
ENDBRANCH   1   2
BRANCH   1  16
HETATM   16  C   UNL     1     -40.620 -50.846  12.250  1.00  0.00     0.237 C 
HETATM   17  O   UNL     1     -39.532 -50.797  12.811  1.00  0.00    -0.272 OA
HETATM   18  N   UNL     1     -41.489 -49.769  12.190  1.00  0.00    -0.354 N 
HETATM   19  H   UNL     1     -42.382 -49.973  11.757  1.00  0.00     0.162 HD
BRANCH  18  20
HETATM   20  C   UNL     1     -41.290 -48.492  12.877  1.00  0.00     0.092 C 
HETATM   21  C   UNL     1     -42.629 -47.763  13.187  1.00  0.00     0.009 C 
HETATM   22  C   UNL     1     -42.350 -46.419  13.889  1.00  0.00     0.011 C 
HETATM   23  C   UNL     1     -43.373 -47.493  11.867  1.00  0.00     0.011 C 
HETATM   24  C   UNL     1     -41.511 -45.509  12.982  1.00  0.00    -0.013 C 
HETATM   25  C   UNL     1     -40.173 -46.214  12.708  1.00  0.00     0.011 C 
HETATM   26  C   UNL     1     -42.264 -45.269  11.659  1.00  0.00     0.009 C 
HETATM   27  C   UNL     1     -40.417 -47.557  11.994  1.00  0.00     0.009 C 
HETATM   28  C   UNL     1     -41.149 -47.263  10.665  1.00  0.00     0.011 C 
HETATM   29  C   UNL     1     -42.513 -46.607  10.947  1.00  0.00    -0.013 C 
ENDBRANCH  18  20
ENDBRANCH   1  16
TORSDOF 5
ENDMDL
