MODEL 1
REMARK VINA RESULT:      -7.2      0.000      0.000
REMARK  3 active torsions:
REMARK  status: ('A' for Active; 'I' for Inactive)
REMARK       I    between atoms: C_2  and  N_3 
REMARK       I    between atoms: C_2  and  N_12 
REMARK    1  A    between atoms: N_3  and  C_4 
REMARK    2  A    between atoms: N_12  and  C_13 
REMARK    3  A    between atoms: C_19  and  N_20 
ROOT
HETATM    1  O   UNL     1     -41.779 -49.843  13.412  1.00  0.00    -0.247 OA
HETATM    2  C   UNL     1     -41.953 -50.274  12.283  1.00  0.00     0.321 C 
HETATM    3  N   UNL     1     -42.482 -51.525  12.055  1.00  0.00    -0.330 N 
HETATM    4  N   UNL     1     -41.707 -49.612  11.106  1.00  0.00    -0.306 N 
HETATM    5  H   UNL     1     -41.957 -52.050  11.369  1.00  0.00     0.165 HD
HETATM    6  H   UNL     1     -42.252 -49.913  10.308  1.00  0.00     0.171 HD
ENDROOT
BRANCH   4   7
HETATM    7  C   UNL     1     -41.191 -48.299  10.988  1.00  0.00     0.075 A 
HETATM    8  C   UNL     1     -39.994 -47.909  11.592  1.00  0.00     0.034 A 
HETATM    9  C   UNL     1     -39.584 -46.586  11.524  1.00  0.00     0.019 A 
HETATM   10  C   UNL     1     -40.380 -45.700  10.832  1.00  0.00     0.089 A 
HETATM   11  N   UNL     1     -41.528 -46.041  10.204  1.00  0.00    -0.355 N 
HETATM   12  C   UNL     1     -41.937 -47.332  10.268  1.00  0.00     0.109 A 
ATOM     13  HN  UNL     1     -42.073 -45.344   9.696  1.00  0.00     0.166 HD
BRANCH  12  14
HETATM   14  N   UNL     1     -43.141 -47.714   9.626  1.00  0.00    -0.267 NA
HETATM   15  C   UNL     1     -44.320 -47.786  10.507  1.00  0.00     0.097 C 
HETATM   16  C   UNL     1     -45.490 -47.372   9.623  1.00  0.00     0.016 C 
HETATM   17  C   UNL     1     -44.871 -46.355   8.686  1.00  0.00     0.016 C 
HETATM   18  C   UNL     1     -43.461 -46.885   8.449  1.00  0.00     0.097 C 
ENDBRANCH  12  14
ENDBRANCH   4   7
BRANCH   3  19
HETATM   19  C   UNL     1     -42.984 -52.323  13.182  1.00  0.00     0.172 C 
HETATM   20  C   UNL     1     -42.396 -53.739  13.175  1.00  0.00     0.034 C 
HETATM   21  C   UNL     1     -42.601 -54.456  14.501  1.00  0.00     0.004 C 
HETATM   22  C   UNL     1     -43.942 -55.170  14.600  1.00  0.00     0.015 C 
HETATM   23  C   UNL     1     -45.113 -54.500  13.896  1.00  0.00     0.095 C 
HETATM   24  N   UNL     1     -45.225 -53.070  14.086  1.00  0.00    -0.261 NA
HETATM   25  C   UNL     1     -44.517 -52.168  13.329  1.00  0.00     0.220 C 
HETATM   26  H   UNL     1     -46.184 -52.746  14.154  1.00  0.00     0.130 HD
HETATM   27  O   UNL     1     -45.102 -51.148  12.953  1.00  0.00    -0.278 OA
ENDBRANCH   3  19
TORSDOF 3
ENDMDL
MODEL 2
REMARK VINA RESULT:      -7.0      2.061      3.996
REMARK  3 active torsions:
REMARK  status: ('A' for Active; 'I' for Inactive)
REMARK       I    between atoms: C_2  and  N_3 
REMARK       I    between atoms: C_2  and  N_12 
REMARK    1  A    between atoms: N_3  and  C_4 
REMARK    2  A    between atoms: N_12  and  C_13 
REMARK    3  A    between atoms: C_19  and  N_20 
ROOT
HETATM    1  O   UNL     1     -43.460 -49.520  13.716  1.00  0.00    -0.247 OA
HETATM    2  C   UNL     1     -43.159 -50.302  12.828  1.00  0.00     0.321 C 
HETATM    3  N   UNL     1     -43.656 -51.586  12.789  1.00  0.00    -0.330 N 
HETATM    4  N   UNL     1     -42.351 -50.044  11.749  1.00  0.00    -0.306 N 
HETATM    5  H   UNL     1     -42.938 -52.275  12.616  1.00  0.00     0.165 HD
HETATM    6  H   UNL     1     -42.515 -50.616  10.929  1.00  0.00     0.171 HD
ENDROOT
BRANCH   4   7
HETATM    7  C   UNL     1     -41.707 -48.814  11.473  1.00  0.00     0.075 A 
HETATM    8  C   UNL     1     -42.388 -47.717  10.941  1.00  0.00     0.034 A 
HETATM    9  C   UNL     1     -41.691 -46.568  10.601  1.00  0.00     0.019 A 
HETATM   10  C   UNL     1     -40.331 -46.550  10.827  1.00  0.00     0.089 A 
HETATM   11  N   UNL     1     -39.638 -47.576  11.370  1.00  0.00    -0.355 N 
HETATM   12  C   UNL     1     -40.313 -48.704  11.703  1.00  0.00     0.109 A 
ATOM     13  HN  UNL     1     -38.632 -47.504  11.524  1.00  0.00     0.166 HD
BRANCH  12  14
HETATM   14  N   UNL     1     -39.609 -49.796  12.267  1.00  0.00    -0.267 NA
HETATM   15  C   UNL     1     -38.361 -50.156  11.571  1.00  0.00     0.097 C 
HETATM   16  C   UNL     1     -37.433 -50.655  12.672  1.00  0.00     0.016 C 
HETATM   17  C   UNL     1     -37.829 -49.809  13.866  1.00  0.00     0.016 C 
HETATM   18  C   UNL     1     -39.336 -49.633  13.706  1.00  0.00     0.097 C 
ENDBRANCH  12  14
ENDBRANCH   4   7
BRANCH   3  19
HETATM   19  C   UNL     1     -44.683 -52.002  13.754  1.00  0.00     0.172 C 
HETATM   20  C   UNL     1     -44.057 -52.593  15.022  1.00  0.00     0.034 C 
HETATM   21  C   UNL     1     -45.054 -52.691  16.167  1.00  0.00     0.004 C 
HETATM   22  C   UNL     1     -45.872 -53.975  16.148  1.00  0.00     0.015 C 
HETATM   23  C   UNL     1     -46.217 -54.530  14.773  1.00  0.00     0.095 C 
HETATM   24  N   UNL     1     -46.675 -53.560  13.801  1.00  0.00    -0.261 NA
HETATM   25  C   UNL     1     -45.808 -52.800  13.053  1.00  0.00     0.220 C 
HETATM   26  H   UNL     1     -47.400 -53.915  13.187  1.00  0.00     0.130 HD
HETATM   27  O   UNL     1     -46.079 -52.624  11.862  1.00  0.00    -0.278 OA
ENDBRANCH   3  19
TORSDOF 3
ENDMDL
MODEL 3
REMARK VINA RESULT:      -7.0      1.560      2.143
REMARK  3 active torsions:
REMARK  status: ('A' for Active; 'I' for Inactive)
REMARK       I    between atoms: C_2  and  N_3 
REMARK       I    between atoms: C_2  and  N_12 
REMARK    1  A    between atoms: N_3  and  C_4 
REMARK    2  A    between atoms: N_12  and  C_13 
REMARK    3  A    between atoms: C_19  and  N_20 
ROOT
HETATM    1  O   UNL     1     -41.353 -49.937  12.926  1.00  0.00    -0.247 OA
HETATM    2  C   UNL     1     -41.103 -50.122  11.745  1.00  0.00     0.321 C 
HETATM    3  N   UNL     1     -41.087 -51.384  11.193  1.00  0.00    -0.330 N 
HETATM    4  N   UNL     1     -40.851 -49.159  10.800  1.00  0.00    -0.306 N 
HETATM    5  H   UNL     1     -40.270 -51.547  10.622  1.00  0.00     0.165 HD
HETATM    6  H   UNL     1     -41.059 -49.415   9.843  1.00  0.00     0.171 HD
ENDROOT
BRANCH   4   7
HETATM    7  C   UNL     1     -40.824 -47.762  11.030  1.00  0.00     0.075 A 
HETATM    8  C   UNL     1     -39.776 -47.137  11.708  1.00  0.00     0.034 A 
HETATM    9  C   UNL     1     -39.845 -45.781  11.989  1.00  0.00     0.019 A 
HETATM   10  C   UNL     1     -40.959 -45.090  11.559  1.00  0.00     0.089 A 
HETATM   11  N   UNL     1     -41.980 -45.649  10.872  1.00  0.00    -0.355 N 
HETATM   12  C   UNL     1     -41.920 -46.975  10.594  1.00  0.00     0.109 A 
ATOM     13  HN  UNL     1     -42.775 -45.087  10.569  1.00  0.00     0.166 HD
BRANCH  12  14
HETATM   14  N   UNL     1     -42.980 -47.586   9.882  1.00  0.00    -0.267 NA
HETATM   15  C   UNL     1     -44.209 -47.807  10.665  1.00  0.00     0.097 C 
HETATM   16  C   UNL     1     -45.344 -47.643   9.660  1.00  0.00     0.016 C 
HETATM   17  C   UNL     1     -44.812 -46.588   8.710  1.00  0.00     0.016 C 
HETATM   18  C   UNL     1     -43.319 -46.888   8.629  1.00  0.00     0.097 C 
ENDBRANCH  12  14
ENDBRANCH   4   7
BRANCH   3  19
HETATM   19  C   UNL     1     -41.512 -52.538  11.996  1.00  0.00     0.172 C 
HETATM   20  C   UNL     1     -42.994 -52.444  12.377  1.00  0.00     0.034 C 
HETATM   21  C   UNL     1     -43.546 -53.769  12.882  1.00  0.00     0.004 C 
HETATM   22  C   UNL     1     -43.326 -53.986  14.373  1.00  0.00     0.015 C 
HETATM   23  C   UNL     1     -42.039 -53.416  14.952  1.00  0.00     0.095 C 
HETATM   24  N   UNL     1     -40.843 -53.646  14.170  1.00  0.00    -0.261 NA
HETATM   25  C   UNL     1     -40.487 -52.841  13.114  1.00  0.00     0.220 C 
HETATM   26  H   UNL     1     -40.018 -53.815  14.735  1.00  0.00     0.130 HD
HETATM   27  O   UNL     1     -39.294 -52.545  12.994  1.00  0.00    -0.278 OA
ENDBRANCH   3  19
TORSDOF 3
ENDMDL
MODEL 4
REMARK VINA RESULT:      -6.9      1.812      6.738
REMARK  3 active torsions:
REMARK  status: ('A' for Active; 'I' for Inactive)
REMARK       I    between atoms: C_2  and  N_3 
REMARK       I    between atoms: C_2  and  N_12 
REMARK    1  A    between atoms: N_3  and  C_4 
REMARK    2  A    between atoms: N_12  and  C_13 
REMARK    3  A    between atoms: C_19  and  N_20 
ROOT
HETATM    1  O   UNL     1     -41.667 -49.133  12.913  1.00  0.00    -0.247 OA
HETATM    2  C   UNL     1     -41.744 -49.754  11.865  1.00  0.00     0.321 C 
HETATM    3  N   UNL     1     -41.788 -49.118  10.644  1.00  0.00    -0.330 N 
HETATM    4  N   UNL     1     -41.754 -51.118  11.719  1.00  0.00    -0.306 N 
HETATM    5  H   UNL     1     -42.516 -49.480  10.044  1.00  0.00     0.165 HD
HETATM    6  H   UNL     1     -41.422 -51.470  10.830  1.00  0.00     0.171 HD
ENDROOT
BRANCH   4   7
HETATM    7  C   UNL     1     -41.688 -52.063  12.772  1.00  0.00     0.075 A 
HETATM    8  C   UNL     1     -40.488 -52.653  13.172  1.00  0.00     0.034 A 
HETATM    9  C   UNL     1     -40.493 -53.642  14.144  1.00  0.00     0.019 A 
HETATM   10  C   UNL     1     -41.705 -53.992  14.700  1.00  0.00     0.089 A 
HETATM   11  N   UNL     1     -42.885 -53.424  14.366  1.00  0.00    -0.355 N 
HETATM   12  C   UNL     1     -42.888 -52.457  13.415  1.00  0.00     0.109 A 
ATOM     13  HN  UNL     1     -43.752 -53.714  14.819  1.00  0.00     0.166 HD
BRANCH  12  14
HETATM   14  N   UNL     1     -44.113 -51.851  13.042  1.00  0.00    -0.267 NA
HETATM   15  C   UNL     1     -45.170 -52.790  12.626  1.00  0.00     0.097 C 
HETATM   16  C   UNL     1     -46.470 -52.138  13.080  1.00  0.00     0.016 C 
HETATM   17  C   UNL     1     -46.068 -51.418  14.352  1.00  0.00     0.016 C 
HETATM   18  C   UNL     1     -44.648 -50.939  14.069  1.00  0.00     0.097 C 
ENDBRANCH  12  14
ENDBRANCH   4   7
BRANCH   3  19
HETATM   19  C   UNL     1     -41.603 -47.662  10.570  1.00  0.00     0.172 C 
HETATM   20  C   UNL     1     -40.310 -47.223  11.267  1.00  0.00     0.034 C 
HETATM   21  C   UNL     1     -39.909 -45.802  10.899  1.00  0.00     0.004 C 
HETATM   22  C   UNL     1     -40.568 -44.744  11.774  1.00  0.00     0.015 C 
HETATM   23  C   UNL     1     -41.982 -45.049  12.248  1.00  0.00     0.095 C 
HETATM   24  N   UNL     1     -42.878 -45.584  11.245  1.00  0.00    -0.261 NA
HETATM   25  C   UNL     1     -42.914 -46.920  10.926  1.00  0.00     0.220 C 
HETATM   26  H   UNL     1     -43.832 -45.253  11.339  1.00  0.00     0.130 HD
HETATM   27  O   UNL     1     -44.019 -47.438  10.741  1.00  0.00    -0.278 OA
ENDBRANCH   3  19
TORSDOF 3
ENDMDL
MODEL 5
REMARK VINA RESULT:      -6.8      1.950      7.885
REMARK  3 active torsions:
REMARK  status: ('A' for Active; 'I' for Inactive)
REMARK       I    between atoms: C_2  and  N_3 
REMARK       I    between atoms: C_2  and  N_12 
REMARK    1  A    between atoms: N_3  and  C_4 
REMARK    2  A    between atoms: N_12  and  C_13 
REMARK    3  A    between atoms: C_19  and  N_20 
ROOT
HETATM    1  O   UNL     1     -43.078 -50.180  13.284  1.00  0.00    -0.247 OA
HETATM    2  C   UNL     1     -42.486 -50.672  12.336  1.00  0.00     0.321 C 
HETATM    3  N   UNL     1     -41.785 -49.900  11.436  1.00  0.00    -0.330 N 
HETATM    4  N   UNL     1     -42.382 -52.008  12.038  1.00  0.00    -0.306 N 
HETATM    5  H   UNL     1     -41.987 -50.143  10.476  1.00  0.00     0.165 HD
HETATM    6  H   UNL     1     -41.569 -52.277  11.498  1.00  0.00     0.171 HD
ENDROOT
BRANCH   4   7
HETATM    7  C   UNL     1     -42.958 -53.068  12.779  1.00  0.00     0.075 A 
HETATM    8  C   UNL     1     -44.265 -53.507  12.562  1.00  0.00     0.034 A 
HETATM    9  C   UNL     1     -44.812 -54.484  13.380  1.00  0.00     0.019 A 
HETATM   10  C   UNL     1     -44.018 -55.006  14.379  1.00  0.00     0.089 A 
HETATM   11  N   UNL     1     -42.737 -54.634  14.603  1.00  0.00    -0.355 N 
HETATM   12  C   UNL     1     -42.197 -53.677  13.808  1.00  0.00     0.109 A 
ATOM     13  HN  UNL     1     -42.192 -55.062  15.351  1.00  0.00     0.166 HD
BRANCH  12  14
HETATM   14  N   UNL     1     -40.859 -53.264  14.027  1.00  0.00    -0.267 NA
HETATM   15  C   UNL     1     -40.586 -52.733  15.374  1.00  0.00     0.097 C 
HETATM   16  C   UNL     1     -39.147 -53.142  15.668  1.00  0.00     0.016 C 
HETATM   17  C   UNL     1     -39.017 -54.474  14.957  1.00  0.00     0.016 C 
HETATM   18  C   UNL     1     -39.868 -54.305  13.702  1.00  0.00     0.097 C 
ENDBRANCH  12  14
ENDBRANCH   4   7
BRANCH   3  19
HETATM   19  C   UNL     1     -41.619 -48.461  11.680  1.00  0.00     0.172 C 
HETATM   20  C   UNL     1     -42.390 -47.623  10.653  1.00  0.00     0.034 C 
HETATM   21  C   UNL     1     -42.538 -46.172  11.087  1.00  0.00     0.004 C 
HETATM   22  C   UNL     1     -41.353 -45.300  10.692  1.00  0.00     0.015 C 
HETATM   23  C   UNL     1     -39.989 -45.975  10.708  1.00  0.00     0.095 C 
HETATM   24  N   UNL     1     -39.713 -46.807  11.859  1.00  0.00    -0.261 NA
HETATM   25  C   UNL     1     -40.134 -48.113  11.943  1.00  0.00     0.220 C 
HETATM   26  H   UNL     1     -38.748 -46.763  12.167  1.00  0.00     0.130 HD
HETATM   27  O   UNL     1     -39.351 -48.940  12.419  1.00  0.00    -0.278 OA
ENDBRANCH   3  19
TORSDOF 3
ENDMDL
MODEL 6
REMARK VINA RESULT:      -6.6      2.166      3.920
REMARK  3 active torsions:
REMARK  status: ('A' for Active; 'I' for Inactive)
REMARK       I    between atoms: C_2  and  N_3 
REMARK       I    between atoms: C_2  and  N_12 
REMARK    1  A    between atoms: N_3  and  C_4 
REMARK    2  A    between atoms: N_12  and  C_13 
REMARK    3  A    between atoms: C_19  and  N_20 
ROOT
HETATM    1  O   UNL     1     -42.444 -48.889  12.558  1.00  0.00    -0.247 OA
HETATM    2  C   UNL     1     -41.859 -49.216  11.536  1.00  0.00     0.321 C 
HETATM    3  N   UNL     1     -40.979 -50.275  11.509  1.00  0.00    -0.330 N 
HETATM    4  N   UNL     1     -41.999 -48.649  10.295  1.00  0.00    -0.306 N 
HETATM    5  H   UNL     1     -40.112 -50.048  11.041  1.00  0.00     0.165 HD
HETATM    6  H   UNL     1     -41.782 -49.248   9.509  1.00  0.00     0.171 HD
ENDROOT
BRANCH   4   7
HETATM    7  C   UNL     1     -42.848 -47.562   9.973  1.00  0.00     0.075 A 
HETATM    8  C   UNL     1     -44.043 -47.731   9.270  1.00  0.00     0.034 A 
HETATM    9  C   UNL     1     -44.789 -46.623   8.899  1.00  0.00     0.019 A 
HETATM   10  C   UNL     1     -44.320 -45.379   9.264  1.00  0.00     0.089 A 
HETATM   11  N   UNL     1     -43.187 -45.172   9.972  1.00  0.00    -0.355 N 
HETATM   12  C   UNL     1     -42.451 -46.251  10.338  1.00  0.00     0.109 A 
ATOM     13  HN  UNL     1     -42.893 -44.229  10.224  1.00  0.00     0.166 HD
BRANCH  12  14
HETATM   14  N   UNL     1     -41.255 -46.062  11.073  1.00  0.00    -0.267 NA
HETATM   15  C   UNL     1     -40.224 -45.262  10.388  1.00  0.00     0.097 C 
HETATM   16  C   UNL     1     -39.510 -44.511  11.505  1.00  0.00     0.016 C 
HETATM   17  C   UNL     1     -40.613 -44.261  12.513  1.00  0.00     0.016 C 
HETATM   18  C   UNL     1     -41.483 -45.512  12.422  1.00  0.00     0.097 C 
ENDBRANCH  12  14
ENDBRANCH   4   7
BRANCH   3  19
HETATM   19  C   UNL     1     -40.827 -51.131  12.693  1.00  0.00     0.172 C 
HETATM   20  C   UNL     1     -39.355 -51.285  13.092  1.00  0.00     0.034 C 
HETATM   21  C   UNL     1     -39.193 -51.848  14.497  1.00  0.00     0.004 C 
HETATM   22  C   UNL     1     -39.214 -53.370  14.543  1.00  0.00     0.015 C 
HETATM   23  C   UNL     1     -40.122 -54.060  13.535  1.00  0.00     0.095 C 
HETATM   24  N   UNL     1     -41.442 -53.486  13.384  1.00  0.00    -0.261 NA
HETATM   25  C   UNL     1     -41.688 -52.410  12.564  1.00  0.00     0.220 C 
HETATM   26  H   UNL     1     -42.167 -54.178  13.229  1.00  0.00     0.130 HD
HETATM   27  O   UNL     1     -42.719 -52.429  11.885  1.00  0.00    -0.278 OA
ENDBRANCH   3  19
TORSDOF 3
ENDMDL
MODEL 7
REMARK VINA RESULT:      -6.5      2.742      7.431
REMARK  3 active torsions:
REMARK  status: ('A' for Active; 'I' for Inactive)
REMARK       I    between atoms: C_2  and  N_3 
REMARK       I    between atoms: C_2  and  N_12 
REMARK    1  A    between atoms: N_3  and  C_4 
REMARK    2  A    between atoms: N_12  and  C_13 
REMARK    3  A    between atoms: C_19  and  N_20 
ROOT
HETATM    1  O   UNL     1     -42.285 -50.289  13.586  1.00  0.00    -0.247 OA
HETATM    2  C   UNL     1     -42.530 -51.059  12.671  1.00  0.00     0.321 C 
HETATM    3  N   UNL     1     -41.706 -51.168  11.572  1.00  0.00    -0.330 N 
HETATM    4  N   UNL     1     -43.584 -51.934  12.595  1.00  0.00    -0.306 N 
HETATM    5  H   UNL     1     -42.217 -51.150  10.700  1.00  0.00     0.165 HD
HETATM    6  H   UNL     1     -43.440 -52.749  12.013  1.00  0.00     0.171 HD
ENDROOT
BRANCH   4   7
HETATM    7  C   UNL     1     -44.596 -52.096  13.572  1.00  0.00     0.075 A 
HETATM    8  C   UNL     1     -45.804 -51.398  13.520  1.00  0.00     0.034 A 
HETATM    9  C   UNL     1     -46.721 -51.522  14.553  1.00  0.00     0.019 A 
HETATM   10  C   UNL     1     -46.403 -52.363  15.598  1.00  0.00     0.089 A 
HETATM   11  N   UNL     1     -45.260 -53.083  15.672  1.00  0.00    -0.355 N 
HETATM   12  C   UNL     1     -44.359 -52.965  14.666  1.00  0.00     0.109 A 
ATOM     13  HN  UNL     1     -45.082 -53.699  16.465  1.00  0.00     0.166 HD
BRANCH  12  14
HETATM   14  N   UNL     1     -43.151 -53.703  14.724  1.00  0.00    -0.267 NA
HETATM   15  C   UNL     1     -42.183 -53.232  15.732  1.00  0.00     0.097 C 
HETATM   16  C   UNL     1     -41.471 -54.494  16.204  1.00  0.00     0.016 C 
HETATM   17  C   UNL     1     -42.552 -55.553  16.119  1.00  0.00     0.016 C 
HETATM   18  C   UNL     1     -43.361 -55.152  14.889  1.00  0.00     0.097 C 
ENDBRANCH  12  14
ENDBRANCH   4   7
BRANCH   3  19
HETATM   19  C   UNL     1     -40.425 -50.450  11.544  1.00  0.00     0.172 C 
HETATM   20  C   UNL     1     -39.535 -50.840  12.730  1.00  0.00     0.034 C 
HETATM   21  C   UNL     1     -38.090 -50.404  12.536  1.00  0.00     0.004 C 
HETATM   22  C   UNL     1     -37.824 -48.976  12.993  1.00  0.00     0.015 C 
HETATM   23  C   UNL     1     -38.962 -47.985  12.797  1.00  0.00     0.095 C 
HETATM   24  N   UNL     1     -39.635 -48.047  11.516  1.00  0.00    -0.261 NA
HETATM   25  C   UNL     1     -40.642 -48.945  11.256  1.00  0.00     0.220 C 
HETATM   26  H   UNL     1     -39.919 -47.138  11.166  1.00  0.00     0.130 HD
HETATM   27  O   UNL     1     -41.618 -48.545  10.614  1.00  0.00    -0.278 OA
ENDBRANCH   3  19
TORSDOF 3
ENDMDL
MODEL 8
REMARK VINA RESULT:      -6.4      2.067      3.075
REMARK  3 active torsions:
REMARK  status: ('A' for Active; 'I' for Inactive)
REMARK       I    between atoms: C_2  and  N_3 
REMARK       I    between atoms: C_2  and  N_12 
REMARK    1  A    between atoms: N_3  and  C_4 
REMARK    2  A    between atoms: N_12  and  C_13 
REMARK    3  A    between atoms: C_19  and  N_20 
ROOT
HETATM    1  O   UNL     1     -42.686 -51.241  14.031  1.00  0.00    -0.247 OA
HETATM    2  C   UNL     1     -42.811 -51.679  12.898  1.00  0.00     0.321 C 
HETATM    3  N   UNL     1     -43.896 -52.443  12.528  1.00  0.00    -0.330 N 
HETATM    4  N   UNL     1     -41.965 -51.465  11.838  1.00  0.00    -0.306 N 
HETATM    5  H   UNL     1     -43.631 -53.273  12.017  1.00  0.00     0.165 HD
HETATM    6  H   UNL     1     -42.383 -51.536  10.919  1.00  0.00     0.171 HD
ENDROOT
BRANCH   4   7
HETATM    7  C   UNL     1     -40.776 -50.697  11.871  1.00  0.00     0.075 A 
HETATM    8  C   UNL     1     -39.544 -51.244  12.237  1.00  0.00     0.034 A 
HETATM    9  C   UNL     1     -38.429 -50.428  12.345  1.00  0.00     0.019 A 
HETATM   10  C   UNL     1     -38.582 -49.088  12.061  1.00  0.00     0.089 A 
HETATM   11  N   UNL     1     -39.748 -48.523  11.671  1.00  0.00    -0.355 N 
HETATM   12  C   UNL     1     -40.843 -49.315  11.565  1.00  0.00     0.109 A 
ATOM     13  HN  UNL     1     -39.801 -47.526  11.463  1.00  0.00     0.166 HD
BRANCH  12  14
HETATM   14  N   UNL     1     -42.078 -48.746  11.167  1.00  0.00    -0.267 NA
HETATM   15  C   UNL     1     -42.758 -47.949  12.203  1.00  0.00     0.097 C 
HETATM   16  C   UNL     1     -43.474 -46.845  11.434  1.00  0.00     0.016 C 
HETATM   17  C   UNL     1     -42.545 -46.579  10.267  1.00  0.00     0.016 C 
HETATM   18  C   UNL     1     -41.981 -47.955   9.927  1.00  0.00     0.097 C 
ENDBRANCH  12  14
ENDBRANCH   4   7
BRANCH   3  19
HETATM   19  C   UNL     1     -45.009 -52.634  13.468  1.00  0.00     0.172 C 
HETATM   20  C   UNL     1     -45.554 -51.294  13.975  1.00  0.00     0.034 C 
HETATM   21  C   UNL     1     -46.913 -51.439  14.646  1.00  0.00     0.004 C 
HETATM   22  C   UNL     1     -46.821 -51.796  16.123  1.00  0.00     0.015 C 
HETATM   23  C   UNL     1     -45.661 -52.695  16.526  1.00  0.00     0.095 C 
HETATM   24  N   UNL     1     -45.415 -53.828  15.660  1.00  0.00    -0.261 NA
HETATM   25  C   UNL     1     -44.672 -53.728  14.509  1.00  0.00     0.220 C 
HETATM   26  H   UNL     1     -45.119 -54.660  16.159  1.00  0.00     0.130 HD
HETATM   27  O   UNL     1     -43.883 -54.642  14.251  1.00  0.00    -0.278 OA
ENDBRANCH   3  19
TORSDOF 3
ENDMDL
MODEL 9
REMARK VINA RESULT:      -6.4      2.078      7.446
REMARK  3 active torsions:
REMARK  status: ('A' for Active; 'I' for Inactive)
REMARK       I    between atoms: C_2  and  N_3 
REMARK       I    between atoms: C_2  and  N_12 
REMARK    1  A    between atoms: N_3  and  C_4 
REMARK    2  A    between atoms: N_12  and  C_13 
REMARK    3  A    between atoms: C_19  and  N_20 
ROOT
HETATM    1  O   UNL     1     -41.989 -50.061  13.996  1.00  0.00    -0.247 OA
HETATM    2  C   UNL     1     -42.828 -50.223  13.123  1.00  0.00     0.321 C 
HETATM    3  N   UNL     1     -43.103 -49.249  12.189  1.00  0.00    -0.330 N 
HETATM    4  N   UNL     1     -43.572 -51.354  12.900  1.00  0.00    -0.306 N 
HETATM    5  H   UNL     1     -44.094 -49.094  12.070  1.00  0.00     0.165 HD
HETATM    6  H   UNL     1     -43.902 -51.486  11.952  1.00  0.00     0.171 HD
ENDROOT
BRANCH   4   7
HETATM    7  C   UNL     1     -43.509 -52.548  13.659  1.00  0.00     0.075 A 
HETATM    8  C   UNL     1     -42.516 -53.510  13.458  1.00  0.00     0.034 A 
HETATM    9  C   UNL     1     -42.556 -54.703  14.162  1.00  0.00     0.019 A 
HETATM   10  C   UNL     1     -43.582 -54.884  15.065  1.00  0.00     0.089 A 
HETATM   11  N   UNL     1     -44.544 -53.967  15.315  1.00  0.00    -0.355 N 
HETATM   12  C   UNL     1     -44.512 -52.798  14.629  1.00  0.00     0.109 A 
ATOM     13  HN  UNL     1     -45.274 -54.150  16.003  1.00  0.00     0.166 HD
BRANCH  12  14
HETATM   14  N   UNL     1     -45.512 -51.824  14.867  1.00  0.00    -0.267 NA
HETATM   15  C   UNL     1     -46.871 -52.362  15.060  1.00  0.00     0.097 C 
HETATM   16  C   UNL     1     -47.526 -51.411  16.055  1.00  0.00     0.016 C 
HETATM   17  C   UNL     1     -46.370 -50.985  16.937  1.00  0.00     0.016 C 
HETATM   18  C   UNL     1     -45.185 -50.913  15.978  1.00  0.00     0.097 C 
ENDBRANCH  12  14
ENDBRANCH   4   7
BRANCH   3  19
HETATM   19  C   UNL     1     -42.284 -48.030  12.140  1.00  0.00     0.172 C 
HETATM   20  C   UNL     1     -43.137 -46.770  12.327  1.00  0.00     0.034 C 
HETATM   21  C   UNL     1     -42.295 -45.544  12.645  1.00  0.00     0.004 C 
HETATM   22  C   UNL     1     -41.774 -44.831  11.404  1.00  0.00     0.015 C 
HETATM   23  C   UNL     1     -41.430 -45.717  10.215  1.00  0.00     0.095 C 
HETATM   24  N   UNL     1     -40.686 -46.920  10.524  1.00  0.00    -0.261 NA
HETATM   25  C   UNL     1     -41.296 -48.075  10.950  1.00  0.00     0.220 C 
HETATM   26  H   UNL     1     -40.002 -47.163   9.816  1.00  0.00     0.130 HD
HETATM   27  O   UNL     1     -40.884 -49.146  10.493  1.00  0.00    -0.278 OA
ENDBRANCH   3  19
TORSDOF 3
ENDMDL
