MODEL 1
REMARK VINA RESULT:      -6.7      0.000      0.000
REMARK  5 active torsions:
REMARK  status: ('A' for Active; 'I' for Inactive)
REMARK    1  A    between atoms: C_2  and  C_5 
REMARK    2  A    between atoms: C_5  and  N_6 
REMARK       I    between atoms: N_6  and  C_7 
REMARK       I    between atoms: C_7  and  N_9 
REMARK    3  A    between atoms: N_9  and  C_10 
REMARK    4  A    between atoms: C_10  and  C_11 
REMARK    5  A    between atoms: C_14  and  N_18 
ROOT
HETATM    1  C   UNL     1     -41.096 -51.218  12.487  1.00  0.00    -0.025 A 
HETATM    2  C   UNL     1     -41.472 -51.094  13.820  1.00  0.00     0.014 A 
HETATM    3  C   UNL     1     -42.280 -52.073  14.410  1.00  0.00     0.049 A 
HETATM    4  C   UNL     1     -42.718 -53.175  13.674  1.00  0.00     0.103 A 
HETATM    5  N   UNL     1     -42.392 -53.269  12.369  1.00  0.00    -0.352 N 
ATOM      6  HN  UNL     1     -42.734 -54.049  11.807  1.00  0.00     0.166 HD
HETATM    7  C   UNL     1     -41.605 -52.314  11.808  1.00  0.00     0.098 A 
ENDROOT
BRANCH   1   8
HETATM    8  C   UNL     1     -40.161 -50.241  11.835  1.00  0.00     0.164 C 
BRANCH   8   9
HETATM    9  N   UNL     1     -40.687 -49.659  10.617  1.00  0.00    -0.339 N 
HETATM   10  C   UNL     1     -41.491 -48.551  10.724  1.00  0.00     0.316 C 
HETATM   11  N   UNL     1     -42.040 -48.196   9.524  1.00  0.00    -0.335 N 
HETATM   12  O   UNL     1     -41.716 -47.959  11.771  1.00  0.00    -0.247 OA
HETATM   13  H   UNL     1     -41.461 -48.394   8.719  1.00  0.00     0.164 HD
HETATM   14  H   UNL     1     -40.934 -50.298   9.876  1.00  0.00     0.164 HD
BRANCH  11  15
HETATM   15  C   UNL     1     -42.897 -47.006   9.446  1.00  0.00     0.241 C 
BRANCH  15  16
HETATM   16  C   UNL     1     -44.360 -47.250   9.051  1.00  0.00     0.403 C 
HETATM   17  F   UNL     1     -44.474 -48.108   8.013  1.00  0.00    -0.169 F 
HETATM   18  F   UNL     1     -45.003 -46.109   8.732  1.00  0.00    -0.169 F 
HETATM   19  F   UNL     1     -45.030 -47.809  10.093  1.00  0.00    -0.169 F 
ENDBRANCH  15  16
ENDBRANCH  11  15
ENDBRANCH   8   9
ENDBRANCH   1   8
BRANCH   4  20
HETATM   20  N   UNL     1     -43.531 -54.139  14.238  1.00  0.00    -0.363 N 
HETATM   21  C   UNL     1     -44.766 -54.616  13.598  1.00  0.00     0.150 C 
HETATM   22  C   UNL     1     -46.006 -54.187  14.402  1.00  0.00     0.187 C 
HETATM   23  O   UNL     1     -45.913 -54.588  15.777  1.00  0.00    -0.388 OA
HETATM   24  C   UNL     1     -44.764 -53.974  16.387  1.00  0.00     0.187 C 
HETATM   25  C   UNL     1     -43.463 -54.397  15.687  1.00  0.00     0.150 C 
ENDBRANCH   4  20
TORSDOF 5
ENDMDL
MODEL 2
REMARK VINA RESULT:      -6.1      3.221      7.245
REMARK  5 active torsions:
REMARK  status: ('A' for Active; 'I' for Inactive)
REMARK    1  A    between atoms: C_2  and  C_5 
REMARK    2  A    between atoms: C_5  and  N_6 
REMARK       I    between atoms: N_6  and  C_7 
REMARK       I    between atoms: C_7  and  N_9 
REMARK    3  A    between atoms: N_9  and  C_10 
REMARK    4  A    between atoms: C_10  and  C_11 
REMARK    5  A    between atoms: C_14  and  N_18 
ROOT
HETATM    1  C   UNL     1     -40.604 -50.216  12.189  1.00  0.00    -0.025 A 
HETATM    2  C   UNL     1     -40.665 -49.550  13.409  1.00  0.00     0.014 A 
HETATM    3  C   UNL     1     -40.720 -48.153  13.438  1.00  0.00     0.049 A 
HETATM    4  C   UNL     1     -40.711 -47.414  12.253  1.00  0.00     0.103 A 
HETATM    5  N   UNL     1     -40.604 -48.058  11.074  1.00  0.00    -0.352 N 
ATOM      6  HN  UNL     1     -40.560 -47.532  10.201  1.00  0.00     0.166 HD
HETATM    7  C   UNL     1     -40.554 -49.417  11.058  1.00  0.00     0.098 A 
ENDROOT
BRANCH   1   8
HETATM    8  C   UNL     1     -40.632 -51.715  12.105  1.00  0.00     0.164 C 
BRANCH   8   9
HETATM    9  N   UNL     1     -41.890 -52.245  11.618  1.00  0.00    -0.339 N 
HETATM   10  C   UNL     1     -42.880 -52.503  12.534  1.00  0.00     0.316 C 
HETATM   11  N   UNL     1     -43.950 -53.139  11.969  1.00  0.00    -0.335 N 
HETATM   12  O   UNL     1     -42.811 -52.224  13.723  1.00  0.00    -0.247 OA
HETATM   13  H   UNL     1     -44.127 -52.892  11.004  1.00  0.00     0.164 HD
HETATM   14  H   UNL     1     -41.843 -52.891  10.843  1.00  0.00     0.164 HD
BRANCH  11  15
HETATM   15  C   UNL     1     -45.121 -53.456  12.796  1.00  0.00     0.241 C 
BRANCH  15  16
HETATM   16  C   UNL     1     -46.216 -52.382  12.859  1.00  0.00     0.403 C 
HETATM   17  F   UNL     1     -45.709 -51.144  13.052  1.00  0.00    -0.169 F 
HETATM   18  F   UNL     1     -47.120 -52.627  13.829  1.00  0.00    -0.169 F 
HETATM   19  F   UNL     1     -46.893 -52.346  11.681  1.00  0.00    -0.169 F 
ENDBRANCH  15  16
ENDBRANCH  11  15
ENDBRANCH   8   9
ENDBRANCH   1   8
BRANCH   4  20
HETATM   20  N   UNL     1     -40.746 -46.033  12.267  1.00  0.00    -0.363 N 
HETATM   21  C   UNL     1     -42.000 -45.266  12.330  1.00  0.00     0.150 C 
HETATM   22  C   UNL     1     -42.245 -44.500  11.018  1.00  0.00     0.187 C 
HETATM   23  O   UNL     1     -41.122 -43.682  10.662  1.00  0.00    -0.388 OA
HETATM   24  C   UNL     1     -39.957 -44.507  10.474  1.00  0.00     0.187 C 
HETATM   25  C   UNL     1     -39.595 -45.267  11.759  1.00  0.00     0.150 C 
ENDBRANCH   4  20
TORSDOF 5
ENDMDL
MODEL 3
REMARK VINA RESULT:      -6.1      5.433      6.396
REMARK  5 active torsions:
REMARK  status: ('A' for Active; 'I' for Inactive)
REMARK    1  A    between atoms: C_2  and  C_5 
REMARK    2  A    between atoms: C_5  and  N_6 
REMARK       I    between atoms: N_6  and  C_7 
REMARK       I    between atoms: C_7  and  N_9 
REMARK    3  A    between atoms: N_9  and  C_10 
REMARK    4  A    between atoms: C_10  and  C_11 
REMARK    5  A    between atoms: C_14  and  N_18 
ROOT
HETATM    1  C   UNL     1     -39.593 -46.906  12.540  1.00  0.00    -0.025 A 
HETATM    2  C   UNL     1     -39.434 -46.130  13.684  1.00  0.00     0.014 A 
HETATM    3  C   UNL     1     -38.798 -46.668  14.807  1.00  0.00     0.049 A 
HETATM    4  C   UNL     1     -38.319 -47.980  14.797  1.00  0.00     0.103 A 
HETATM    5  N   UNL     1     -38.516 -48.746  13.705  1.00  0.00    -0.352 N 
ATOM      6  HN  UNL     1     -38.205 -49.717  13.694  1.00  0.00     0.166 HD
HETATM    7  C   UNL     1     -39.133 -48.211  12.618  1.00  0.00     0.098 A 
ENDROOT
BRANCH   1   8
HETATM    8  C   UNL     1     -40.190 -46.346  11.282  1.00  0.00     0.164 C 
BRANCH   8   9
HETATM    9  N   UNL     1     -40.925 -47.323  10.503  1.00  0.00    -0.339 N 
HETATM   10  C   UNL     1     -41.973 -46.880   9.735  1.00  0.00     0.316 C 
HETATM   11  N   UNL     1     -42.672 -47.912   9.176  1.00  0.00    -0.335 N 
HETATM   12  O   UNL     1     -42.270 -45.702   9.583  1.00  0.00    -0.247 OA
HETATM   13  H   UNL     1     -42.117 -48.727   8.953  1.00  0.00     0.164 HD
HETATM   14  H   UNL     1     -41.052 -48.234  10.918  1.00  0.00     0.164 HD
BRANCH  11  15
HETATM   15  C   UNL     1     -43.804 -47.620   8.287  1.00  0.00     0.241 C 
BRANCH  15  16
HETATM   16  C   UNL     1     -45.195 -47.627   8.937  1.00  0.00     0.403 C 
HETATM   17  F   UNL     1     -45.140 -47.890  10.262  1.00  0.00    -0.169 F 
HETATM   18  F   UNL     1     -46.026 -48.517   8.361  1.00  0.00    -0.169 F 
HETATM   19  F   UNL     1     -45.769 -46.401   8.808  1.00  0.00    -0.169 F 
ENDBRANCH  15  16
ENDBRANCH  11  15
ENDBRANCH   8   9
ENDBRANCH   1   8
BRANCH   4  20
HETATM   20  N   UNL     1     -37.706 -48.530  15.906  1.00  0.00    -0.363 N 
HETATM   21  C   UNL     1     -37.104 -47.715  16.972  1.00  0.00     0.150 C 
HETATM   22  C   UNL     1     -35.573 -47.873  16.992  1.00  0.00     0.187 C 
HETATM   23  O   UNL     1     -35.182 -49.251  17.071  1.00  0.00    -0.388 OA
HETATM   24  C   UNL     1     -35.680 -49.966  15.926  1.00  0.00     0.187 C 
HETATM   25  C   UNL     1     -37.214 -49.918  15.856  1.00  0.00     0.150 C 
ENDBRANCH   4  20
TORSDOF 5
ENDMDL
MODEL 4
REMARK VINA RESULT:      -6.0      2.740      2.964
REMARK  5 active torsions:
REMARK  status: ('A' for Active; 'I' for Inactive)
REMARK    1  A    between atoms: C_2  and  C_5 
REMARK    2  A    between atoms: C_5  and  N_6 
REMARK       I    between atoms: N_6  and  C_7 
REMARK       I    between atoms: C_7  and  N_9 
REMARK    3  A    between atoms: N_9  and  C_10 
REMARK    4  A    between atoms: C_10  and  C_11 
REMARK    5  A    between atoms: C_14  and  N_18 
ROOT
HETATM    1  C   UNL     1     -40.105 -51.307  12.519  1.00  0.00    -0.025 A 
HETATM    2  C   UNL     1     -39.979 -52.013  13.711  1.00  0.00     0.014 A 
HETATM    3  C   UNL     1     -40.936 -52.971  14.058  1.00  0.00     0.049 A 
HETATM    4  C   UNL     1     -42.024 -53.229  13.222  1.00  0.00     0.103 A 
HETATM    5  N   UNL     1     -42.171 -52.511  12.090  1.00  0.00    -0.352 N 
ATOM      6  HN  UNL     1     -42.979 -52.662  11.485  1.00  0.00     0.166 HD
HETATM    7  C   UNL     1     -41.232 -51.585  11.761  1.00  0.00     0.098 A 
ENDROOT
BRANCH   1   8
HETATM    8  C   UNL     1     -39.058 -50.333  12.062  1.00  0.00     0.164 C 
BRANCH   8   9
HETATM    9  N   UNL     1     -39.552 -49.351  11.117  1.00  0.00    -0.339 N 
HETATM   10  C   UNL     1     -39.921 -48.119  11.600  1.00  0.00     0.316 C 
HETATM   11  N   UNL     1     -40.508 -47.346  10.639  1.00  0.00    -0.335 N 
HETATM   12  O   UNL     1     -39.769 -47.757  12.759  1.00  0.00    -0.247 OA
HETATM   13  H   UNL     1     -40.163 -47.502   9.701  1.00  0.00     0.164 HD
HETATM   14  H   UNL     1     -40.111 -49.696  10.351  1.00  0.00     0.164 HD
BRANCH  11  15
HETATM   15  C   UNL     1     -40.929 -45.978  10.969  1.00  0.00     0.241 C 
BRANCH  15  16
HETATM   16  C   UNL     1     -39.874 -44.880  10.775  1.00  0.00     0.403 C 
HETATM   17  F   UNL     1     -39.088 -44.726  11.863  1.00  0.00    -0.169 F 
HETATM   18  F   UNL     1     -40.425 -43.686  10.477  1.00  0.00    -0.169 F 
HETATM   19  F   UNL     1     -39.051 -45.210   9.744  1.00  0.00    -0.169 F 
ENDBRANCH  15  16
ENDBRANCH  11  15
ENDBRANCH   8   9
ENDBRANCH   1   8
BRANCH   4  20
HETATM   20  N   UNL     1     -42.987 -54.160  13.561  1.00  0.00    -0.363 N 
HETATM   21  C   UNL     1     -44.307 -54.214  12.915  1.00  0.00     0.150 C 
HETATM   22  C   UNL     1     -45.422 -53.826  13.904  1.00  0.00     0.187 C 
HETATM   23  O   UNL     1     -45.367 -54.613  15.102  1.00  0.00    -0.388 OA
HETATM   24  C   UNL     1     -44.106 -54.407  15.764  1.00  0.00     0.187 C 
HETATM   25  C   UNL     1     -42.928 -54.829  14.872  1.00  0.00     0.150 C 
ENDBRANCH   4  20
TORSDOF 5
ENDMDL
MODEL 5
REMARK VINA RESULT:      -6.0      4.029      4.888
REMARK  5 active torsions:
REMARK  status: ('A' for Active; 'I' for Inactive)
REMARK    1  A    between atoms: C_2  and  C_5 
REMARK    2  A    between atoms: C_5  and  N_6 
REMARK       I    between atoms: N_6  and  C_7 
REMARK       I    between atoms: C_7  and  N_9 
REMARK    3  A    between atoms: N_9  and  C_10 
REMARK    4  A    between atoms: C_10  and  C_11 
REMARK    5  A    between atoms: C_14  and  N_18 
ROOT
HETATM    1  C   UNL     1     -42.371 -54.192  13.503  1.00  0.00    -0.025 A 
HETATM    2  C   UNL     1     -43.478 -53.697  12.821  1.00  0.00     0.014 A 
HETATM    3  C   UNL     1     -44.681 -53.490  13.504  1.00  0.00     0.049 A 
HETATM    4  C   UNL     1     -44.787 -53.777  14.865  1.00  0.00     0.103 A 
HETATM    5  N   UNL     1     -43.728 -54.301  15.514  1.00  0.00    -0.352 N 
ATOM      6  HN  UNL     1     -43.799 -54.550  16.501  1.00  0.00     0.166 HD
HETATM    7  C   UNL     1     -42.563 -54.496  14.841  1.00  0.00     0.098 A 
ENDROOT
BRANCH   1   8
HETATM    8  C   UNL     1     -41.036 -54.349  12.834  1.00  0.00     0.164 C 
BRANCH   8   9
HETATM    9  N   UNL     1     -40.693 -53.246  11.958  1.00  0.00    -0.339 N 
HETATM   10  C   UNL     1     -40.112 -52.135  12.516  1.00  0.00     0.316 C 
HETATM   11  N   UNL     1     -39.981 -51.116  11.615  1.00  0.00    -0.335 N 
HETATM   12  O   UNL     1     -39.773 -52.047  13.689  1.00  0.00    -0.247 OA
HETATM   13  H   UNL     1     -39.823 -51.413  10.661  1.00  0.00     0.164 HD
HETATM   14  H   UNL     1     -41.320 -53.062  11.189  1.00  0.00     0.164 HD
BRANCH  11  15
HETATM   15  C   UNL     1     -39.340 -49.861  12.031  1.00  0.00     0.241 C 
BRANCH  15  16
HETATM   16  C   UNL     1     -37.807 -49.830  11.967  1.00  0.00     0.403 C 
HETATM   17  F   UNL     1     -37.352 -49.427  10.760  1.00  0.00    -0.169 F 
HETATM   18  F   UNL     1     -37.258 -51.029  12.249  1.00  0.00    -0.169 F 
HETATM   19  F   UNL     1     -37.327 -48.945  12.880  1.00  0.00    -0.169 F 
ENDBRANCH  15  16
ENDBRANCH  11  15
ENDBRANCH   8   9
ENDBRANCH   1   8
BRANCH   4  20
HETATM   20  N   UNL     1     -45.974 -53.594  15.548  1.00  0.00    -0.363 N 
HETATM   21  C   UNL     1     -47.072 -52.763  15.033  1.00  0.00     0.150 C 
HETATM   22  C   UNL     1     -47.265 -51.504  15.898  1.00  0.00     0.187 C 
HETATM   23  O   UNL     1     -47.433 -51.832  17.284  1.00  0.00    -0.388 OA
HETATM   24  C   UNL     1     -46.264 -52.519  17.768  1.00  0.00     0.187 C 
HETATM   25  C   UNL     1     -46.026 -53.829  17.002  1.00  0.00     0.150 C 
ENDBRANCH   4  20
TORSDOF 5
ENDMDL
MODEL 6
REMARK VINA RESULT:      -5.9      1.865      2.389
REMARK  5 active torsions:
REMARK  status: ('A' for Active; 'I' for Inactive)
REMARK    1  A    between atoms: C_2  and  C_5 
REMARK    2  A    between atoms: C_5  and  N_6 
REMARK       I    between atoms: N_6  and  C_7 
REMARK       I    between atoms: C_7  and  N_9 
REMARK    3  A    between atoms: N_9  and  C_10 
REMARK    4  A    between atoms: C_10  and  C_11 
REMARK    5  A    between atoms: C_14  and  N_18 
ROOT
HETATM    1  C   UNL     1     -39.983 -50.903  12.395  1.00  0.00    -0.025 A 
HETATM    2  C   UNL     1     -39.053 -51.408  13.298  1.00  0.00     0.014 A 
HETATM    3  C   UNL     1     -39.354 -52.556  14.038  1.00  0.00     0.049 A 
HETATM    4  C   UNL     1     -40.581 -53.203  13.885  1.00  0.00     0.103 A 
HETATM    5  N   UNL     1     -41.500 -52.685  13.045  1.00  0.00    -0.352 N 
ATOM      6  HN  UNL     1     -42.415 -53.125  12.947  1.00  0.00     0.166 HD
HETATM    7  C   UNL     1     -41.195 -51.571  12.328  1.00  0.00     0.098 A 
ENDROOT
BRANCH   1   8
HETATM    8  C   UNL     1     -39.672 -49.727  11.515  1.00  0.00     0.164 C 
BRANCH   8   9
HETATM    9  N   UNL     1     -40.696 -49.455  10.527  1.00  0.00    -0.339 N 
HETATM   10  C   UNL     1     -41.496 -48.355  10.712  1.00  0.00     0.316 C 
HETATM   11  N   UNL     1     -42.512 -48.299   9.799  1.00  0.00    -0.335 N 
HETATM   12  O   UNL     1     -41.342 -47.530  11.602  1.00  0.00    -0.247 OA
HETATM   13  H   UNL     1     -42.286 -48.684   8.891  1.00  0.00     0.164 HD
HETATM   14  H   UNL     1     -41.154 -50.254  10.112  1.00  0.00     0.164 HD
BRANCH  11  15
HETATM   15  C   UNL     1     -43.443 -47.164   9.823  1.00  0.00     0.241 C 
BRANCH  15  16
HETATM   16  C   UNL     1     -44.793 -47.380   9.126  1.00  0.00     0.403 C 
HETATM   17  F   UNL     1     -45.400 -46.214   8.811  1.00  0.00    -0.169 F 
HETATM   18  F   UNL     1     -45.644 -48.114   9.871  1.00  0.00    -0.169 F 
HETATM   19  F   UNL     1     -44.605 -48.049   7.957  1.00  0.00    -0.169 F 
ENDBRANCH  15  16
ENDBRANCH  11  15
ENDBRANCH   8   9
ENDBRANCH   1   8
BRANCH   4  20
HETATM   20  N   UNL     1     -40.899 -54.327  14.623  1.00  0.00    -0.363 N 
HETATM   21  C   UNL     1     -42.285 -54.740  14.891  1.00  0.00     0.150 C 
HETATM   22  C   UNL     1     -42.625 -54.595  16.385  1.00  0.00     0.187 C 
HETATM   23  O   UNL     1     -41.679 -55.284  17.216  1.00  0.00    -0.388 OA
HETATM   24  C   UNL     1     -40.363 -54.737  17.013  1.00  0.00     0.187 C 
HETATM   25  C   UNL     1     -39.908 -54.895  15.554  1.00  0.00     0.150 C 
ENDBRANCH   4  20
TORSDOF 5
ENDMDL
MODEL 7
REMARK VINA RESULT:      -5.7      3.376      7.304
REMARK  5 active torsions:
REMARK  status: ('A' for Active; 'I' for Inactive)
REMARK    1  A    between atoms: C_2  and  C_5 
REMARK    2  A    between atoms: C_5  and  N_6 
REMARK       I    between atoms: N_6  and  C_7 
REMARK       I    between atoms: C_7  and  N_9 
REMARK    3  A    between atoms: N_9  and  C_10 
REMARK    4  A    between atoms: C_10  and  C_11 
REMARK    5  A    between atoms: C_14  and  N_18 
ROOT
HETATM    1  C   UNL     1     -40.196 -50.846  13.067  1.00  0.00    -0.025 A 
HETATM    2  C   UNL     1     -40.541 -49.608  13.597  1.00  0.00     0.014 A 
HETATM    3  C   UNL     1     -40.922 -48.566  12.744  1.00  0.00     0.049 A 
HETATM    4  C   UNL     1     -40.957 -48.753  11.362  1.00  0.00     0.103 A 
HETATM    5  N   UNL     1     -40.577 -49.939  10.845  1.00  0.00    -0.352 N 
ATOM      6  HN  UNL     1     -40.562 -50.081   9.835  1.00  0.00     0.166 HD
HETATM    7  C   UNL     1     -40.212 -50.945  11.685  1.00  0.00     0.098 A 
ENDROOT
BRANCH   1   8
HETATM    8  C   UNL     1     -39.865 -52.018  13.945  1.00  0.00     0.164 C 
BRANCH   8   9
HETATM    9  N   UNL     1     -40.666 -53.194  13.669  1.00  0.00    -0.339 N 
HETATM   10  C   UNL     1     -41.872 -53.320  14.312  1.00  0.00     0.316 C 
HETATM   11  N   UNL     1     -42.452 -54.537  14.083  1.00  0.00    -0.335 N 
HETATM   12  O   UNL     1     -42.366 -52.461  15.030  1.00  0.00    -0.247 OA
HETATM   13  H   UNL     1     -42.255 -54.934  13.174  1.00  0.00     0.164 HD
HETATM   14  H   UNL     1     -40.168 -54.059  13.517  1.00  0.00     0.164 HD
BRANCH  11  15
HETATM   15  C   UNL     1     -43.769 -54.829  14.662  1.00  0.00     0.241 C 
BRANCH  15  16
HETATM   16  C   UNL     1     -44.966 -54.736  13.705  1.00  0.00     0.403 C 
HETATM   17  F   UNL     1     -45.686 -55.879  13.673  1.00  0.00    -0.169 F 
HETATM   18  F   UNL     1     -44.592 -54.434  12.445  1.00  0.00    -0.169 F 
HETATM   19  F   UNL     1     -45.810 -53.755  14.119  1.00  0.00    -0.169 F 
ENDBRANCH  15  16
ENDBRANCH  11  15
ENDBRANCH   8   9
ENDBRANCH   1   8
BRANCH   4  20
HETATM   20  N   UNL     1     -41.313 -47.728  10.506  1.00  0.00    -0.363 N 
HETATM   21  C   UNL     1     -40.858 -46.342  10.689  1.00  0.00     0.150 C 
HETATM   22  C   UNL     1     -42.033 -45.419  11.058  1.00  0.00     0.187 C 
HETATM   23  O   UNL     1     -43.107 -45.521  10.113  1.00  0.00    -0.388 OA
HETATM   24  C   UNL     1     -43.605 -46.870  10.085  1.00  0.00     0.187 C 
HETATM   25  C   UNL     1     -42.513 -47.864   9.661  1.00  0.00     0.150 C 
ENDBRANCH   4  20
TORSDOF 5
ENDMDL
MODEL 8
REMARK VINA RESULT:      -5.7      3.908      6.790
REMARK  5 active torsions:
REMARK  status: ('A' for Active; 'I' for Inactive)
REMARK    1  A    between atoms: C_2  and  C_5 
REMARK    2  A    between atoms: C_5  and  N_6 
REMARK       I    between atoms: N_6  and  C_7 
REMARK       I    between atoms: C_7  and  N_9 
REMARK    3  A    between atoms: N_9  and  C_10 
REMARK    4  A    between atoms: C_10  and  C_11 
REMARK    5  A    between atoms: C_14  and  N_18 
ROOT
HETATM    1  C   UNL     1     -40.153 -51.760  12.695  1.00  0.00    -0.025 A 
HETATM    2  C   UNL     1     -39.945 -50.549  12.043  1.00  0.00     0.014 A 
HETATM    3  C   UNL     1     -39.136 -49.571  12.632  1.00  0.00     0.049 A 
HETATM    4  C   UNL     1     -38.535 -49.795  13.872  1.00  0.00     0.103 A 
HETATM    5  N   UNL     1     -38.776 -50.950  14.525  1.00  0.00    -0.352 N 
ATOM      6  HN  UNL     1     -38.374 -51.115  15.448  1.00  0.00     0.166 HD
HETATM    7  C   UNL     1     -39.561 -51.894  13.941  1.00  0.00     0.098 A 
ENDROOT
BRANCH   1   8
HETATM    8  C   UNL     1     -40.940 -52.872  12.064  1.00  0.00     0.164 C 
BRANCH   8   9
HETATM    9  N   UNL     1     -42.312 -52.514  11.764  1.00  0.00    -0.339 N 
HETATM   10  C   UNL     1     -43.290 -52.908  12.643  1.00  0.00     0.316 C 
HETATM   11  N   UNL     1     -44.544 -52.643  12.170  1.00  0.00    -0.335 N 
HETATM   12  O   UNL     1     -43.075 -53.458  13.715  1.00  0.00    -0.247 OA
HETATM   13  H   UNL     1     -44.611 -51.819  11.589  1.00  0.00     0.164 HD
HETATM   14  H   UNL     1     -42.583 -52.518  10.792  1.00  0.00     0.164 HD
BRANCH  11  15
HETATM   15  C   UNL     1     -45.712 -52.963  13.001  1.00  0.00     0.241 C 
BRANCH  15  16
HETATM   16  C   UNL     1     -46.433 -51.770  13.645  1.00  0.00     0.403 C 
HETATM   17  F   UNL     1     -47.191 -52.138  14.701  1.00  0.00    -0.169 F 
HETATM   18  F   UNL     1     -47.217 -51.111  12.768  1.00  0.00    -0.169 F 
HETATM   19  F   UNL     1     -45.519 -50.879  14.113  1.00  0.00    -0.169 F 
ENDBRANCH  15  16
ENDBRANCH  11  15
ENDBRANCH   8   9
ENDBRANCH   1   8
BRANCH   4  20
HETATM   20  N   UNL     1     -37.749 -48.831  14.475  1.00  0.00    -0.363 N 
HETATM   21  C   UNL     1     -36.823 -49.131  15.577  1.00  0.00     0.150 C 
HETATM   22  C   UNL     1     -37.295 -48.477  16.888  1.00  0.00     0.187 C 
HETATM   23  O   UNL     1     -37.519 -47.069  16.730  1.00  0.00    -0.388 OA
HETATM   24  C   UNL     1     -38.538 -46.845  15.740  1.00  0.00     0.187 C 
HETATM   25  C   UNL     1     -38.127 -47.411  14.372  1.00  0.00     0.150 C 
ENDBRANCH   4  20
TORSDOF 5
ENDMDL
MODEL 9
REMARK VINA RESULT:      -5.5      4.053      5.177
REMARK  5 active torsions:
REMARK  status: ('A' for Active; 'I' for Inactive)
REMARK    1  A    between atoms: C_2  and  C_5 
REMARK    2  A    between atoms: C_5  and  N_6 
REMARK       I    between atoms: N_6  and  C_7 
REMARK       I    between atoms: C_7  and  N_9 
REMARK    3  A    between atoms: N_9  and  C_10 
REMARK    4  A    between atoms: C_10  and  C_11 
REMARK    5  A    between atoms: C_14  and  N_18 
ROOT
HETATM    1  C   UNL     1     -42.658 -53.705  13.462  1.00  0.00    -0.025 A 
HETATM    2  C   UNL     1     -43.614 -54.253  14.311  1.00  0.00     0.014 A 
HETATM    3  C   UNL     1     -43.213 -55.032  15.402  1.00  0.00     0.049 A 
HETATM    4  C   UNL     1     -41.861 -55.271  15.649  1.00  0.00     0.103 A 
HETATM    5  N   UNL     1     -40.937 -54.780  14.798  1.00  0.00    -0.352 N 
ATOM      6  HN  UNL     1     -39.946 -54.975  14.944  1.00  0.00     0.166 HD
HETATM    7  C   UNL     1     -41.338 -54.021  13.744  1.00  0.00     0.098 A 
ENDROOT
BRANCH   1   8
HETATM    8  C   UNL     1     -43.034 -52.792  12.332  1.00  0.00     0.164 C 
BRANCH   8   9
HETATM    9  N   UNL     1     -41.899 -52.316  11.568  1.00  0.00    -0.339 N 
HETATM   10  C   UNL     1     -41.269 -51.171  11.992  1.00  0.00     0.316 C 
HETATM   11  N   UNL     1     -40.319 -50.749  11.105  1.00  0.00    -0.335 N 
HETATM   12  O   UNL     1     -41.538 -50.578  13.028  1.00  0.00    -0.247 OA
HETATM   13  H   UNL     1     -39.855 -51.490  10.597  1.00  0.00     0.164 HD
HETATM   14  H   UNL     1     -41.939 -52.437  10.567  1.00  0.00     0.164 HD
BRANCH  11  15
HETATM   15  C   UNL     1     -39.517 -49.559  11.419  1.00  0.00     0.241 C 
BRANCH  15  16
HETATM   16  C   UNL     1     -38.054 -49.812  11.807  1.00  0.00     0.403 C 
HETATM   17  F   UNL     1     -37.632 -48.981  12.786  1.00  0.00    -0.169 F 
HETATM   18  F   UNL     1     -37.216 -49.692  10.757  1.00  0.00    -0.169 F 
HETATM   19  F   UNL     1     -37.917 -51.077  12.285  1.00  0.00    -0.169 F 
ENDBRANCH  15  16
ENDBRANCH  11  15
ENDBRANCH   8   9
ENDBRANCH   1   8
BRANCH   4  20
HETATM   20  N   UNL     1     -41.451 -56.054  16.711  1.00  0.00    -0.363 N 
HETATM   21  C   UNL     1     -42.236 -56.197  17.946  1.00  0.00     0.150 C 
HETATM   22  C   UNL     1     -41.516 -55.542  19.138  1.00  0.00     0.187 C 
HETATM   23  O   UNL     1     -40.175 -56.032  19.284  1.00  0.00    -0.388 OA
HETATM   24  C   UNL     1     -39.416 -55.734  18.098  1.00  0.00     0.187 C 
HETATM   25  C   UNL     1     -40.027 -56.402  16.857  1.00  0.00     0.150 C 
ENDBRANCH   4  20
TORSDOF 5
ENDMDL
