MODEL 1
REMARK VINA RESULT:      -5.9      0.000      0.000
REMARK  5 active torsions:
REMARK  status: ('A' for Active; 'I' for Inactive)
REMARK    1  A    between atoms: C_2  and  C_3 
REMARK    2  A    between atoms: C_2  and  N_17 
REMARK       I    between atoms: C_3  and  N_5 
REMARK    3  A    between atoms: N_5  and  C_6 
REMARK    4  A    between atoms: C_6  and  C_13 
REMARK    5  A    between atoms: C_13  and  N_14 
ROOT
HETATM    1  C   UNL     1     -41.499 -46.602  11.243  1.00  0.00     0.243 C 
HETATM    2  O   UNL     1     -40.480 -47.233  10.972  1.00  0.00    -0.271 OA
HETATM    3  N   UNL     1     -41.469 -45.246  11.507  1.00  0.00    -0.338 N 
HETATM    4  H   UNL     1     -42.304 -44.833  11.926  1.00  0.00     0.164 HD
ENDROOT
BRANCH   3   5
HETATM    5  C   UNL     1     -40.255 -44.412  11.380  1.00  0.00     0.105 C 
HETATM    6  C   UNL     1     -39.334 -44.656  12.594  1.00  0.00     0.045 C 
HETATM    7  C   UNL     1     -39.944 -44.150  13.910  1.00  0.00     0.004 C 
HETATM    8  C   UNL     1     -40.416 -42.695  13.828  1.00  0.00     0.004 C 
HETATM    9  C   UNL     1     -41.332 -42.462  12.623  1.00  0.00    -0.015 C 
HETATM   10  C   UNL     1     -41.780 -41.007  12.524  1.00  0.00     0.010 C 
HETATM   11  C   UNL     1     -40.610 -42.903  11.340  1.00  0.00     0.049 C 
BRANCH   5  12
HETATM   12  C   UNL     1     -39.540 -44.784  10.092  1.00  0.00    -0.046 C 
BRANCH  12  13
HETATM   13  N   UNL     1     -38.946 -45.093   9.023  1.00  0.00    -0.367 N 
ATOM     14  HN2 UNL     1     -39.413 -44.862   9.900  1.00  0.00     0.165 HD
ATOM     15  HN1 UNL     1     -38.466 -45.343   8.159  1.00  0.00     0.165 HD
ENDBRANCH  12  13
ENDBRANCH   5  12
ENDBRANCH   3   5
BRANCH   1  16
HETATM   16  C   UNL     1     -42.859 -47.293  11.347  1.00  0.00     0.195 C 
HETATM   17  C   UNL     1     -42.734 -48.603  12.132  1.00  0.00     0.044 C 
BRANCH  16  18
HETATM   18  N   UNL     1     -43.469 -47.478  10.035  1.00  0.00    -0.290 N 
HETATM   19  C   UNL     1     -44.795 -47.474   9.703  1.00  0.00     0.112 A 
HETATM   20  C   UNL     1     -44.853 -47.698   8.348  1.00  0.00     0.037 A 
HETATM   21  C   UNL     1     -43.515 -47.871   7.956  1.00  0.00     0.108 A 
HETATM   22  N   UNL     1     -42.671 -47.792   8.987  1.00  0.00    -0.309 N 
ATOM     23  HN  UNL     1     -41.661 -47.936   8.986  1.00  0.00     0.186 HD
ENDBRANCH  16  18
ENDBRANCH   1  16
TORSDOF 5
ENDMDL
MODEL 2
REMARK VINA RESULT:      -5.8      3.428      6.160
REMARK  5 active torsions:
REMARK  status: ('A' for Active; 'I' for Inactive)
REMARK    1  A    between atoms: C_2  and  C_3 
REMARK    2  A    between atoms: C_2  and  N_17 
REMARK       I    between atoms: C_3  and  N_5 
REMARK    3  A    between atoms: N_5  and  C_6 
REMARK    4  A    between atoms: C_6  and  C_13 
REMARK    5  A    between atoms: C_13  and  N_14 
ROOT
HETATM    1  C   UNL     1     -42.058 -49.123  11.784  1.00  0.00     0.243 C 
HETATM    2  O   UNL     1     -40.980 -49.646  11.515  1.00  0.00    -0.271 OA
HETATM    3  N   UNL     1     -43.054 -49.806  12.456  1.00  0.00    -0.338 N 
HETATM    4  H   UNL     1     -43.986 -49.389  12.460  1.00  0.00     0.164 HD
ENDROOT
BRANCH   3   5
HETATM    5  C   UNL     1     -42.885 -51.167  13.009  1.00  0.00     0.105 C 
HETATM    6  C   UNL     1     -44.269 -51.833  13.167  1.00  0.00     0.045 C 
HETATM    7  C   UNL     1     -45.134 -51.149  14.237  1.00  0.00     0.004 C 
HETATM    8  C   UNL     1     -44.413 -50.993  15.579  1.00  0.00     0.004 C 
HETATM    9  C   UNL     1     -43.043 -50.329  15.414  1.00  0.00    -0.015 C 
HETATM   10  C   UNL     1     -42.310 -50.199  16.746  1.00  0.00     0.010 C 
HETATM   11  C   UNL     1     -42.206 -51.129  14.403  1.00  0.00     0.049 C 
BRANCH   5  12
HETATM   12  C   UNL     1     -42.016 -51.974  12.059  1.00  0.00    -0.046 C 
BRANCH  12  13
HETATM   13  N   UNL     1     -41.295 -52.645  11.272  1.00  0.00    -0.367 N 
ATOM     14  HN2 UNL     1     -41.895 -52.099  11.889  1.00  0.00     0.165 HD
ATOM     15  HN1 UNL     1     -40.711 -53.188  10.635  1.00  0.00     0.165 HD
ENDBRANCH  12  13
ENDBRANCH   5  12
ENDBRANCH   3   5
BRANCH   1  16
HETATM   16  C   UNL     1     -42.379 -47.692  11.351  1.00  0.00     0.195 C 
HETATM   17  C   UNL     1     -43.048 -46.924  12.495  1.00  0.00     0.044 C 
BRANCH  16  18
HETATM   18  N   UNL     1     -43.163 -47.667  10.121  1.00  0.00    -0.290 N 
HETATM   19  C   UNL     1     -44.506 -47.456   9.970  1.00  0.00     0.112 A 
HETATM   20  C   UNL     1     -44.758 -47.540   8.622  1.00  0.00     0.037 A 
HETATM   21  C   UNL     1     -43.516 -47.849   8.042  1.00  0.00     0.108 A 
HETATM   22  N   UNL     1     -42.551 -47.982   8.955  1.00  0.00    -0.309 N 
ATOM     23  HN  UNL     1     -41.580 -48.257   8.808  1.00  0.00     0.186 HD
ENDBRANCH  16  18
ENDBRANCH   1  16
TORSDOF 5
ENDMDL
MODEL 3
REMARK VINA RESULT:      -5.6      4.950      8.194
REMARK  5 active torsions:
REMARK  status: ('A' for Active; 'I' for Inactive)
REMARK    1  A    between atoms: C_2  and  C_3 
REMARK    2  A    between atoms: C_2  and  N_17 
REMARK       I    between atoms: C_3  and  N_5 
REMARK    3  A    between atoms: N_5  and  C_6 
REMARK    4  A    between atoms: C_6  and  C_13 
REMARK    5  A    between atoms: C_13  and  N_14 
ROOT
HETATM    1  C   UNL     1     -42.137 -51.001  12.611  1.00  0.00     0.243 C 
HETATM    2  O   UNL     1     -41.791 -51.950  11.911  1.00  0.00    -0.271 OA
HETATM    3  N   UNL     1     -43.176 -51.102  13.516  1.00  0.00    -0.338 N 
HETATM    4  H   UNL     1     -43.544 -50.232  13.904  1.00  0.00     0.164 HD
ENDROOT
BRANCH   3   5
HETATM    5  C   UNL     1     -43.886 -52.364  13.812  1.00  0.00     0.105 C 
HETATM    6  C   UNL     1     -44.937 -52.634  12.714  1.00  0.00     0.045 C 
HETATM    7  C   UNL     1     -46.078 -51.605  12.725  1.00  0.00     0.004 C 
HETATM    8  C   UNL     1     -46.718 -51.437  14.106  1.00  0.00     0.004 C 
HETATM    9  C   UNL     1     -45.669 -51.167  15.189  1.00  0.00    -0.015 C 
HETATM   10  C   UNL     1     -46.302 -51.027  16.570  1.00  0.00     0.010 C 
HETATM   11  C   UNL     1     -44.622 -52.291  15.176  1.00  0.00     0.049 C 
BRANCH   5  12
HETATM   12  C   UNL     1     -42.872 -53.495  13.859  1.00  0.00    -0.046 C 
BRANCH  12  13
HETATM   13  N   UNL     1     -42.030 -54.433  13.899  1.00  0.00    -0.367 N 
ATOM     14  HN2 UNL     1     -42.698 -53.664  13.847  1.00  0.00     0.165 HD
ATOM     15  HN1 UNL     1     -41.348 -55.192  13.932  1.00  0.00     0.165 HD
ENDBRANCH  12  13
ENDBRANCH   5  12
ENDBRANCH   3   5
BRANCH   1  16
HETATM   16  C   UNL     1     -41.463 -49.633  12.488  1.00  0.00     0.195 C 
HETATM   17  C   UNL     1     -42.077 -48.837  11.333  1.00  0.00     0.044 C 
BRANCH  16  18
HETATM   18  N   UNL     1     -40.014 -49.758  12.379  1.00  0.00    -0.290 N 
HETATM   19  C   UNL     1     -39.072 -49.635  13.363  1.00  0.00     0.112 A 
HETATM   20  C   UNL     1     -37.855 -49.830  12.755  1.00  0.00     0.037 A 
HETATM   21  C   UNL     1     -38.158 -50.019  11.396  1.00  0.00     0.108 A 
HETATM   22  N   UNL     1     -39.467 -49.922  11.152  1.00  0.00    -0.309 N 
ATOM     23  HN  UNL     1     -39.943 -49.962  10.250  1.00  0.00     0.186 HD
ENDBRANCH  16  18
ENDBRANCH   1  16
TORSDOF 5
ENDMDL
MODEL 4
REMARK VINA RESULT:      -5.6      4.318      7.626
REMARK  5 active torsions:
REMARK  status: ('A' for Active; 'I' for Inactive)
REMARK    1  A    between atoms: C_2  and  C_3 
REMARK    2  A    between atoms: C_2  and  N_17 
REMARK       I    between atoms: C_3  and  N_5 
REMARK    3  A    between atoms: N_5  and  C_6 
REMARK    4  A    between atoms: C_6  and  C_13 
REMARK    5  A    between atoms: C_13  and  N_14 
ROOT
HETATM    1  C   UNL     1     -42.187 -51.047  12.607  1.00  0.00     0.243 C 
HETATM    2  O   UNL     1     -41.891 -51.984  11.869  1.00  0.00    -0.271 OA
HETATM    3  N   UNL     1     -43.194 -51.148  13.547  1.00  0.00    -0.338 N 
HETATM    4  H   UNL     1     -43.525 -50.281  13.973  1.00  0.00     0.164 HD
ENDROOT
BRANCH   3   5
HETATM    5  C   UNL     1     -43.926 -52.400  13.834  1.00  0.00     0.105 C 
HETATM    6  C   UNL     1     -44.973 -52.650  12.728  1.00  0.00     0.045 C 
HETATM    7  C   UNL     1     -46.098 -51.604  12.733  1.00  0.00     0.004 C 
HETATM    8  C   UNL     1     -46.745 -51.430  14.110  1.00  0.00     0.004 C 
HETATM    9  C   UNL     1     -45.701 -51.179  15.201  1.00  0.00    -0.015 C 
HETATM   10  C   UNL     1     -46.341 -51.034  16.578  1.00  0.00     0.010 C 
HETATM   11  C   UNL     1     -44.670 -52.319  15.193  1.00  0.00     0.049 C 
BRANCH   5  12
HETATM   12  C   UNL     1     -42.929 -53.546  13.886  1.00  0.00    -0.046 C 
BRANCH  12  13
HETATM   13  N   UNL     1     -42.103 -54.498  13.928  1.00  0.00    -0.367 N 
ATOM     14  HN2 UNL     1     -42.772 -53.728  13.920  1.00  0.00     0.165 HD
ATOM     15  HN1 UNL     1     -41.434 -55.268  13.962  1.00  0.00     0.165 HD
ENDBRANCH  12  13
ENDBRANCH   5  12
ENDBRANCH   3   5
BRANCH   1  16
HETATM   16  C   UNL     1     -41.482 -49.694  12.498  1.00  0.00     0.195 C 
HETATM   17  C   UNL     1     -41.353 -49.045  13.879  1.00  0.00     0.044 C 
BRANCH  16  18
HETATM   18  N   UNL     1     -42.137 -48.826  11.525  1.00  0.00    -0.290 N 
HETATM   19  C   UNL     1     -43.319 -48.148  11.648  1.00  0.00     0.112 A 
HETATM   20  C   UNL     1     -43.503 -47.482  10.460  1.00  0.00     0.037 A 
HETATM   21  C   UNL     1     -42.406 -47.853   9.665  1.00  0.00     0.108 A 
HETATM   22  N   UNL     1     -41.599 -48.715  10.288  1.00  0.00    -0.309 N 
ATOM     23  HN  UNL     1     -40.770 -49.180   9.918  1.00  0.00     0.186 HD
ENDBRANCH  16  18
ENDBRANCH   1  16
TORSDOF 5
ENDMDL
MODEL 5
REMARK VINA RESULT:      -5.5      5.236      6.645
REMARK  5 active torsions:
REMARK  status: ('A' for Active; 'I' for Inactive)
REMARK    1  A    between atoms: C_2  and  C_3 
REMARK    2  A    between atoms: C_2  and  N_17 
REMARK       I    between atoms: C_3  and  N_5 
REMARK    3  A    between atoms: N_5  and  C_6 
REMARK    4  A    between atoms: C_6  and  C_13 
REMARK    5  A    between atoms: C_13  and  N_14 
ROOT
HETATM    1  C   UNL     1     -40.473 -52.260  13.342  1.00  0.00     0.243 C 
HETATM    2  O   UNL     1     -40.100 -52.712  12.261  1.00  0.00    -0.271 OA
HETATM    3  N   UNL     1     -40.133 -50.988  13.758  1.00  0.00    -0.338 N 
HETATM    4  H   UNL     1     -40.294 -50.758  14.740  1.00  0.00     0.164 HD
ENDROOT
BRANCH   3   5
HETATM    5  C   UNL     1     -39.398 -50.019  12.917  1.00  0.00     0.105 C 
HETATM    6  C   UNL     1     -37.910 -50.422  12.847  1.00  0.00     0.045 C 
HETATM    7  C   UNL     1     -37.197 -50.287  14.202  1.00  0.00     0.004 C 
HETATM    8  C   UNL     1     -37.392 -48.911  14.845  1.00  0.00     0.004 C 
HETATM    9  C   UNL     1     -38.871 -48.519  14.913  1.00  0.00    -0.015 C 
HETATM   10  C   UNL     1     -39.065 -47.136  15.527  1.00  0.00     0.010 C 
HETATM   11  C   UNL     1     -39.482 -48.585  13.505  1.00  0.00     0.049 C 
BRANCH   5  12
HETATM   12  C   UNL     1     -40.010 -50.017  11.526  1.00  0.00    -0.046 C 
BRANCH  12  13
HETATM   13  N   UNL     1     -40.518 -50.017  10.372  1.00  0.00    -0.367 N 
ATOM     14  HN2 UNL     1     -40.091 -50.036  11.298  1.00  0.00     0.165 HD
ATOM     15  HN1 UNL     1     -40.929 -50.016   9.438  1.00  0.00     0.165 HD
ENDBRANCH  12  13
ENDBRANCH   5  12
ENDBRANCH   3   5
BRANCH   1  16
HETATM   16  C   UNL     1     -41.304 -53.101  14.311  1.00  0.00     0.195 C 
HETATM   17  C   UNL     1     -40.505 -54.321  14.781  1.00  0.00     0.044 C 
BRANCH  16  18
HETATM   18  N   UNL     1     -42.597 -53.460  13.738  1.00  0.00    -0.290 N 
HETATM   19  C   UNL     1     -43.541 -54.315  14.235  1.00  0.00     0.112 A 
HETATM   20  C   UNL     1     -44.571 -54.320  13.325  1.00  0.00     0.037 A 
HETATM   21  C   UNL     1     -44.139 -53.474  12.290  1.00  0.00     0.108 A 
HETATM   22  N   UNL     1     -42.915 -52.990  12.509  1.00  0.00    -0.309 N 
ATOM     23  HN  UNL     1     -42.350 -52.404  11.894  1.00  0.00     0.186 HD
ENDBRANCH  16  18
ENDBRANCH   1  16
TORSDOF 5
ENDMDL
MODEL 6
REMARK VINA RESULT:      -5.5      3.416      5.517
REMARK  5 active torsions:
REMARK  status: ('A' for Active; 'I' for Inactive)
REMARK    1  A    between atoms: C_2  and  C_3 
REMARK    2  A    between atoms: C_2  and  N_17 
REMARK       I    between atoms: C_3  and  N_5 
REMARK    3  A    between atoms: N_5  and  C_6 
REMARK    4  A    between atoms: C_6  and  C_13 
REMARK    5  A    between atoms: C_13  and  N_14 
ROOT
HETATM    1  C   UNL     1     -41.494 -48.642  11.608  1.00  0.00     0.243 C 
HETATM    2  O   UNL     1     -42.623 -49.105  11.752  1.00  0.00    -0.271 OA
HETATM    3  N   UNL     1     -40.385 -49.227  12.189  1.00  0.00    -0.338 N 
HETATM    4  H   UNL     1     -39.523 -48.681  12.206  1.00  0.00     0.164 HD
ENDROOT
BRANCH   3   5
HETATM    5  C   UNL     1     -40.427 -50.506  12.931  1.00  0.00     0.105 C 
HETATM    6  C   UNL     1     -41.392 -50.375  14.129  1.00  0.00     0.045 C 
HETATM    7  C   UNL     1     -40.881 -49.394  15.194  1.00  0.00     0.004 C 
HETATM    8  C   UNL     1     -39.446 -49.691  15.640  1.00  0.00     0.004 C 
HETATM    9  C   UNL     1     -38.495 -49.815  14.447  1.00  0.00    -0.015 C 
HETATM   10  C   UNL     1     -37.070 -50.139  14.888  1.00  0.00     0.010 C 
HETATM   11  C   UNL     1     -39.026 -50.885  13.480  1.00  0.00     0.049 C 
BRANCH   5  12
HETATM   12  C   UNL     1     -40.899 -51.601  11.990  1.00  0.00    -0.046 C 
BRANCH  12  13
HETATM   13  N   UNL     1     -41.292 -52.509  11.208  1.00  0.00    -0.367 N 
ATOM     14  HN2 UNL     1     -40.951 -51.786  11.841  1.00  0.00     0.165 HD
ATOM     15  HN1 UNL     1     -41.609 -53.244  10.575  1.00  0.00     0.165 HD
ENDBRANCH  12  13
ENDBRANCH   5  12
ENDBRANCH   3   5
BRANCH   1  16
HETATM   16  C   UNL     1     -41.255 -47.360  10.810  1.00  0.00     0.195 C 
HETATM   17  C   UNL     1     -41.028 -46.176  11.755  1.00  0.00     0.044 C 
BRANCH  16  18
HETATM   18  N   UNL     1     -42.326 -47.118   9.850  1.00  0.00    -0.290 N 
HETATM   19  C   UNL     1     -43.150 -46.032   9.748  1.00  0.00     0.112 A 
HETATM   20  C   UNL     1     -43.993 -46.288   8.693  1.00  0.00     0.037 A 
HETATM   21  C   UNL     1     -43.633 -47.571   8.248  1.00  0.00     0.108 A 
HETATM   22  N   UNL     1     -42.656 -48.105   8.983  1.00  0.00    -0.309 N 
ATOM     23  HN  UNL     1     -42.251 -49.039   8.909  1.00  0.00     0.186 HD
ENDBRANCH  16  18
ENDBRANCH   1  16
TORSDOF 5
ENDMDL
MODEL 7
REMARK VINA RESULT:      -5.5      5.216      6.253
REMARK  5 active torsions:
REMARK  status: ('A' for Active; 'I' for Inactive)
REMARK    1  A    between atoms: C_2  and  C_3 
REMARK    2  A    between atoms: C_2  and  N_17 
REMARK       I    between atoms: C_3  and  N_5 
REMARK    3  A    between atoms: N_5  and  C_6 
REMARK    4  A    between atoms: C_6  and  C_13 
REMARK    5  A    between atoms: C_13  and  N_14 
ROOT
HETATM    1  C   UNL     1     -40.595 -51.028  12.444  1.00  0.00     0.243 C 
HETATM    2  O   UNL     1     -40.079 -52.113  12.185  1.00  0.00    -0.271 OA
HETATM    3  N   UNL     1     -39.846 -49.946  12.865  1.00  0.00    -0.338 N 
HETATM    4  H   UNL     1     -40.352 -49.152  13.260  1.00  0.00     0.164 HD
ENDROOT
BRANCH   3   5
HETATM    5  C   UNL     1     -38.369 -49.948  12.936  1.00  0.00     0.105 C 
HETATM    6  C   UNL     1     -37.895 -51.164  13.760  1.00  0.00     0.045 C 
HETATM    7  C   UNL     1     -38.294 -51.066  15.240  1.00  0.00     0.004 C 
HETATM    8  C   UNL     1     -37.883 -49.738  15.883  1.00  0.00     0.004 C 
HETATM    9  C   UNL     1     -38.360 -48.537  15.061  1.00  0.00    -0.015 C 
HETATM   10  C   UNL     1     -37.926 -47.213  15.685  1.00  0.00     0.010 C 
HETATM   11  C   UNL     1     -37.836 -48.663  13.622  1.00  0.00     0.049 C 
BRANCH   5  12
HETATM   12  C   UNL     1     -37.813 -50.019  11.523  1.00  0.00    -0.046 C 
BRANCH  12  13
HETATM   13  N   UNL     1     -37.352 -50.077  10.351  1.00  0.00    -0.367 N 
ATOM     14  HN2 UNL     1     -37.725 -50.004  11.297  1.00  0.00     0.165 HD
ATOM     15  HN1 UNL     1     -36.978 -50.124   9.403  1.00  0.00     0.165 HD
ENDBRANCH  12  13
ENDBRANCH   5  12
ENDBRANCH   3   5
BRANCH   1  16
HETATM   16  C   UNL     1     -42.108 -50.824  12.355  1.00  0.00     0.195 C 
HETATM   17  C   UNL     1     -42.517 -49.540  13.083  1.00  0.00     0.044 C 
BRANCH  16  18
HETATM   18  N   UNL     1     -42.835 -51.996  12.828  1.00  0.00    -0.290 N 
HETATM   19  C   UNL     1     -43.139 -52.350  14.114  1.00  0.00     0.112 A 
HETATM   20  C   UNL     1     -43.824 -53.538  14.033  1.00  0.00     0.037 A 
HETATM   21  C   UNL     1     -43.846 -53.848  12.663  1.00  0.00     0.108 A 
HETATM   22  N   UNL     1     -43.198 -52.941  11.929  1.00  0.00    -0.309 N 
ATOM     23  HN  UNL     1     -43.018 -52.957  10.925  1.00  0.00     0.186 HD
ENDBRANCH  16  18
ENDBRANCH   1  16
TORSDOF 5
ENDMDL
MODEL 8
REMARK VINA RESULT:      -5.4      4.121      5.680
REMARK  5 active torsions:
REMARK  status: ('A' for Active; 'I' for Inactive)
REMARK    1  A    between atoms: C_2  and  C_3 
REMARK    2  A    between atoms: C_2  and  N_17 
REMARK       I    between atoms: C_3  and  N_5 
REMARK    3  A    between atoms: N_5  and  C_6 
REMARK    4  A    between atoms: C_6  and  C_13 
REMARK    5  A    between atoms: C_13  and  N_14 
ROOT
HETATM    1  C   UNL     1     -42.424 -50.364  12.883  1.00  0.00     0.243 C 
HETATM    2  O   UNL     1     -43.129 -49.408  12.570  1.00  0.00    -0.271 OA
HETATM    3  N   UNL     1     -41.076 -50.405  12.588  1.00  0.00    -0.338 N 
HETATM    4  H   UNL     1     -40.602 -51.305  12.685  1.00  0.00     0.164 HD
ENDROOT
BRANCH   3   5
HETATM    5  C   UNL     1     -40.334 -49.279  11.982  1.00  0.00     0.105 C 
HETATM    6  C   UNL     1     -38.943 -49.766  11.522  1.00  0.00     0.045 C 
HETATM    7  C   UNL     1     -38.037 -50.160  12.698  1.00  0.00     0.004 C 
HETATM    8  C   UNL     1     -37.941 -49.069  13.770  1.00  0.00     0.004 C 
HETATM    9  C   UNL     1     -39.324 -48.594  14.222  1.00  0.00    -0.015 C 
HETATM   10  C   UNL     1     -39.230 -47.487  15.269  1.00  0.00     0.010 C 
HETATM   11  C   UNL     1     -40.129 -48.126  13.000  1.00  0.00     0.049 C 
BRANCH   5  12
HETATM   12  C   UNL     1     -41.128 -48.754  10.797  1.00  0.00    -0.046 C 
BRANCH  12  13
HETATM   13  N   UNL     1     -41.787 -48.319   9.814  1.00  0.00    -0.367 N 
ATOM     14  HN2 UNL     1     -41.276 -48.676  10.621  1.00  0.00     0.165 HD
ATOM     15  HN1 UNL     1     -42.319 -47.967   9.018  1.00  0.00     0.165 HD
ENDBRANCH  12  13
ENDBRANCH   5  12
ENDBRANCH   3   5
BRANCH   1  16
HETATM   16  C   UNL     1     -43.012 -51.591  13.583  1.00  0.00     0.195 C 
HETATM   17  C   UNL     1     -42.482 -52.877  12.942  1.00  0.00     0.044 C 
BRANCH  16  18
HETATM   18  N   UNL     1     -44.470 -51.539  13.621  1.00  0.00    -0.290 N 
HETATM   19  C   UNL     1     -45.289 -51.371  14.703  1.00  0.00     0.112 A 
HETATM   20  C   UNL     1     -46.575 -51.402  14.218  1.00  0.00     0.037 A 
HETATM   21  C   UNL     1     -46.435 -51.640  12.841  1.00  0.00     0.108 A 
HETATM   22  N   UNL     1     -45.157 -51.779  12.479  1.00  0.00    -0.309 N 
ATOM     23  HN  UNL     1     -44.786 -52.011  11.558  1.00  0.00     0.186 HD
ENDBRANCH  16  18
ENDBRANCH   1  16
TORSDOF 5
ENDMDL
MODEL 9
REMARK VINA RESULT:      -5.4      7.170      9.080
REMARK  5 active torsions:
REMARK  status: ('A' for Active; 'I' for Inactive)
REMARK    1  A    between atoms: C_2  and  C_3 
REMARK    2  A    between atoms: C_2  and  N_17 
REMARK       I    between atoms: C_3  and  N_5 
REMARK    3  A    between atoms: N_5  and  C_6 
REMARK    4  A    between atoms: C_6  and  C_13 
REMARK    5  A    between atoms: C_13  and  N_14 
ROOT
HETATM    1  C   UNL     1     -43.342 -53.281  13.493  1.00  0.00     0.243 C 
HETATM    2  O   UNL     1     -42.948 -52.638  12.522  1.00  0.00    -0.271 OA
HETATM    3  N   UNL     1     -44.403 -52.856  14.268  1.00  0.00    -0.338 N 
HETATM    4  H   UNL     1     -44.540 -53.319  15.168  1.00  0.00     0.164 HD
ENDROOT
BRANCH   3   5
HETATM    5  C   UNL     1     -45.230 -51.673  13.950  1.00  0.00     0.105 C 
HETATM    6  C   UNL     1     -44.316 -50.444  13.755  1.00  0.00     0.045 C 
HETATM    7  C   UNL     1     -43.617 -50.016  15.054  1.00  0.00     0.004 C 
HETATM    8  C   UNL     1     -44.590 -49.831  16.223  1.00  0.00     0.004 C 
HETATM    9  C   UNL     1     -45.490 -51.055  16.412  1.00  0.00    -0.015 C 
HETATM   10  C   UNL     1     -46.480 -50.862  17.557  1.00  0.00     0.010 C 
HETATM   11  C   UNL     1     -46.226 -51.356  15.096  1.00  0.00     0.049 C 
BRANCH   5  12
HETATM   12  C   UNL     1     -46.015 -51.953  12.679  1.00  0.00    -0.046 C 
BRANCH  12  13
HETATM   13  N   UNL     1     -46.665 -52.186  11.624  1.00  0.00    -0.367 N 
ATOM     14  HN2 UNL     1     -46.119 -51.990  12.463  1.00  0.00     0.165 HD
ATOM     15  HN1 UNL     1     -47.192 -52.374  10.771  1.00  0.00     0.165 HD
ENDBRANCH  12  13
ENDBRANCH   5  12
ENDBRANCH   3   5
BRANCH   1  16
HETATM   16  C   UNL     1     -42.647 -54.572  13.927  1.00  0.00     0.195 C 
HETATM   17  C   UNL     1     -43.414 -55.231  15.077  1.00  0.00     0.044 C 
BRANCH  16  18
HETATM   18  N   UNL     1     -41.241 -54.345  14.244  1.00  0.00    -0.290 N 
HETATM   19  C   UNL     1     -40.675 -54.075  15.458  1.00  0.00     0.112 A 
HETATM   20  C   UNL     1     -39.326 -53.934  15.230  1.00  0.00     0.037 A 
HETATM   21  C   UNL     1     -39.179 -54.092  13.842  1.00  0.00     0.108 A 
HETATM   22  N   UNL     1     -40.348 -54.287  13.228  1.00  0.00    -0.309 N 
ATOM     23  HN  UNL     1     -40.527 -54.373  12.227  1.00  0.00     0.186 HD
ENDBRANCH  16  18
ENDBRANCH   1  16
TORSDOF 5
ENDMDL
