MODEL 1
REMARK VINA RESULT:      -5.8      0.000      0.000
REMARK  4 active torsions:
REMARK  status: ('A' for Active; 'I' for Inactive)
REMARK    1  A    between atoms: O_2  and  C_3 
REMARK       I    between atoms: N_6  and  C_9 
REMARK       I    between atoms: C_9  and  N_11 
REMARK    2  A    between atoms: N_11  and  C_12 
REMARK    3  A    between atoms: C_12  and  C_13 
REMARK    4  A    between atoms: C_13  and  C_14 
ROOT
HETATM    1  C   UNL     1     -43.970 -53.887  14.882  1.00  0.00     0.123 C 
HETATM    2  C   UNL     1     -44.140 -52.418  14.486  1.00  0.00     0.052 C 
HETATM    3  C   UNL     1     -43.752 -52.224  13.022  1.00  0.00     0.130 C 
HETATM    4  N   UNL     1     -42.369 -52.650  12.805  1.00  0.00    -0.334 N 
HETATM    5  C   UNL     1     -42.071 -54.025  13.206  1.00  0.00     0.130 C 
HETATM    6  C   UNL     1     -42.515 -54.308  14.640  1.00  0.00     0.052 C 
HETATM    7  C   UNL     1     -41.363 -51.877  12.251  1.00  0.00     0.318 C 
HETATM    8  O   UNL     1     -40.186 -52.223  12.218  1.00  0.00    -0.247 OA
HETATM    9  N   UNL     1     -41.782 -50.674  11.737  1.00  0.00    -0.343 N 
HETATM   10  H   UNL     1     -42.668 -50.741  11.262  1.00  0.00     0.164 HD
ENDROOT
BRANCH   9  11
HETATM   11  C   UNL     1     -40.822 -49.773  11.113  1.00  0.00     0.130 C 
BRANCH  11  12
HETATM   12  C   UNL     1     -41.078 -48.328  11.528  1.00  0.00     0.076 C 
BRANCH  12  13
HETATM   13  C   UNL     1     -41.964 -47.606  10.549  1.00  0.00     0.010 A 
HETATM   14  C   UNL     1     -42.346 -46.286  10.776  1.00  0.00     0.025 A 
HETATM   15  C   UNL     1     -43.178 -45.662   9.854  1.00  0.00     0.003 A 
HETATM   16  C   UNL     1     -43.605 -46.363   8.733  1.00  0.00     0.017 A 
HETATM   17  C   UNL     1     -43.169 -47.666   8.577  1.00  0.00     0.088 A 
HETATM   18  N   UNL     1     -42.361 -48.301   9.456  1.00  0.00    -0.369 N 
ATOM     19  HN  UNL     1     -42.062 -49.263   9.301  1.00  0.00     0.165 HD
ENDBRANCH  12  13
ENDBRANCH  11  12
ENDBRANCH   9  11
BRANCH   1  20
HETATM   20  O   UNL     1     -44.914 -54.624  14.101  1.00  0.00    -0.391 OA
HETATM   21  C   UNL     1     -46.244 -54.601  14.591  1.00  0.00     0.202 C 
ENDBRANCH   1  20
TORSDOF 4
ENDMDL
MODEL 2
REMARK VINA RESULT:      -5.7      1.507      2.092
REMARK  4 active torsions:
REMARK  status: ('A' for Active; 'I' for Inactive)
REMARK    1  A    between atoms: O_2  and  C_3 
REMARK       I    between atoms: N_6  and  C_9 
REMARK       I    between atoms: C_9  and  N_11 
REMARK    2  A    between atoms: N_11  and  C_12 
REMARK    3  A    between atoms: C_12  and  C_13 
REMARK    4  A    between atoms: C_13  and  C_14 
ROOT
HETATM    1  C   UNL     1     -43.802 -54.061  14.840  1.00  0.00     0.123 C 
HETATM    2  C   UNL     1     -44.032 -52.595  14.465  1.00  0.00     0.052 C 
HETATM    3  C   UNL     1     -43.615 -52.355  13.016  1.00  0.00     0.130 C 
HETATM    4  N   UNL     1     -42.207 -52.710  12.830  1.00  0.00    -0.334 N 
HETATM    5  C   UNL     1     -41.854 -54.077  13.215  1.00  0.00     0.130 C 
HETATM    6  C   UNL     1     -42.323 -54.407  14.631  1.00  0.00     0.052 C 
HETATM    7  C   UNL     1     -41.226 -51.879  12.318  1.00  0.00     0.318 C 
HETATM    8  O   UNL     1     -40.033 -52.167  12.312  1.00  0.00    -0.247 OA
HETATM    9  N   UNL     1     -41.688 -50.688  11.813  1.00  0.00    -0.343 N 
HETATM   10  H   UNL     1     -42.557 -50.788  11.314  1.00  0.00     0.164 HD
ENDROOT
BRANCH   9  11
HETATM   11  C   UNL     1     -40.756 -49.730  11.233  1.00  0.00     0.130 C 
BRANCH  11  12
HETATM   12  C   UNL     1     -41.495 -48.518  10.675  1.00  0.00     0.076 C 
BRANCH  12  13
HETATM   13  C   UNL     1     -40.823 -47.225  11.049  1.00  0.00     0.010 A 
HETATM   14  C   UNL     1     -40.290 -47.045  12.324  1.00  0.00     0.025 A 
HETATM   15  C   UNL     1     -39.691 -45.828  12.633  1.00  0.00     0.003 A 
HETATM   16  C   UNL     1     -39.637 -44.828  11.671  1.00  0.00     0.017 A 
HETATM   17  C   UNL     1     -40.179 -45.094  10.426  1.00  0.00     0.088 A 
HETATM   18  N   UNL     1     -40.767 -46.265  10.095  1.00  0.00    -0.369 N 
ATOM     19  HN  UNL     1     -41.153 -46.420   9.164  1.00  0.00     0.165 HD
ENDBRANCH  12  13
ENDBRANCH  11  12
ENDBRANCH   9  11
BRANCH   1  20
HETATM   20  O   UNL     1     -44.688 -54.828  14.019  1.00  0.00    -0.391 OA
HETATM   21  C   UNL     1     -46.057 -54.743  14.375  1.00  0.00     0.202 C 
ENDBRANCH   1  20
TORSDOF 4
ENDMDL
MODEL 3
REMARK VINA RESULT:      -5.7      3.652      6.721
REMARK  4 active torsions:
REMARK  status: ('A' for Active; 'I' for Inactive)
REMARK    1  A    between atoms: O_2  and  C_3 
REMARK       I    between atoms: N_6  and  C_9 
REMARK       I    between atoms: C_9  and  N_11 
REMARK    2  A    between atoms: N_11  and  C_12 
REMARK    3  A    between atoms: C_12  and  C_13 
REMARK    4  A    between atoms: C_13  and  C_14 
ROOT
HETATM    1  C   UNL     1     -38.880 -51.796  14.034  1.00  0.00     0.123 C 
HETATM    2  C   UNL     1     -39.576 -53.135  14.290  1.00  0.00     0.052 C 
HETATM    3  C   UNL     1     -40.455 -53.503  13.098  1.00  0.00     0.130 C 
HETATM    4  N   UNL     1     -41.448 -52.454  12.859  1.00  0.00    -0.334 N 
HETATM    5  C   UNL     1     -40.900 -51.112  12.661  1.00  0.00     0.130 C 
HETATM    6  C   UNL     1     -39.941 -50.718  13.783  1.00  0.00     0.052 C 
HETATM    7  C   UNL     1     -42.819 -52.639  12.793  1.00  0.00     0.318 C 
HETATM    8  O   UNL     1     -43.623 -51.714  12.735  1.00  0.00    -0.247 OA
HETATM    9  N   UNL     1     -43.221 -53.952  12.805  1.00  0.00    -0.343 N 
HETATM   10  H   UNL     1     -42.619 -54.549  12.261  1.00  0.00     0.164 HD
ENDROOT
BRANCH   9  11
HETATM   11  C   UNL     1     -44.639 -54.282  12.727  1.00  0.00     0.130 C 
BRANCH  11  12
HETATM   12  C   UNL     1     -45.185 -54.674  14.096  1.00  0.00     0.076 C 
BRANCH  12  13
HETATM   13  C   UNL     1     -45.827 -53.511  14.803  1.00  0.00     0.010 A 
HETATM   14  C   UNL     1     -45.960 -53.509  16.189  1.00  0.00     0.025 A 
HETATM   15  C   UNL     1     -46.574 -52.422  16.801  1.00  0.00     0.003 A 
HETATM   16  C   UNL     1     -47.036 -51.369  16.021  1.00  0.00     0.017 A 
HETATM   17  C   UNL     1     -46.852 -51.445  14.653  1.00  0.00     0.088 A 
HETATM   18  N   UNL     1     -46.260 -52.488  14.028  1.00  0.00    -0.369 N 
ATOM     19  HN  UNL     1     -46.144 -52.503  13.016  1.00  0.00     0.165 HD
ENDBRANCH  12  13
ENDBRANCH  11  12
ENDBRANCH   9  11
BRANCH   1  20
HETATM   20  O   UNL     1     -38.006 -52.005  12.922  1.00  0.00    -0.391 OA
HETATM   21  C   UNL     1     -37.234 -50.878  12.547  1.00  0.00     0.202 C 
ENDBRANCH   1  20
TORSDOF 4
ENDMDL
MODEL 4
REMARK VINA RESULT:      -5.6      3.713      5.212
REMARK  4 active torsions:
REMARK  status: ('A' for Active; 'I' for Inactive)
REMARK    1  A    between atoms: O_2  and  C_3 
REMARK       I    between atoms: N_6  and  C_9 
REMARK       I    between atoms: C_9  and  N_11 
REMARK    2  A    between atoms: N_11  and  C_12 
REMARK    3  A    between atoms: C_12  and  C_13 
REMARK    4  A    between atoms: C_13  and  C_14 
ROOT
HETATM    1  C   UNL     1     -39.559 -55.556  16.839  1.00  0.00     0.123 C 
HETATM    2  C   UNL     1     -40.880 -54.792  16.721  1.00  0.00     0.052 C 
HETATM    3  C   UNL     1     -41.377 -54.828  15.279  1.00  0.00     0.130 C 
HETATM    4  N   UNL     1     -40.374 -54.248  14.384  1.00  0.00    -0.334 N 
HETATM    5  C   UNL     1     -39.048 -54.861  14.454  1.00  0.00     0.130 C 
HETATM    6  C   UNL     1     -38.530 -54.932  15.890  1.00  0.00     0.052 C 
HETATM    7  C   UNL     1     -40.589 -53.208  13.495  1.00  0.00     0.318 C 
HETATM    8  O   UNL     1     -39.689 -52.658  12.869  1.00  0.00    -0.247 OA
HETATM    9  N   UNL     1     -41.903 -52.825  13.367  1.00  0.00    -0.343 N 
HETATM   10  H   UNL     1     -42.538 -53.607  13.372  1.00  0.00     0.164 HD
ENDROOT
BRANCH   9  11
HETATM   11  C   UNL     1     -42.264 -51.750  12.453  1.00  0.00     0.130 C 
BRANCH  11  12
HETATM   12  C   UNL     1     -42.893 -50.582  13.205  1.00  0.00     0.076 C 
BRANCH  12  13
HETATM   13  C   UNL     1     -44.285 -50.900  13.683  1.00  0.00     0.010 A 
HETATM   14  C   UNL     1     -44.608 -50.813  15.034  1.00  0.00     0.025 A 
HETATM   15  C   UNL     1     -45.901 -51.131  15.436  1.00  0.00     0.003 A 
HETATM   16  C   UNL     1     -46.835 -51.523  14.485  1.00  0.00     0.017 A 
HETATM   17  C   UNL     1     -46.434 -51.570  13.162  1.00  0.00     0.088 A 
HETATM   18  N   UNL     1     -45.186 -51.268  12.741  1.00  0.00    -0.369 N 
ATOM     19  HN  UNL     1     -44.933 -51.315  11.754  1.00  0.00     0.165 HD
ENDBRANCH  12  13
ENDBRANCH  11  12
ENDBRANCH   9  11
BRANCH   1  20
HETATM   20  O   UNL     1     -39.859 -56.922  16.537  1.00  0.00    -0.391 OA
HETATM   21  C   UNL     1     -39.700 -57.823  17.619  1.00  0.00     0.202 C 
ENDBRANCH   1  20
TORSDOF 4
ENDMDL
MODEL 5
REMARK VINA RESULT:      -5.5      1.786      2.349
REMARK  4 active torsions:
REMARK  status: ('A' for Active; 'I' for Inactive)
REMARK    1  A    between atoms: O_2  and  C_3 
REMARK       I    between atoms: N_6  and  C_9 
REMARK       I    between atoms: C_9  and  N_11 
REMARK    2  A    between atoms: N_11  and  C_12 
REMARK    3  A    between atoms: C_12  and  C_13 
REMARK    4  A    between atoms: C_13  and  C_14 
ROOT
HETATM    1  C   UNL     1     -45.737 -53.119  13.011  1.00  0.00     0.123 C 
HETATM    2  C   UNL     1     -44.336 -53.254  12.409  1.00  0.00     0.052 C 
HETATM    3  C   UNL     1     -43.301 -52.650  13.354  1.00  0.00     0.130 C 
HETATM    4  N   UNL     1     -43.609 -51.242  13.608  1.00  0.00    -0.334 N 
HETATM    5  C   UNL     1     -44.951 -50.982  14.130  1.00  0.00     0.130 C 
HETATM    6  C   UNL     1     -46.032 -51.637  13.270  1.00  0.00     0.052 C 
HETATM    7  C   UNL     1     -42.745 -50.178  13.411  1.00  0.00     0.318 C 
HETATM    8  O   UNL     1     -43.089 -49.004  13.500  1.00  0.00    -0.247 OA
HETATM    9  N   UNL     1     -41.456 -50.536  13.100  1.00  0.00    -0.343 N 
HETATM   10  H   UNL     1     -41.138 -51.338  13.621  1.00  0.00     0.164 HD
ENDROOT
BRANCH   9  11
HETATM   11  C   UNL     1     -40.445 -49.510  12.882  1.00  0.00     0.130 C 
BRANCH  11  12
HETATM   12  C   UNL     1     -40.228 -49.263  11.392  1.00  0.00     0.076 C 
BRANCH  12  13
HETATM   13  C   UNL     1     -41.087 -48.141  10.874  1.00  0.00     0.010 A 
HETATM   14  C   UNL     1     -40.676 -46.816  11.000  1.00  0.00     0.025 A 
HETATM   15  C   UNL     1     -41.507 -45.809  10.522  1.00  0.00     0.003 A 
HETATM   16  C   UNL     1     -42.718 -46.145   9.930  1.00  0.00     0.017 A 
HETATM   17  C   UNL     1     -43.044 -47.486   9.833  1.00  0.00     0.088 A 
HETATM   18  N   UNL     1     -42.258 -48.487  10.288  1.00  0.00    -0.369 N 
ATOM     19  HN  UNL     1     -42.537 -49.464  10.195  1.00  0.00     0.165 HD
ENDBRANCH  12  13
ENDBRANCH  11  12
ENDBRANCH   9  11
BRANCH   1  20
HETATM   20  O   UNL     1     -45.742 -53.917  14.198  1.00  0.00    -0.391 OA
HETATM   21  C   UNL     1     -45.642 -55.314  13.980  1.00  0.00     0.202 C 
ENDBRANCH   1  20
TORSDOF 4
ENDMDL
MODEL 6
REMARK VINA RESULT:      -5.5      2.750      3.888
REMARK  4 active torsions:
REMARK  status: ('A' for Active; 'I' for Inactive)
REMARK    1  A    between atoms: O_2  and  C_3 
REMARK       I    between atoms: N_6  and  C_9 
REMARK       I    between atoms: C_9  and  N_11 
REMARK    2  A    between atoms: N_11  and  C_12 
REMARK    3  A    between atoms: C_12  and  C_13 
REMARK    4  A    between atoms: C_13  and  C_14 
ROOT
HETATM    1  C   UNL     1     -39.798 -52.415  14.218  1.00  0.00     0.123 C 
HETATM    2  C   UNL     1     -41.185 -52.002  13.719  1.00  0.00     0.052 C 
HETATM    3  C   UNL     1     -41.120 -51.636  12.239  1.00  0.00     0.130 C 
HETATM    4  N   UNL     1     -40.162 -50.550  12.029  1.00  0.00    -0.334 N 
HETATM    5  C   UNL     1     -38.809 -50.808  12.523  1.00  0.00     0.130 C 
HETATM    6  C   UNL     1     -38.815 -51.263  13.982  1.00  0.00     0.052 C 
HETATM    7  C   UNL     1     -40.431 -49.345  11.402  1.00  0.00     0.318 C 
HETATM    8  O   UNL     1     -39.641 -48.407  11.373  1.00  0.00    -0.247 OA
HETATM    9  N   UNL     1     -41.668 -49.271  10.809  1.00  0.00    -0.343 N 
HETATM   10  H   UNL     1     -41.936 -50.130  10.357  1.00  0.00     0.164 HD
ENDROOT
BRANCH   9  11
HETATM   11  C   UNL     1     -42.069 -48.060  10.105  1.00  0.00     0.130 C 
BRANCH  11  12
HETATM   12  C   UNL     1     -42.667 -47.039  11.067  1.00  0.00     0.076 C 
BRANCH  12  13
HETATM   13  C   UNL     1     -41.836 -45.787  11.151  1.00  0.00     0.010 A 
HETATM   14  C   UNL     1     -42.201 -44.749  12.006  1.00  0.00     0.025 A 
HETATM   15  C   UNL     1     -41.414 -43.603  12.041  1.00  0.00     0.003 A 
HETATM   16  C   UNL     1     -40.289 -43.521  11.230  1.00  0.00     0.017 A 
HETATM   17  C   UNL     1     -39.991 -44.602  10.420  1.00  0.00     0.088 A 
HETATM   18  N   UNL     1     -40.736 -45.729  10.364  1.00  0.00    -0.369 N 
ATOM     19  HN  UNL     1     -40.479 -46.504   9.753  1.00  0.00     0.165 HD
ENDBRANCH  12  13
ENDBRANCH  11  12
ENDBRANCH   9  11
BRANCH   1  20
HETATM   20  O   UNL     1     -39.458 -53.610  13.509  1.00  0.00    -0.391 OA
HETATM   21  C   UNL     1     -39.203 -54.739  14.327  1.00  0.00     0.202 C 
ENDBRANCH   1  20
TORSDOF 4
ENDMDL
MODEL 7
REMARK VINA RESULT:      -5.5      3.256      4.536
REMARK  4 active torsions:
REMARK  status: ('A' for Active; 'I' for Inactive)
REMARK    1  A    between atoms: O_2  and  C_3 
REMARK       I    between atoms: N_6  and  C_9 
REMARK       I    between atoms: C_9  and  N_11 
REMARK    2  A    between atoms: N_11  and  C_12 
REMARK    3  A    between atoms: C_12  and  C_13 
REMARK    4  A    between atoms: C_13  and  C_14 
ROOT
HETATM    1  C   UNL     1     -46.899 -52.731  14.968  1.00  0.00     0.123 C 
HETATM    2  C   UNL     1     -45.917 -53.898  14.848  1.00  0.00     0.052 C 
HETATM    3  C   UNL     1     -44.502 -53.426  15.174  1.00  0.00     0.130 C 
HETATM    4  N   UNL     1     -44.112 -52.341  14.272  1.00  0.00    -0.334 N 
HETATM    5  C   UNL     1     -45.014 -51.190  14.256  1.00  0.00     0.130 C 
HETATM    6  C   UNL     1     -46.465 -51.608  14.018  1.00  0.00     0.052 C 
HETATM    7  C   UNL     1     -42.980 -52.321  13.476  1.00  0.00     0.318 C 
HETATM    8  O   UNL     1     -42.764 -51.458  12.630  1.00  0.00    -0.247 OA
HETATM    9  N   UNL     1     -42.103 -53.355  13.698  1.00  0.00    -0.343 N 
HETATM   10  H   UNL     1     -42.012 -53.585  14.675  1.00  0.00     0.164 HD
ENDROOT
BRANCH   9  11
HETATM   11  C   UNL     1     -40.866 -53.441  12.933  1.00  0.00     0.130 C 
BRANCH  11  12
HETATM   12  C   UNL     1     -39.698 -52.845  13.713  1.00  0.00     0.076 C 
BRANCH  12  13
HETATM   13  C   UNL     1     -39.237 -51.537  13.129  1.00  0.00     0.010 A 
HETATM   14  C   UNL     1     -38.198 -50.823  13.720  1.00  0.00     0.025 A 
HETATM   15  C   UNL     1     -37.813 -49.610  13.158  1.00  0.00     0.003 A 
HETATM   16  C   UNL     1     -38.469 -49.144  12.025  1.00  0.00     0.017 A 
HETATM   17  C   UNL     1     -39.482 -49.921  11.494  1.00  0.00     0.088 A 
HETATM   18  N   UNL     1     -39.878 -51.103  12.017  1.00  0.00    -0.369 N 
ATOM     19  HN  UNL     1     -40.630 -51.645  11.592  1.00  0.00     0.165 HD
ENDBRANCH  12  13
ENDBRANCH  11  12
ENDBRANCH   9  11
BRANCH   1  20
HETATM   20  O   UNL     1     -46.897 -52.345  16.345  1.00  0.00    -0.391 OA
HETATM   21  C   UNL     1     -47.743 -51.254  16.662  1.00  0.00     0.202 C 
ENDBRANCH   1  20
TORSDOF 4
ENDMDL
MODEL 8
REMARK VINA RESULT:      -5.4      3.389      6.482
REMARK  4 active torsions:
REMARK  status: ('A' for Active; 'I' for Inactive)
REMARK    1  A    between atoms: O_2  and  C_3 
REMARK       I    between atoms: N_6  and  C_9 
REMARK       I    between atoms: C_9  and  N_11 
REMARK    2  A    between atoms: N_11  and  C_12 
REMARK    3  A    between atoms: C_12  and  C_13 
REMARK    4  A    between atoms: C_13  and  C_14 
ROOT
HETATM    1  C   UNL     1     -38.429 -48.980  12.688  1.00  0.00     0.123 C 
HETATM    2  C   UNL     1     -39.876 -49.320  12.325  1.00  0.00     0.052 C 
HETATM    3  C   UNL     1     -40.484 -50.225  13.393  1.00  0.00     0.130 C 
HETATM    4  N   UNL     1     -39.694 -51.450  13.526  1.00  0.00    -0.334 N 
HETATM    5  C   UNL     1     -38.274 -51.248  13.814  1.00  0.00     0.130 C 
HETATM    6  C   UNL     1     -37.626 -50.279  12.825  1.00  0.00     0.052 C 
HETATM    7  C   UNL     1     -40.182 -52.742  13.420  1.00  0.00     0.318 C 
HETATM    8  O   UNL     1     -39.462 -53.736  13.395  1.00  0.00    -0.247 OA
HETATM    9  N   UNL     1     -41.550 -52.833  13.336  1.00  0.00    -0.343 N 
HETATM   10  H   UNL     1     -42.021 -52.178  13.939  1.00  0.00     0.164 HD
ENDROOT
BRANCH   9  11
HETATM   11  C   UNL     1     -42.190 -54.138  13.233  1.00  0.00     0.130 C 
BRANCH  11  12
HETATM   12  C   UNL     1     -43.336 -54.265  14.230  1.00  0.00     0.076 C 
BRANCH  12  13
HETATM   13  C   UNL     1     -44.428 -53.262  13.969  1.00  0.00     0.010 A 
HETATM   14  C   UNL     1     -44.758 -52.307  14.928  1.00  0.00     0.025 A 
HETATM   15  C   UNL     1     -45.784 -51.409  14.653  1.00  0.00     0.003 A 
HETATM   16  C   UNL     1     -46.448 -51.483  13.435  1.00  0.00     0.017 A 
HETATM   17  C   UNL     1     -46.048 -52.453  12.534  1.00  0.00     0.088 A 
HETATM   18  N   UNL     1     -45.056 -53.339  12.772  1.00  0.00    -0.369 N 
ATOM     19  HN  UNL     1     -44.792 -54.038  12.078  1.00  0.00     0.165 HD
ENDBRANCH  12  13
ENDBRANCH  11  12
ENDBRANCH   9  11
BRANCH   1  20
HETATM   20  O   UNL     1     -38.488 -48.216  13.896  1.00  0.00    -0.391 OA
HETATM   21  C   UNL     1     -37.230 -47.821  14.416  1.00  0.00     0.202 C 
ENDBRANCH   1  20
TORSDOF 4
ENDMDL
MODEL 9
REMARK VINA RESULT:      -5.4      2.319      6.969
REMARK  4 active torsions:
REMARK  status: ('A' for Active; 'I' for Inactive)
REMARK    1  A    between atoms: O_2  and  C_3 
REMARK       I    between atoms: N_6  and  C_9 
REMARK       I    between atoms: C_9  and  N_11 
REMARK    2  A    between atoms: N_11  and  C_12 
REMARK    3  A    between atoms: C_12  and  C_13 
REMARK    4  A    between atoms: C_13  and  C_14 
ROOT
HETATM    1  C   UNL     1     -41.099 -46.773  10.792  1.00  0.00     0.123 C 
HETATM    2  C   UNL     1     -42.134 -47.810  10.347  1.00  0.00     0.052 C 
HETATM    3  C   UNL     1     -42.701 -48.537  11.563  1.00  0.00     0.130 C 
HETATM    4  N   UNL     1     -41.624 -49.185  12.313  1.00  0.00    -0.334 N 
HETATM    5  C   UNL     1     -40.542 -48.298  12.741  1.00  0.00     0.130 C 
HETATM    6  C   UNL     1     -39.987 -47.477  11.578  1.00  0.00     0.052 C 
HETATM    7  C   UNL     1     -41.568 -50.527  12.649  1.00  0.00     0.318 C 
HETATM    8  O   UNL     1     -40.582 -51.056  13.153  1.00  0.00    -0.247 OA
HETATM    9  N   UNL     1     -42.711 -51.236  12.370  1.00  0.00    -0.343 N 
HETATM   10  H   UNL     1     -43.550 -50.716  12.566  1.00  0.00     0.164 HD
ENDROOT
BRANCH   9  11
HETATM   11  C   UNL     1     -42.784 -52.656  12.688  1.00  0.00     0.130 C 
BRANCH  11  12
HETATM   12  C   UNL     1     -44.154 -53.226  12.333  1.00  0.00     0.076 C 
BRANCH  12  13
HETATM   13  C   UNL     1     -45.192 -52.890  13.371  1.00  0.00     0.010 A 
HETATM   14  C   UNL     1     -45.858 -51.668  13.339  1.00  0.00     0.025 A 
HETATM   15  C   UNL     1     -46.798 -51.391  14.325  1.00  0.00     0.003 A 
HETATM   16  C   UNL     1     -47.051 -52.335  15.312  1.00  0.00     0.017 A 
HETATM   17  C   UNL     1     -46.354 -53.529  15.263  1.00  0.00     0.088 A 
HETATM   18  N   UNL     1     -45.435 -53.827  14.318  1.00  0.00    -0.369 N 
ATOM     19  HN  UNL     1     -44.945 -54.721  14.319  1.00  0.00     0.165 HD
ENDBRANCH  12  13
ENDBRANCH  11  12
ENDBRANCH   9  11
BRANCH   1  20
HETATM   20  O   UNL     1     -41.813 -45.801  11.561  1.00  0.00    -0.391 OA
HETATM   21  C   UNL     1     -42.454 -44.790  10.802  1.00  0.00     0.202 C 
ENDBRANCH   1  20
TORSDOF 4
ENDMDL
