MODEL 1
REMARK VINA RESULT:      -7.7      0.000      0.000
REMARK  7 active torsions:
REMARK  status: ('A' for Active; 'I' for Inactive)
REMARK    1  A    between atoms: N_1  and  C_10 
REMARK    2  A    between atoms: N_2  and  C_9 
REMARK    3  A    between atoms: C_7  and  C_14 
REMARK       I    between atoms: C_7  and  N_8 
REMARK    4  A    between atoms: N_8  and  C_13 
REMARK    5  A    between atoms: C_10  and  C_11 
REMARK       I    between atoms: C_11  and  N_16 
REMARK    6  A    between atoms: N_16  and  C_24 
REMARK    7  A    between atoms: C_21  and  O_27 
ROOT
HETATM    1  C   UNL     1     -41.510 -50.816  12.097  1.00  0.00     0.240 C 
HETATM    2  N   UNL     1     -41.048 -49.969  11.092  1.00  0.00    -0.326 N 
HETATM    3  O   UNL     1     -42.015 -50.421  13.149  1.00  0.00    -0.271 OA
HETATM    4  H   UNL     1     -40.437 -50.395  10.396  1.00  0.00     0.169 HD
ENDROOT
BRANCH   2   5
HETATM    5  C   UNL     1     -40.976 -48.562  11.228  1.00  0.00     0.034 A 
HETATM    6  C   UNL     1     -41.948 -47.777  10.602  1.00  0.00     0.030 A 
HETATM    7  C   UNL     1     -41.827 -46.375  10.559  1.00  0.00     0.019 A 
HETATM    8  C   UNL     1     -40.767 -45.730  11.213  1.00  0.00     0.032 A 
HETATM    9  C   UNL     1     -39.864 -46.517  11.942  1.00  0.00     0.019 A 
HETATM   10  C   UNL     1     -39.956 -47.922  11.935  1.00  0.00     0.030 A 
BRANCH   8  11
HETATM   11  C   UNL     1     -40.496 -44.252  11.059  1.00  0.00     0.256 C 
HETATM   12  N   UNL     1     -40.906 -43.443  12.104  1.00  0.00    -0.321 N 
HETATM   13  H   UNL     1     -40.978 -43.859  13.024  1.00  0.00     0.169 HD
HETATM   14  O   UNL     1     -39.907 -43.845  10.067  1.00  0.00    -0.267 OA
BRANCH  12  15
HETATM   15  C   UNL     1     -40.962 -42.026  12.103  1.00  0.00     0.068 C 
HETATM   16  C   UNL     1     -41.982 -41.411  11.358  1.00  0.00     0.095 C 
HETATM   17  C   UNL     1     -41.913 -40.057  11.024  1.00  0.00     0.039 C 
HETATM   18  C   UNL     1     -40.861 -39.284  11.507  1.00  0.00     0.003 C 
HETATM   19  C   UNL     1     -39.915 -39.858  12.360  1.00  0.00     0.002 C 
HETATM   20  C   UNL     1     -39.968 -41.227  12.670  1.00  0.00     0.032 C 
BRANCH  16  21
HETATM   21  O   UNL     1     -43.081 -42.125  10.935  1.00  0.00    -0.354 OA
HETATM   22  C   UNL     1     -44.290 -41.462  11.343  1.00  0.00     0.210 C 
ENDBRANCH  16  21
ENDBRANCH  12  15
ENDBRANCH   8  11
ENDBRANCH   2   5
BRANCH   1  23
HETATM   23  C   UNL     1     -41.356 -52.336  11.821  1.00  0.00     0.240 C 
BRANCH  23  24
HETATM   24  N   UNL     1     -41.466 -53.209  13.000  1.00  0.00    -0.255 N 
HETATM   25  C   UNL     1     -40.295 -53.563  13.645  1.00  0.00     0.334 C 
HETATM   26  N   UNL     1     -40.415 -54.296  14.813  1.00  0.00    -0.279 N 
HETATM   27  O   UNL     1     -39.198 -53.188  13.214  1.00  0.00    -0.246 OA
HETATM   28  C   UNL     1     -41.612 -54.851  15.204  1.00  0.00     0.146 C 
HETATM   29  C   UNL     1     -42.716 -54.672  14.485  1.00  0.00     0.200 C 
HETATM   30  C   UNL     1     -42.691 -53.812  13.277  1.00  0.00     0.292 C 
HETATM   31  F   UNL     1     -43.886 -55.248  14.816  1.00  0.00    -0.199 F 
HETATM   32  O   UNL     1     -43.694 -53.706  12.576  1.00  0.00    -0.264 OA
BRANCH  26  33
HETATM   33  C   UNL     1     -39.197 -54.419  15.597  1.00  0.00     0.232 C 
HETATM   34  O   UNL     1     -38.585 -55.711  15.503  1.00  0.00    -0.366 OA
HETATM   35  C   UNL     1     -37.732 -55.838  16.655  1.00  0.00     0.170 C 
HETATM   36  C   UNL     1     -38.237 -54.872  17.713  1.00  0.00     0.031 C 
HETATM   37  C   UNL     1     -39.461 -54.262  17.089  1.00  0.00     0.056 C 
ENDBRANCH  26  33
ENDBRANCH  23  24
ENDBRANCH   1  23
TORSDOF 7
ENDMDL
MODEL 2
REMARK VINA RESULT:      -7.7      1.440      2.064
REMARK  7 active torsions:
REMARK  status: ('A' for Active; 'I' for Inactive)
REMARK    1  A    between atoms: N_1  and  C_10 
REMARK    2  A    between atoms: N_2  and  C_9 
REMARK    3  A    between atoms: C_7  and  C_14 
REMARK       I    between atoms: C_7  and  N_8 
REMARK    4  A    between atoms: N_8  and  C_13 
REMARK    5  A    between atoms: C_10  and  C_11 
REMARK       I    between atoms: C_11  and  N_16 
REMARK    6  A    between atoms: N_16  and  C_24 
REMARK    7  A    between atoms: C_21  and  O_27 
ROOT
HETATM    1  C   UNL     1     -41.275 -51.229  12.063  1.00  0.00     0.240 C 
HETATM    2  N   UNL     1     -40.716 -50.442  11.057  1.00  0.00    -0.326 N 
HETATM    3  O   UNL     1     -41.933 -50.777  13.000  1.00  0.00    -0.271 OA
HETATM    4  H   UNL     1     -40.000 -50.891  10.487  1.00  0.00     0.169 HD
ENDROOT
BRANCH   2   5
HETATM    5  C   UNL     1     -40.721 -49.027  11.079  1.00  0.00     0.034 A 
HETATM    6  C   UNL     1     -39.738 -48.365  11.819  1.00  0.00     0.030 A 
HETATM    7  C   UNL     1     -39.797 -46.973  12.017  1.00  0.00     0.019 A 
HETATM    8  C   UNL     1     -40.803 -46.208  11.409  1.00  0.00     0.032 A 
HETATM    9  C   UNL     1     -41.715 -46.864  10.569  1.00  0.00     0.019 A 
HETATM   10  C   UNL     1     -41.686 -48.264  10.419  1.00  0.00     0.030 A 
BRANCH   8  11
HETATM   11  C   UNL     1     -41.014 -44.745  11.722  1.00  0.00     0.256 C 
HETATM   12  N   UNL     1     -42.283 -44.385  12.137  1.00  0.00    -0.321 N 
HETATM   13  H   UNL     1     -42.853 -45.093  12.584  1.00  0.00     0.169 HD
HETATM   14  O   UNL     1     -40.073 -43.967  11.637  1.00  0.00    -0.267 OA
BRANCH  12  15
HETATM   15  C   UNL     1     -42.783 -43.065  12.278  1.00  0.00     0.068 C 
HETATM   16  C   UNL     1     -42.827 -42.516  13.571  1.00  0.00     0.095 C 
HETATM   17  C   UNL     1     -43.602 -41.388  13.847  1.00  0.00     0.039 C 
HETATM   18  C   UNL     1     -44.275 -40.746  12.810  1.00  0.00     0.003 C 
HETATM   19  C   UNL     1     -44.126 -41.208  11.499  1.00  0.00     0.002 C 
HETATM   20  C   UNL     1     -43.372 -42.361  11.227  1.00  0.00     0.032 C 
BRANCH  16  21
HETATM   21  O   UNL     1     -42.108 -43.074  14.604  1.00  0.00    -0.354 OA
HETATM   22  C   UNL     1     -40.874 -42.360  14.790  1.00  0.00     0.210 C 
ENDBRANCH  16  21
ENDBRANCH  12  15
ENDBRANCH   8  11
ENDBRANCH   2   5
BRANCH   1  23
HETATM   23  C   UNL     1     -41.024 -52.756  11.942  1.00  0.00     0.240 C 
BRANCH  23  24
HETATM   24  N   UNL     1     -41.159 -53.521  13.191  1.00  0.00    -0.255 N 
HETATM   25  C   UNL     1     -39.999 -53.865  13.859  1.00  0.00     0.334 C 
HETATM   26  N   UNL     1     -40.139 -54.492  15.085  1.00  0.00    -0.279 N 
HETATM   27  O   UNL     1     -38.891 -53.571  13.394  1.00  0.00    -0.246 OA
HETATM   28  C   UNL     1     -41.354 -54.965  15.526  1.00  0.00     0.146 C 
HETATM   29  C   UNL     1     -42.455 -54.804  14.798  1.00  0.00     0.200 C 
HETATM   30  C   UNL     1     -42.405 -54.051  13.522  1.00  0.00     0.292 C 
HETATM   31  F   UNL     1     -43.644 -55.304  15.181  1.00  0.00    -0.199 F 
HETATM   32  O   UNL     1     -43.408 -53.965  12.818  1.00  0.00    -0.264 OA
BRANCH  26  33
HETATM   33  C   UNL     1     -38.921 -54.596  15.872  1.00  0.00     0.232 C 
HETATM   34  O   UNL     1     -38.380 -55.922  15.914  1.00  0.00    -0.366 OA
HETATM   35  C   UNL     1     -37.523 -55.971  17.069  1.00  0.00     0.170 C 
HETATM   36  C   UNL     1     -37.965 -54.873  18.021  1.00  0.00     0.031 C 
HETATM   37  C   UNL     1     -39.161 -54.267  17.340  1.00  0.00     0.056 C 
ENDBRANCH  26  33
ENDBRANCH  23  24
ENDBRANCH   1  23
TORSDOF 7
ENDMDL
MODEL 3
REMARK VINA RESULT:      -7.3      5.832      9.552
REMARK  7 active torsions:
REMARK  status: ('A' for Active; 'I' for Inactive)
REMARK    1  A    between atoms: N_1  and  C_10 
REMARK    2  A    between atoms: N_2  and  C_9 
REMARK    3  A    between atoms: C_7  and  C_14 
REMARK       I    between atoms: C_7  and  N_8 
REMARK    4  A    between atoms: N_8  and  C_13 
REMARK    5  A    between atoms: C_10  and  C_11 
REMARK       I    between atoms: C_11  and  N_16 
REMARK    6  A    between atoms: N_16  and  C_24 
REMARK    7  A    between atoms: C_21  and  O_27 
ROOT
HETATM    1  C   UNL     1     -42.379 -51.904  12.848  1.00  0.00     0.240 C 
HETATM    2  N   UNL     1     -43.457 -51.032  12.993  1.00  0.00    -0.326 N 
HETATM    3  O   UNL     1     -42.228 -52.924  13.521  1.00  0.00    -0.271 OA
HETATM    4  H   UNL     1     -43.348 -50.113  12.566  1.00  0.00     0.169 HD
ENDROOT
BRANCH   2   5
HETATM    5  C   UNL     1     -44.420 -51.145  14.025  1.00  0.00     0.034 A 
HETATM    6  C   UNL     1     -45.711 -51.564  13.695  1.00  0.00     0.030 A 
HETATM    7  C   UNL     1     -46.748 -51.529  14.646  1.00  0.00     0.019 A 
HETATM    8  C   UNL     1     -46.489 -51.144  15.970  1.00  0.00     0.032 A 
HETATM    9  C   UNL     1     -45.166 -50.841  16.323  1.00  0.00     0.019 A 
HETATM   10  C   UNL     1     -44.143 -50.825  15.356  1.00  0.00     0.030 A 
BRANCH   8  11
HETATM   11  C   UNL     1     -47.588 -50.926  16.983  1.00  0.00     0.256 C 
HETATM   12  N   UNL     1     -47.292 -50.076  18.034  1.00  0.00    -0.321 N 
HETATM   13  H   UNL     1     -46.583 -49.368  17.884  1.00  0.00     0.169 HD
HETATM   14  O   UNL     1     -48.677 -51.459  16.818  1.00  0.00    -0.267 OA
BRANCH  12  15
HETATM   15  C   UNL     1     -48.063 -49.883  19.208  1.00  0.00     0.068 C 
HETATM   16  C   UNL     1     -48.547 -48.590  19.469  1.00  0.00     0.095 C 
HETATM   17  C   UNL     1     -49.009 -48.238  20.738  1.00  0.00     0.039 C 
HETATM   18  C   UNL     1     -49.070 -49.203  21.739  1.00  0.00     0.003 C 
HETATM   19  C   UNL     1     -48.718 -50.524  21.448  1.00  0.00     0.002 C 
HETATM   20  C   UNL     1     -48.224 -50.871  20.181  1.00  0.00     0.032 C 
BRANCH  16  21
HETATM   21  O   UNL     1     -48.580 -47.632  18.480  1.00  0.00    -0.354 OA
HETATM   22  C   UNL     1     -49.265 -46.458  18.951  1.00  0.00     0.210 C 
ENDBRANCH  16  21
ENDBRANCH  12  15
ENDBRANCH   8  11
ENDBRANCH   2   5
BRANCH   1  23
HETATM   23  C   UNL     1     -41.343 -51.517  11.759  1.00  0.00     0.240 C 
BRANCH  23  24
HETATM   24  N   UNL     1     -40.379 -50.474  12.143  1.00  0.00    -0.255 N 
HETATM   25  C   UNL     1     -40.635 -49.181  11.725  1.00  0.00     0.334 C 
HETATM   26  N   UNL     1     -39.782 -48.191  12.179  1.00  0.00    -0.279 N 
HETATM   27  O   UNL     1     -41.619 -48.929  11.019  1.00  0.00    -0.246 OA
HETATM   28  C   UNL     1     -38.602 -48.486  12.823  1.00  0.00     0.146 C 
HETATM   29  C   UNL     1     -38.252 -49.745  13.066  1.00  0.00     0.200 C 
HETATM   30  C   UNL     1     -39.162 -50.858  12.704  1.00  0.00     0.292 C 
HETATM   31  F   UNL     1     -37.079 -50.062  13.644  1.00  0.00    -0.199 F 
HETATM   32  O   UNL     1     -38.806 -52.022  12.866  1.00  0.00    -0.264 OA
BRANCH  26  33
HETATM   33  C   UNL     1     -40.230 -46.828  11.943  1.00  0.00     0.232 C 
HETATM   34  O   UNL     1     -39.767 -46.282  10.702  1.00  0.00    -0.366 OA
HETATM   35  C   UNL     1     -39.857 -44.851  10.833  1.00  0.00     0.170 C 
HETATM   36  C   UNL     1     -39.850 -44.521  12.316  1.00  0.00     0.031 C 
HETATM   37  C   UNL     1     -39.682 -45.859  12.981  1.00  0.00     0.056 C 
ENDBRANCH  26  33
ENDBRANCH  23  24
ENDBRANCH   1  23
TORSDOF 7
ENDMDL
MODEL 4
REMARK VINA RESULT:      -7.3      5.048     10.659
REMARK  7 active torsions:
REMARK  status: ('A' for Active; 'I' for Inactive)
REMARK    1  A    between atoms: N_1  and  C_10 
REMARK    2  A    between atoms: N_2  and  C_9 
REMARK    3  A    between atoms: C_7  and  C_14 
REMARK       I    between atoms: C_7  and  N_8 
REMARK    4  A    between atoms: N_8  and  C_13 
REMARK    5  A    between atoms: C_10  and  C_11 
REMARK       I    between atoms: C_11  and  N_16 
REMARK    6  A    between atoms: N_16  and  C_24 
REMARK    7  A    between atoms: C_21  and  O_27 
ROOT
HETATM    1  C   UNL     1     -42.464 -51.825  12.861  1.00  0.00     0.240 C 
HETATM    2  N   UNL     1     -43.553 -50.956  12.848  1.00  0.00    -0.326 N 
HETATM    3  O   UNL     1     -42.349 -52.768  13.644  1.00  0.00    -0.271 OA
HETATM    4  H   UNL     1     -43.422 -50.085  12.335  1.00  0.00     0.169 HD
ENDROOT
BRANCH   2   5
HETATM    5  C   UNL     1     -44.577 -50.973  13.825  1.00  0.00     0.034 A 
HETATM    6  C   UNL     1     -44.300 -50.463  15.096  1.00  0.00     0.030 A 
HETATM    7  C   UNL     1     -45.220 -50.612  16.151  1.00  0.00     0.019 A 
HETATM    8  C   UNL     1     -46.470 -51.208  15.929  1.00  0.00     0.032 A 
HETATM    9  C   UNL     1     -46.788 -51.607  14.623  1.00  0.00     0.019 A 
HETATM   10  C   UNL     1     -45.844 -51.507  13.583  1.00  0.00     0.030 A 
BRANCH   8  11
HETATM   11  C   UNL     1     -47.422 -51.545  17.053  1.00  0.00     0.256 C 
HETATM   12  N   UNL     1     -46.859 -52.118  18.180  1.00  0.00    -0.321 N 
HETATM   13  H   UNL     1     -45.884 -51.924  18.372  1.00  0.00     0.169 HD
HETATM   14  O   UNL     1     -48.609 -51.269  16.944  1.00  0.00    -0.267 OA
BRANCH  12  15
HETATM   15  C   UNL     1     -47.556 -52.714  19.261  1.00  0.00     0.068 C 
HETATM   16  C   UNL     1     -47.244 -54.046  19.587  1.00  0.00     0.095 C 
HETATM   17  C   UNL     1     -48.096 -54.808  20.388  1.00  0.00     0.039 C 
HETATM   18  C   UNL     1     -49.229 -54.218  20.942  1.00  0.00     0.003 C 
HETATM   19  C   UNL     1     -49.472 -52.858  20.733  1.00  0.00     0.002 C 
HETATM   20  C   UNL     1     -48.632 -52.099  19.902  1.00  0.00     0.032 C 
BRANCH  16  21
HETATM   21  O   UNL     1     -46.090 -54.638  19.125  1.00  0.00    -0.354 OA
HETATM   22  C   UNL     1     -45.211 -54.931  20.224  1.00  0.00     0.210 C 
ENDBRANCH  16  21
ENDBRANCH  12  15
ENDBRANCH   8  11
ENDBRANCH   2   5
BRANCH   1  23
HETATM   23  C   UNL     1     -41.363 -51.541  11.803  1.00  0.00     0.240 C 
BRANCH  23  24
HETATM   24  N   UNL     1     -40.393 -50.496  12.163  1.00  0.00    -0.255 N 
HETATM   25  C   UNL     1     -40.638 -49.212  11.711  1.00  0.00     0.334 C 
HETATM   26  N   UNL     1     -39.779 -48.216  12.141  1.00  0.00    -0.279 N 
HETATM   27  O   UNL     1     -41.619 -48.971  10.996  1.00  0.00    -0.246 OA
HETATM   28  C   UNL     1     -38.603 -48.503  12.796  1.00  0.00     0.146 C 
HETATM   29  C   UNL     1     -38.263 -49.758  13.072  1.00  0.00     0.200 C 
HETATM   30  C   UNL     1     -39.181 -50.874  12.737  1.00  0.00     0.292 C 
HETATM   31  F   UNL     1     -37.094 -50.068  13.662  1.00  0.00    -0.199 F 
HETATM   32  O   UNL     1     -38.833 -52.036  12.930  1.00  0.00    -0.264 OA
BRANCH  26  33
HETATM   33  C   UNL     1     -40.217 -46.857  11.869  1.00  0.00     0.232 C 
HETATM   34  O   UNL     1     -39.709 -46.330  10.637  1.00  0.00    -0.366 OA
HETATM   35  C   UNL     1     -39.802 -44.897  10.745  1.00  0.00     0.170 C 
HETATM   36  C   UNL     1     -39.848 -44.545  12.221  1.00  0.00     0.031 C 
HETATM   37  C   UNL     1     -39.706 -45.873  12.912  1.00  0.00     0.056 C 
ENDBRANCH  26  33
ENDBRANCH  23  24
ENDBRANCH   1  23
TORSDOF 7
ENDMDL
MODEL 5
REMARK VINA RESULT:      -7.2      7.708     12.231
REMARK  7 active torsions:
REMARK  status: ('A' for Active; 'I' for Inactive)
REMARK    1  A    between atoms: N_1  and  C_10 
REMARK    2  A    between atoms: N_2  and  C_9 
REMARK    3  A    between atoms: C_7  and  C_14 
REMARK       I    between atoms: C_7  and  N_8 
REMARK    4  A    between atoms: N_8  and  C_13 
REMARK    5  A    between atoms: C_10  and  C_11 
REMARK       I    between atoms: C_11  and  N_16 
REMARK    6  A    between atoms: N_16  and  C_24 
REMARK    7  A    between atoms: C_21  and  O_27 
ROOT
HETATM    1  C   UNL     1     -42.688 -54.448  14.918  1.00  0.00     0.240 C 
HETATM    2  N   UNL     1     -42.043 -55.467  15.617  1.00  0.00    -0.326 N 
HETATM    3  O   UNL     1     -42.167 -53.366  14.649  1.00  0.00    -0.271 OA
HETATM    4  H   UNL     1     -42.644 -56.201  15.990  1.00  0.00     0.169 HD
ENDROOT
BRANCH   2   5
HETATM    5  C   UNL     1     -40.770 -55.317  16.219  1.00  0.00     0.034 A 
HETATM    6  C   UNL     1     -39.636 -55.342  15.403  1.00  0.00     0.030 A 
HETATM    7  C   UNL     1     -38.344 -55.371  15.962  1.00  0.00     0.019 A 
HETATM    8  C   UNL     1     -38.166 -55.298  17.351  1.00  0.00     0.032 A 
HETATM    9  C   UNL     1     -39.305 -55.150  18.156  1.00  0.00     0.019 A 
HETATM   10  C   UNL     1     -40.597 -55.178  17.597  1.00  0.00     0.030 A 
BRANCH   8  11
HETATM   11  C   UNL     1     -36.821 -55.495  18.010  1.00  0.00     0.256 C 
HETATM   12  N   UNL     1     -36.358 -56.797  18.078  1.00  0.00    -0.321 N 
HETATM   13  H   UNL     1     -36.691 -57.454  17.383  1.00  0.00     0.169 HD
HETATM   14  O   UNL     1     -36.195 -54.522  18.409  1.00  0.00    -0.267 OA
BRANCH  12  15
HETATM   15  C   UNL     1     -35.247 -57.260  18.827  1.00  0.00     0.068 C 
HETATM   16  C   UNL     1     -34.054 -57.526  18.134  1.00  0.00     0.095 C 
HETATM   17  C   UNL     1     -33.041 -58.292  18.713  1.00  0.00     0.039 C 
HETATM   18  C   UNL     1     -33.178 -58.730  20.028  1.00  0.00     0.003 C 
HETATM   19  C   UNL     1     -34.302 -58.355  20.768  1.00  0.00     0.002 C 
HETATM   20  C   UNL     1     -35.335 -57.611  20.175  1.00  0.00     0.032 C 
BRANCH  16  21
HETATM   21  O   UNL     1     -33.849 -57.038  16.863  1.00  0.00    -0.354 OA
HETATM   22  C   UNL     1     -32.940 -55.925  16.901  1.00  0.00     0.210 C 
ENDBRANCH  16  21
ENDBRANCH  12  15
ENDBRANCH   8  11
ENDBRANCH   2   5
BRANCH   1  23
HETATM   23  C   UNL     1     -44.145 -54.752  14.477  1.00  0.00     0.240 C 
BRANCH  23  24
HETATM   24  N   UNL     1     -45.078 -53.617  14.547  1.00  0.00    -0.255 N 
HETATM   25  C   UNL     1     -45.699 -53.372  15.758  1.00  0.00     0.334 C 
HETATM   26  N   UNL     1     -46.492 -52.242  15.844  1.00  0.00    -0.279 N 
HETATM   27  O   UNL     1     -45.501 -54.112  16.730  1.00  0.00    -0.246 OA
HETATM   28  C   UNL     1     -46.843 -51.513  14.730  1.00  0.00     0.146 C 
HETATM   29  C   UNL     1     -46.400 -51.853  13.523  1.00  0.00     0.200 C 
HETATM   30  C   UNL     1     -45.462 -52.990  13.363  1.00  0.00     0.292 C 
HETATM   31  F   UNL     1     -46.773 -51.191  12.413  1.00  0.00    -0.199 F 
HETATM   32  O   UNL     1     -45.111 -53.345  12.241  1.00  0.00    -0.264 OA
BRANCH  26  33
HETATM   33  C   UNL     1     -46.907 -51.874  17.188  1.00  0.00     0.232 C 
HETATM   34  O   UNL     1     -48.302 -51.564  17.290  1.00  0.00    -0.366 OA
HETATM   35  C   UNL     1     -48.453 -50.776  18.484  1.00  0.00     0.170 C 
HETATM   36  C   UNL     1     -47.105 -50.154  18.802  1.00  0.00     0.031 C 
HETATM   37  C   UNL     1     -46.226 -50.598  17.666  1.00  0.00     0.056 C 
ENDBRANCH  26  33
ENDBRANCH  23  24
ENDBRANCH   1  23
TORSDOF 7
ENDMDL
MODEL 6
REMARK VINA RESULT:      -7.0      1.983      3.696
REMARK  7 active torsions:
REMARK  status: ('A' for Active; 'I' for Inactive)
REMARK    1  A    between atoms: N_1  and  C_10 
REMARK    2  A    between atoms: N_2  and  C_9 
REMARK    3  A    between atoms: C_7  and  C_14 
REMARK       I    between atoms: C_7  and  N_8 
REMARK    4  A    between atoms: N_8  and  C_13 
REMARK    5  A    between atoms: C_10  and  C_11 
REMARK       I    between atoms: C_11  and  N_16 
REMARK    6  A    between atoms: N_16  and  C_24 
REMARK    7  A    between atoms: C_21  and  O_27 
ROOT
HETATM    1  C   UNL     1     -40.902 -50.462  11.979  1.00  0.00     0.240 C 
HETATM    2  N   UNL     1     -42.019 -49.833  11.432  1.00  0.00    -0.326 N 
HETATM    3  O   UNL     1     -40.016 -49.870  12.597  1.00  0.00    -0.271 OA
HETATM    4  H   UNL     1     -42.543 -50.374  10.745  1.00  0.00     0.169 HD
ENDROOT
BRANCH   2   5
HETATM    5  C   UNL     1     -42.186 -48.427  11.401  1.00  0.00     0.034 A 
HETATM    6  C   UNL     1     -41.996 -47.756  10.191  1.00  0.00     0.030 A 
HETATM    7  C   UNL     1     -41.979 -46.350  10.139  1.00  0.00     0.019 A 
HETATM    8  C   UNL     1     -42.231 -45.591  11.291  1.00  0.00     0.032 A 
HETATM    9  C   UNL     1     -42.542 -46.272  12.477  1.00  0.00     0.019 A 
HETATM   10  C   UNL     1     -42.502 -47.679  12.536  1.00  0.00     0.030 A 
BRANCH   8  11
HETATM   11  C   UNL     1     -42.059 -44.090  11.330  1.00  0.00     0.256 C 
HETATM   12  N   UNL     1     -42.934 -43.395  12.146  1.00  0.00    -0.321 N 
HETATM   13  H   UNL     1     -43.337 -43.887  12.934  1.00  0.00     0.169 HD
HETATM   14  O   UNL     1     -41.156 -43.568  10.690  1.00  0.00    -0.267 OA
BRANCH  12  15
HETATM   15  C   UNL     1     -43.116 -41.989  12.186  1.00  0.00     0.068 C 
HETATM   16  C   UNL     1     -42.326 -41.252  13.084  1.00  0.00     0.095 C 
HETATM   17  C   UNL     1     -42.666 -39.944  13.434  1.00  0.00     0.039 C 
HETATM   18  C   UNL     1     -43.755 -39.330  12.821  1.00  0.00     0.003 C 
HETATM   19  C   UNL     1     -44.463 -40.010  11.827  1.00  0.00     0.002 C 
HETATM   20  C   UNL     1     -44.141 -41.337  11.499  1.00  0.00     0.032 C 
BRANCH  16  21
HETATM   21  O   UNL     1     -41.194 -41.798  13.646  1.00  0.00    -0.354 OA
HETATM   22  C   UNL     1     -40.023 -41.120  13.158  1.00  0.00     0.210 C 
ENDBRANCH  16  21
ENDBRANCH  12  15
ENDBRANCH   8  11
ENDBRANCH   2   5
BRANCH   1  23
HETATM   23  C   UNL     1     -40.824 -51.998  11.769  1.00  0.00     0.240 C 
BRANCH  23  24
HETATM   24  N   UNL     1     -41.267 -52.817  12.909  1.00  0.00    -0.255 N 
HETATM   25  C   UNL     1     -42.585 -52.695  13.310  1.00  0.00     0.334 C 
HETATM   26  N   UNL     1     -43.021 -53.544  14.312  1.00  0.00    -0.279 N 
HETATM   27  O   UNL     1     -43.343 -51.893  12.751  1.00  0.00    -0.246 OA
HETATM   28  C   UNL     1     -42.146 -54.315  15.044  1.00  0.00     0.146 C 
HETATM   29  C   UNL     1     -40.842 -54.298  14.788  1.00  0.00     0.200 C 
HETATM   30  C   UNL     1     -40.310 -53.494  13.661  1.00  0.00     0.292 C 
HETATM   31  F   UNL     1     -39.961 -55.001  15.523  1.00  0.00    -0.199 F 
HETATM   32  O   UNL     1     -39.098 -53.426  13.472  1.00  0.00    -0.264 OA
BRANCH  26  33
HETATM   33  C   UNL     1     -44.459 -53.573  14.520  1.00  0.00     0.232 C 
HETATM   34  O   UNL     1     -44.835 -53.644  15.901  1.00  0.00    -0.366 OA
HETATM   35  C   UNL     1     -46.183 -54.150  15.925  1.00  0.00     0.170 C 
HETATM   36  C   UNL     1     -46.423 -54.892  14.622  1.00  0.00     0.031 C 
HETATM   37  C   UNL     1     -45.097 -54.817  13.916  1.00  0.00     0.056 C 
ENDBRANCH  26  33
ENDBRANCH  23  24
ENDBRANCH   1  23
TORSDOF 7
ENDMDL
MODEL 7
REMARK VINA RESULT:      -6.9      2.347      3.798
REMARK  7 active torsions:
REMARK  status: ('A' for Active; 'I' for Inactive)
REMARK    1  A    between atoms: N_1  and  C_10 
REMARK    2  A    between atoms: N_2  and  C_9 
REMARK    3  A    between atoms: C_7  and  C_14 
REMARK       I    between atoms: C_7  and  N_8 
REMARK    4  A    between atoms: N_8  and  C_13 
REMARK    5  A    between atoms: C_10  and  C_11 
REMARK       I    between atoms: C_11  and  N_16 
REMARK    6  A    between atoms: N_16  and  C_24 
REMARK    7  A    between atoms: C_21  and  O_27 
ROOT
HETATM    1  C   UNL     1     -40.059 -48.715  11.796  1.00  0.00     0.240 C 
HETATM    2  N   UNL     1     -40.836 -47.982  10.900  1.00  0.00    -0.326 N 
HETATM    3  O   UNL     1     -39.627 -48.262  12.857  1.00  0.00    -0.271 OA
HETATM    4  H   UNL     1     -40.923 -48.373   9.962  1.00  0.00     0.169 HD
ENDROOT
BRANCH   2   5
HETATM    5  C   UNL     1     -41.094 -46.597  11.040  1.00  0.00     0.034 A 
HETATM    6  C   UNL     1     -40.111 -45.689  10.639  1.00  0.00     0.030 A 
HETATM    7  C   UNL     1     -40.242 -44.315  10.914  1.00  0.00     0.019 A 
HETATM    8  C   UNL     1     -41.400 -43.817  11.529  1.00  0.00     0.032 A 
HETATM    9  C   UNL     1     -42.433 -44.720  11.820  1.00  0.00     0.019 A 
HETATM   10  C   UNL     1     -42.275 -46.101  11.594  1.00  0.00     0.030 A 
BRANCH   8  11
HETATM   11  C   UNL     1     -41.521 -42.386  11.999  1.00  0.00     0.256 C 
HETATM   12  N   UNL     1     -40.486 -41.538  11.646  1.00  0.00    -0.321 N 
HETATM   13  H   UNL     1     -39.952 -41.763  10.816  1.00  0.00     0.169 HD
HETATM   14  O   UNL     1     -42.516 -42.035  12.618  1.00  0.00    -0.267 OA
BRANCH  12  15
HETATM   15  C   UNL     1     -40.262 -40.228  12.141  1.00  0.00     0.068 C 
HETATM   16  C   UNL     1     -40.776 -39.151  11.399  1.00  0.00     0.095 C 
HETATM   17  C   UNL     1     -40.323 -37.848  11.615  1.00  0.00     0.039 C 
HETATM   18  C   UNL     1     -39.411 -37.598  12.637  1.00  0.00     0.003 C 
HETATM   19  C   UNL     1     -38.999 -38.645  13.467  1.00  0.00     0.002 C 
HETATM   20  C   UNL     1     -39.430 -39.960  13.229  1.00  0.00     0.032 C 
BRANCH  16  21
HETATM   21  O   UNL     1     -41.741 -39.348  10.437  1.00  0.00    -0.354 OA
HETATM   22  C   UNL     1     -43.008 -38.849  10.898  1.00  0.00     0.210 C 
ENDBRANCH  16  21
ENDBRANCH  12  15
ENDBRANCH   8  11
ENDBRANCH   2   5
BRANCH   1  23
HETATM   23  C   UNL     1     -39.755 -50.180  11.382  1.00  0.00     0.240 C 
BRANCH  23  24
HETATM   24  N   UNL     1     -40.127 -51.207  12.368  1.00  0.00    -0.255 N 
HETATM   25  C   UNL     1     -41.467 -51.341  12.676  1.00  0.00     0.334 C 
HETATM   26  N   UNL     1     -41.820 -52.377  13.523  1.00  0.00    -0.279 N 
HETATM   27  O   UNL     1     -42.311 -50.592  12.168  1.00  0.00    -0.246 OA
HETATM   28  C   UNL     1     -40.877 -53.104  14.215  1.00  0.00     0.146 C 
HETATM   29  C   UNL     1     -39.580 -52.856  14.067  1.00  0.00     0.200 C 
HETATM   30  C   UNL     1     -39.119 -51.831  13.099  1.00  0.00     0.292 C 
HETATM   31  F   UNL     1     -38.642 -53.514  14.772  1.00  0.00    -0.199 F 
HETATM   32  O   UNL     1     -37.924 -51.557  13.016  1.00  0.00    -0.264 OA
BRANCH  26  33
HETATM   33  C   UNL     1     -43.245 -52.651  13.611  1.00  0.00     0.232 C 
HETATM   34  O   UNL     1     -43.661 -53.098  14.908  1.00  0.00    -0.366 OA
HETATM   35  C   UNL     1     -44.917 -53.774  14.716  1.00  0.00     0.170 C 
HETATM   36  C   UNL     1     -44.991 -54.211  13.264  1.00  0.00     0.031 C 
HETATM   37  C   UNL     1     -43.665 -53.791  12.693  1.00  0.00     0.056 C 
ENDBRANCH  26  33
ENDBRANCH  23  24
ENDBRANCH   1  23
TORSDOF 7
ENDMDL
MODEL 8
REMARK VINA RESULT:      -6.7      6.259     10.858
REMARK  7 active torsions:
REMARK  status: ('A' for Active; 'I' for Inactive)
REMARK    1  A    between atoms: N_1  and  C_10 
REMARK    2  A    between atoms: N_2  and  C_9 
REMARK    3  A    between atoms: C_7  and  C_14 
REMARK       I    between atoms: C_7  and  N_8 
REMARK    4  A    between atoms: N_8  and  C_13 
REMARK    5  A    between atoms: C_10  and  C_11 
REMARK       I    between atoms: C_11  and  N_16 
REMARK    6  A    between atoms: N_16  and  C_24 
REMARK    7  A    between atoms: C_21  and  O_27 
ROOT
HETATM    1  C   UNL     1     -43.182 -51.845  13.887  1.00  0.00     0.240 C 
HETATM    2  N   UNL     1     -44.469 -52.380  13.896  1.00  0.00    -0.326 N 
HETATM    3  O   UNL     1     -42.584 -51.481  14.901  1.00  0.00    -0.271 OA
HETATM    4  H   UNL     1     -44.944 -52.410  12.994  1.00  0.00     0.169 HD
ENDROOT
BRANCH   2   5
HETATM    5  C   UNL     1     -45.286 -52.431  15.051  1.00  0.00     0.034 A 
HETATM    6  C   UNL     1     -46.173 -51.379  15.291  1.00  0.00     0.030 A 
HETATM    7  C   UNL     1     -46.880 -51.293  16.506  1.00  0.00     0.019 A 
HETATM    8  C   UNL     1     -46.767 -52.305  17.470  1.00  0.00     0.032 A 
HETATM    9  C   UNL     1     -45.969 -53.419  17.168  1.00  0.00     0.019 A 
HETATM   10  C   UNL     1     -45.220 -53.473  15.977  1.00  0.00     0.030 A 
BRANCH   8  11
HETATM   11  C   UNL     1     -47.366 -52.183  18.851  1.00  0.00     0.256 C 
HETATM   12  N   UNL     1     -48.687 -51.774  18.911  1.00  0.00    -0.321 N 
HETATM   13  H   UNL     1     -49.277 -51.963  18.110  1.00  0.00     0.169 HD
HETATM   14  O   UNL     1     -46.695 -52.479  19.830  1.00  0.00    -0.267 OA
BRANCH  12  15
HETATM   15  C   UNL     1     -49.397 -51.380  20.073  1.00  0.00     0.068 C 
HETATM   16  C   UNL     1     -50.497 -52.162  20.465  1.00  0.00     0.095 C 
HETATM   17  C   UNL     1     -51.441 -51.672  21.370  1.00  0.00     0.039 C 
HETATM   18  C   UNL     1     -51.248 -50.425  21.957  1.00  0.00     0.003 C 
HETATM   19  C   UNL     1     -50.086 -49.701  21.675  1.00  0.00     0.002 C 
HETATM   20  C   UNL     1     -49.153 -50.179  20.741  1.00  0.00     0.032 C 
BRANCH  16  21
HETATM   21  O   UNL     1     -50.677 -53.434  19.969  1.00  0.00    -0.354 OA
HETATM   22  C   UNL     1     -51.992 -53.912  20.299  1.00  0.00     0.210 C 
ENDBRANCH  16  21
ENDBRANCH  12  15
ENDBRANCH   8  11
ENDBRANCH   2   5
BRANCH   1  23
HETATM   23  C   UNL     1     -42.510 -51.727  12.492  1.00  0.00     0.240 C 
BRANCH  23  24
HETATM   24  N   UNL     1     -41.301 -50.890  12.440  1.00  0.00    -0.255 N 
HETATM   25  C   UNL     1     -41.459 -49.558  12.106  1.00  0.00     0.334 C 
HETATM   26  N   UNL     1     -40.333 -48.756  12.161  1.00  0.00    -0.279 N 
HETATM   27  O   UNL     1     -42.575 -49.106  11.821  1.00  0.00    -0.246 OA
HETATM   28  C   UNL     1     -39.071 -49.283  12.315  1.00  0.00     0.146 C 
HETATM   29  C   UNL     1     -38.889 -50.593  12.451  1.00  0.00     0.200 C 
HETATM   30  C   UNL     1     -40.054 -51.508  12.506  1.00  0.00     0.292 C 
HETATM   31  F   UNL     1     -37.663 -51.138  12.548  1.00  0.00    -0.199 F 
HETATM   32  O   UNL     1     -39.880 -52.723  12.561  1.00  0.00    -0.264 OA
BRANCH  26  33
HETATM   33  C   UNL     1     -40.582 -47.327  12.065  1.00  0.00     0.232 C 
HETATM   34  O   UNL     1     -40.443 -46.811  10.736  1.00  0.00    -0.366 OA
HETATM   35  C   UNL     1     -40.230 -45.394  10.874  1.00  0.00     0.170 C 
HETATM   36  C   UNL     1     -39.700 -45.140  12.274  1.00  0.00     0.031 C 
HETATM   37  C   UNL     1     -39.572 -46.516  12.866  1.00  0.00     0.056 C 
ENDBRANCH  26  33
ENDBRANCH  23  24
ENDBRANCH   1  23
TORSDOF 7
ENDMDL
MODEL 9
REMARK VINA RESULT:      -6.6      7.703     10.446
REMARK  7 active torsions:
REMARK  status: ('A' for Active; 'I' for Inactive)
REMARK    1  A    between atoms: N_1  and  C_10 
REMARK    2  A    between atoms: N_2  and  C_9 
REMARK    3  A    between atoms: C_7  and  C_14 
REMARK       I    between atoms: C_7  and  N_8 
REMARK    4  A    between atoms: N_8  and  C_13 
REMARK    5  A    between atoms: C_10  and  C_11 
REMARK       I    between atoms: C_11  and  N_16 
REMARK    6  A    between atoms: N_16  and  C_24 
REMARK    7  A    between atoms: C_21  and  O_27 
ROOT
HETATM    1  C   UNL     1     -38.686 -57.789  18.840  1.00  0.00     0.240 C 
HETATM    2  N   UNL     1     -38.926 -56.515  18.329  1.00  0.00    -0.326 N 
HETATM    3  O   UNL     1     -39.321 -58.791  18.508  1.00  0.00    -0.271 OA
HETATM    4  H   UNL     1     -38.516 -55.741  18.851  1.00  0.00     0.169 HD
ENDROOT
BRANCH   2   5
HETATM    5  C   UNL     1     -40.018 -56.206  17.481  1.00  0.00     0.034 A 
HETATM    6  C   UNL     1     -39.776 -55.468  16.320  1.00  0.00     0.030 A 
HETATM    7  C   UNL     1     -40.842 -54.987  15.535  1.00  0.00     0.019 A 
HETATM    8  C   UNL     1     -42.168 -55.305  15.861  1.00  0.00     0.032 A 
HETATM    9  C   UNL     1     -42.395 -56.147  16.959  1.00  0.00     0.019 A 
HETATM   10  C   UNL     1     -41.331 -56.580  17.773  1.00  0.00     0.030 A 
BRANCH   8  11
HETATM   11  C   UNL     1     -43.350 -54.680  15.158  1.00  0.00     0.256 C 
HETATM   12  N   UNL     1     -43.341 -53.300  15.055  1.00  0.00    -0.321 N 
HETATM   13  H   UNL     1     -42.444 -52.831  15.067  1.00  0.00     0.169 HD
HETATM   14  O   UNL     1     -44.222 -55.397  14.686  1.00  0.00    -0.267 OA
BRANCH  12  15
HETATM   15  C   UNL     1     -44.419 -52.477  14.641  1.00  0.00     0.068 C 
HETATM   16  C   UNL     1     -45.382 -52.127  15.603  1.00  0.00     0.095 C 
HETATM   17  C   UNL     1     -46.627 -51.622  15.223  1.00  0.00     0.039 C 
HETATM   18  C   UNL     1     -46.889 -51.382  13.877  1.00  0.00     0.003 C 
HETATM   19  C   UNL     1     -45.887 -51.600  12.928  1.00  0.00     0.002 C 
HETATM   20  C   UNL     1     -44.646 -52.137  13.307  1.00  0.00     0.032 C 
BRANCH  16  21
HETATM   21  O   UNL     1     -45.127 -52.272  16.948  1.00  0.00    -0.354 OA
HETATM   22  C   UNL     1     -45.985 -53.281  17.509  1.00  0.00     0.210 C 
ENDBRANCH  16  21
ENDBRANCH  12  15
ENDBRANCH   8  11
ENDBRANCH   2   5
BRANCH   1  23
HETATM   23  C   UNL     1     -37.540 -57.892  19.882  1.00  0.00     0.240 C 
BRANCH  23  24
HETATM   24  N   UNL     1     -36.188 -58.050  19.323  1.00  0.00    -0.255 N 
HETATM   25  C   UNL     1     -35.518 -56.905  18.936  1.00  0.00     0.334 C 
HETATM   26  N   UNL     1     -34.210 -57.052  18.510  1.00  0.00    -0.279 N 
HETATM   27  O   UNL     1     -36.062 -55.796  19.021  1.00  0.00    -0.246 OA
HETATM   28  C   UNL     1     -33.662 -58.289  18.259  1.00  0.00     0.146 C 
HETATM   29  C   UNL     1     -34.365 -59.400  18.452  1.00  0.00     0.200 C 
HETATM   30  C   UNL     1     -35.739 -59.330  19.005  1.00  0.00     0.292 C 
HETATM   31  F   UNL     1     -33.871 -60.618  18.162  1.00  0.00    -0.199 F 
HETATM   32  O   UNL     1     -36.411 -60.352  19.115  1.00  0.00    -0.264 OA
BRANCH  26  33
HETATM   33  C   UNL     1     -33.460 -55.815  18.368  1.00  0.00     0.232 C 
HETATM   34  O   UNL     1     -33.226 -55.442  17.004  1.00  0.00    -0.366 OA
HETATM   35  C   UNL     1     -32.109 -54.535  17.021  1.00  0.00     0.170 C 
HETATM   36  C   UNL     1     -31.330 -54.782  18.301  1.00  0.00     0.031 C 
HETATM   37  C   UNL     1     -32.056 -55.929  18.948  1.00  0.00     0.056 C 
ENDBRANCH  26  33
ENDBRANCH  23  24
ENDBRANCH   1  23
TORSDOF 7
ENDMDL
