MODEL 1
REMARK VINA RESULT:      -5.9      0.000      0.000
REMARK  4 active torsions:
REMARK  status: ('A' for Active; 'I' for Inactive)
REMARK    1  A    between atoms: C_2  and  C_3 
REMARK       I    between atoms: C_2  and  N_11 
REMARK    2  A    between atoms: C_3  and  N_4 
REMARK    3  A    between atoms: N_11  and  C_12 
REMARK    4  A    between atoms: C_12  and  C_13 
ROOT
HETATM    1  O   UNL     1     -43.331 -55.964  15.494  1.00  0.00    -0.272 OA
HETATM    2  C   UNL     1     -43.686 -55.132  14.661  1.00  0.00     0.235 C 
HETATM    3  N   UNL     1     -42.829 -54.196  14.125  1.00  0.00    -0.359 N 
HETATM    4  H   UNL     1     -43.152 -53.629  13.348  1.00  0.00     0.162 HD
ENDROOT
BRANCH   2   5
HETATM    5  C   UNL     1     -45.114 -55.088  14.123  1.00  0.00     0.234 C 
BRANCH   5   6
HETATM    6  N   UNL     1     -45.726 -53.773  14.324  1.00  0.00    -0.316 N 
HETATM    7  C   UNL     1     -46.223 -53.451  15.578  1.00  0.00     0.095 A 
HETATM    8  C   UNL     1     -46.812 -52.270  15.808  1.00  0.00     0.017 A 
HETATM    9  C   UNL     1     -46.978 -51.328  14.732  1.00  0.00     0.007 A 
HETATM   10  C   UNL     1     -46.500 -51.602  13.511  1.00  0.00     0.074 A 
HETATM   11  C   UNL     1     -45.782 -52.882  13.256  1.00  0.00     0.247 A 
HETATM   12  O   UNL     1     -45.287 -53.086  12.151  1.00  0.00    -0.268 OA
ENDBRANCH   5   6
ENDBRANCH   2   5
BRANCH   3  13
HETATM   13  C   UNL     1     -41.467 -54.085  14.602  1.00  0.00     0.127 C 
BRANCH  13  14
HETATM   14  C   UNL     1     -40.416 -54.070  13.477  1.00  0.00     0.003 C 
HETATM   15  C   UNL     1     -39.032 -53.687  14.037  1.00  0.00     0.006 C 
HETATM   16  C   UNL     1     -38.907 -52.199  14.364  1.00  0.00     0.000 C 
HETATM   17  C   UNL     1     -39.257 -51.332  13.160  1.00  0.00     0.000 C 
HETATM   18  C   UNL     1     -40.641 -51.664  12.611  1.00  0.00     0.000 C 
HETATM   19  C   UNL     1     -40.784 -53.152  12.298  1.00  0.00     0.006 C 
ENDBRANCH  13  14
ENDBRANCH   3  13
TORSDOF 4
ENDMDL
MODEL 2
REMARK VINA RESULT:      -5.7      2.556      6.787
REMARK  4 active torsions:
REMARK  status: ('A' for Active; 'I' for Inactive)
REMARK    1  A    between atoms: C_2  and  C_3 
REMARK       I    between atoms: C_2  and  N_11 
REMARK    2  A    between atoms: C_3  and  N_4 
REMARK    3  A    between atoms: N_11  and  C_12 
REMARK    4  A    between atoms: C_12  and  C_13 
ROOT
HETATM    1  O   UNL     1     -42.094 -52.218  14.277  1.00  0.00    -0.272 OA
HETATM    2  C   UNL     1     -42.241 -51.780  13.137  1.00  0.00     0.235 C 
HETATM    3  N   UNL     1     -43.343 -51.046  12.754  1.00  0.00    -0.359 N 
HETATM    4  H   UNL     1     -43.338 -50.603  11.841  1.00  0.00     0.162 HD
ENDROOT
BRANCH   2   5
HETATM    5  C   UNL     1     -41.189 -51.986  12.051  1.00  0.00     0.234 C 
BRANCH   5   6
HETATM    6  N   UNL     1     -40.048 -51.084  12.225  1.00  0.00    -0.316 N 
HETATM    7  C   UNL     1     -40.117 -49.808  11.688  1.00  0.00     0.095 A 
HETATM    8  C   UNL     1     -39.092 -48.952  11.800  1.00  0.00     0.017 A 
HETATM    9  C   UNL     1     -37.876 -49.369  12.448  1.00  0.00     0.007 A 
HETATM   10  C   UNL     1     -37.780 -50.591  12.988  1.00  0.00     0.074 A 
HETATM   11  C   UNL     1     -38.935 -51.530  12.932  1.00  0.00     0.247 A 
HETATM   12  O   UNL     1     -38.856 -52.618  13.494  1.00  0.00    -0.268 OA
ENDBRANCH   5   6
ENDBRANCH   2   5
BRANCH   3  13
HETATM   13  C   UNL     1     -44.446 -50.839  13.668  1.00  0.00     0.127 C 
BRANCH  13  14
HETATM   14  C   UNL     1     -45.785 -51.404  13.162  1.00  0.00     0.003 C 
HETATM   15  C   UNL     1     -46.833 -51.401  14.292  1.00  0.00     0.006 C 
HETATM   16  C   UNL     1     -46.601 -52.499  15.330  1.00  0.00     0.000 C 
HETATM   17  C   UNL     1     -46.520 -53.875  14.678  1.00  0.00     0.000 C 
HETATM   18  C   UNL     1     -45.461 -53.915  13.581  1.00  0.00     0.000 C 
HETATM   19  C   UNL     1     -45.671 -52.811  12.548  1.00  0.00     0.006 C 
ENDBRANCH  13  14
ENDBRANCH   3  13
TORSDOF 4
ENDMDL
MODEL 3
REMARK VINA RESULT:      -5.6      1.948      2.933
REMARK  4 active torsions:
REMARK  status: ('A' for Active; 'I' for Inactive)
REMARK    1  A    between atoms: C_2  and  C_3 
REMARK       I    between atoms: C_2  and  N_11 
REMARK    2  A    between atoms: C_3  and  N_4 
REMARK    3  A    between atoms: N_11  and  C_12 
REMARK    4  A    between atoms: C_12  and  C_13 
ROOT
HETATM    1  O   UNL     1     -42.390 -53.352  13.828  1.00  0.00    -0.272 OA
HETATM    2  C   UNL     1     -42.878 -53.117  12.724  1.00  0.00     0.235 C 
HETATM    3  N   UNL     1     -42.193 -52.452  11.730  1.00  0.00    -0.359 N 
HETATM    4  H   UNL     1     -42.603 -52.410  10.802  1.00  0.00     0.162 HD
ENDROOT
BRANCH   2   5
HETATM    5  C   UNL     1     -44.284 -53.576  12.348  1.00  0.00     0.234 C 
BRANCH   5   6
HETATM    6  N   UNL     1     -45.275 -53.142  13.335  1.00  0.00    -0.316 N 
HETATM    7  C   UNL     1     -45.663 -51.811  13.353  1.00  0.00     0.095 A 
HETATM    8  C   UNL     1     -46.549 -51.359  14.251  1.00  0.00     0.017 A 
HETATM    9  C   UNL     1     -47.082 -52.251  15.247  1.00  0.00     0.007 A 
HETATM   10  C   UNL     1     -46.738 -53.546  15.251  1.00  0.00     0.074 A 
HETATM   11  C   UNL     1     -45.807 -54.078  14.218  1.00  0.00     0.247 A 
HETATM   12  O   UNL     1     -45.558 -55.281  14.191  1.00  0.00    -0.268 OA
ENDBRANCH   5   6
ENDBRANCH   2   5
BRANCH   3  13
HETATM   13  C   UNL     1     -40.878 -51.902  11.981  1.00  0.00     0.127 C 
BRANCH  13  14
HETATM   14  C   UNL     1     -40.887 -50.398  12.305  1.00  0.00     0.003 C 
HETATM   15  C   UNL     1     -39.978 -49.630  11.326  1.00  0.00     0.006 C 
HETATM   16  C   UNL     1     -38.488 -49.825  11.611  1.00  0.00     0.000 C 
HETATM   17  C   UNL     1     -38.144 -49.470  13.053  1.00  0.00     0.000 C 
HETATM   18  C   UNL     1     -39.005 -50.248  14.044  1.00  0.00     0.000 C 
HETATM   19  C   UNL     1     -40.495 -50.075  13.758  1.00  0.00     0.006 C 
ENDBRANCH  13  14
ENDBRANCH   3  13
TORSDOF 4
ENDMDL
MODEL 4
REMARK VINA RESULT:      -5.4      2.553      6.318
REMARK  4 active torsions:
REMARK  status: ('A' for Active; 'I' for Inactive)
REMARK    1  A    between atoms: C_2  and  C_3 
REMARK       I    between atoms: C_2  and  N_11 
REMARK    2  A    between atoms: C_3  and  N_4 
REMARK    3  A    between atoms: N_11  and  C_12 
REMARK    4  A    between atoms: C_12  and  C_13 
ROOT
HETATM    1  O   UNL     1     -41.661 -52.428  14.387  1.00  0.00    -0.272 OA
HETATM    2  C   UNL     1     -41.856 -52.865  13.254  1.00  0.00     0.235 C 
HETATM    3  N   UNL     1     -42.975 -53.596  12.916  1.00  0.00    -0.359 N 
HETATM    4  H   UNL     1     -43.139 -53.810  11.937  1.00  0.00     0.162 HD
ENDROOT
BRANCH   2   5
HETATM    5  C   UNL     1     -40.882 -52.604  12.108  1.00  0.00     0.234 C 
BRANCH   5   6
HETATM    6  N   UNL     1     -40.352 -51.239  12.151  1.00  0.00    -0.316 N 
HETATM    7  C   UNL     1     -41.165 -50.193  11.743  1.00  0.00     0.095 A 
HETATM    8  C   UNL     1     -40.721 -48.929  11.741  1.00  0.00     0.017 A 
HETATM    9  C   UNL     1     -39.363 -48.645  12.126  1.00  0.00     0.007 A 
HETATM   10  C   UNL     1     -38.554 -49.630  12.537  1.00  0.00     0.074 A 
HETATM   11  C   UNL     1     -39.054 -51.031  12.609  1.00  0.00     0.247 A 
HETATM   12  O   UNL     1     -38.324 -51.911  13.056  1.00  0.00    -0.268 OA
ENDBRANCH   5   6
ENDBRANCH   2   5
BRANCH   3  13
HETATM   13  C   UNL     1     -43.942 -53.974  13.925  1.00  0.00     0.127 C 
BRANCH  13  14
HETATM   14  C   UNL     1     -45.401 -53.912  13.439  1.00  0.00     0.003 C 
HETATM   15  C   UNL     1     -45.636 -52.644  12.595  1.00  0.00     0.006 C 
HETATM   16  C   UNL     1     -45.715 -51.370  13.436  1.00  0.00     0.000 C 
HETATM   17  C   UNL     1     -46.769 -51.488  14.531  1.00  0.00     0.000 C 
HETATM   18  C   UNL     1     -46.536 -52.716  15.405  1.00  0.00     0.000 C 
HETATM   19  C   UNL     1     -46.436 -53.993  14.575  1.00  0.00     0.006 C 
ENDBRANCH  13  14
ENDBRANCH   3  13
TORSDOF 4
ENDMDL
MODEL 5
REMARK VINA RESULT:      -5.4      2.735      3.881
REMARK  4 active torsions:
REMARK  status: ('A' for Active; 'I' for Inactive)
REMARK    1  A    between atoms: C_2  and  C_3 
REMARK       I    between atoms: C_2  and  N_11 
REMARK    2  A    between atoms: C_3  and  N_4 
REMARK    3  A    between atoms: N_11  and  C_12 
REMARK    4  A    between atoms: C_12  and  C_13 
ROOT
HETATM    1  O   UNL     1     -42.106 -52.470  14.000  1.00  0.00    -0.272 OA
HETATM    2  C   UNL     1     -42.622 -52.434  12.884  1.00  0.00     0.235 C 
HETATM    3  N   UNL     1     -42.152 -51.629  11.868  1.00  0.00    -0.359 N 
HETATM    4  H   UNL     1     -42.539 -51.747  10.937  1.00  0.00     0.162 HD
ENDROOT
BRANCH   2   5
HETATM    5  C   UNL     1     -43.817 -53.310  12.518  1.00  0.00     0.234 C 
BRANCH   5   6
HETATM    6  N   UNL     1     -44.972 -53.032  13.375  1.00  0.00    -0.316 N 
HETATM    7  C   UNL     1     -45.528 -51.762  13.358  1.00  0.00     0.095 A 
HETATM    8  C   UNL     1     -46.571 -51.451  14.139  1.00  0.00     0.017 A 
HETATM    9  C   UNL     1     -47.104 -52.430  15.050  1.00  0.00     0.007 A 
HETATM   10  C   UNL     1     -46.598 -53.670  15.085  1.00  0.00     0.074 A 
HETATM   11  C   UNL     1     -45.483 -54.052  14.173  1.00  0.00     0.247 A 
HETATM   12  O   UNL     1     -45.079 -55.211  14.167  1.00  0.00    -0.268 OA
ENDBRANCH   5   6
ENDBRANCH   2   5
BRANCH   3  13
HETATM   13  C   UNL     1     -41.069 -50.699  12.104  1.00  0.00     0.127 C 
BRANCH  13  14
HETATM   14  C   UNL     1     -41.524 -49.360  12.714  1.00  0.00     0.003 C 
HETATM   15  C   UNL     1     -42.573 -48.685  11.810  1.00  0.00     0.006 C 
HETATM   16  C   UNL     1     -41.969 -48.066  10.548  1.00  0.00     0.000 C 
HETATM   17  C   UNL     1     -40.846 -47.092  10.887  1.00  0.00     0.000 C 
HETATM   18  C   UNL     1     -39.774 -47.749  11.750  1.00  0.00     0.000 C 
HETATM   19  C   UNL     1     -40.367 -48.387  13.004  1.00  0.00     0.006 C 
ENDBRANCH  13  14
ENDBRANCH   3  13
TORSDOF 4
ENDMDL
MODEL 6
REMARK VINA RESULT:      -5.4      2.055      5.919
REMARK  4 active torsions:
REMARK  status: ('A' for Active; 'I' for Inactive)
REMARK    1  A    between atoms: C_2  and  C_3 
REMARK       I    between atoms: C_2  and  N_11 
REMARK    2  A    between atoms: C_3  and  N_4 
REMARK    3  A    between atoms: N_11  and  C_12 
REMARK    4  A    between atoms: C_12  and  C_13 
ROOT
HETATM    1  O   UNL     1     -42.564 -53.958  14.155  1.00  0.00    -0.272 OA
HETATM    2  C   UNL     1     -42.315 -53.458  13.060  1.00  0.00     0.235 C 
HETATM    3  N   UNL     1     -43.281 -52.873  12.268  1.00  0.00    -0.359 N 
HETATM    4  H   UNL     1     -42.987 -52.363  11.441  1.00  0.00     0.162 HD
ENDROOT
BRANCH   2   5
HETATM    5  C   UNL     1     -40.898 -53.414  12.495  1.00  0.00     0.234 C 
BRANCH   5   6
HETATM    6  N   UNL     1     -40.123 -52.311  13.067  1.00  0.00    -0.316 N 
HETATM    7  C   UNL     1     -39.285 -52.569  14.141  1.00  0.00     0.095 A 
HETATM    8  C   UNL     1     -38.572 -51.592  14.716  1.00  0.00     0.017 A 
HETATM    9  C   UNL     1     -38.703 -50.237  14.247  1.00  0.00     0.007 A 
HETATM   10  C   UNL     1     -39.494 -49.953  13.204  1.00  0.00     0.074 A 
HETATM   11  C   UNL     1     -40.241 -51.040  12.511  1.00  0.00     0.247 A 
HETATM   12  O   UNL     1     -40.905 -50.775  11.513  1.00  0.00    -0.268 OA
ENDBRANCH   5   6
ENDBRANCH   2   5
BRANCH   3  13
HETATM   13  C   UNL     1     -44.675 -52.911  12.655  1.00  0.00     0.127 C 
BRANCH  13  14
HETATM   14  C   UNL     1     -45.292 -51.520  12.883  1.00  0.00     0.003 C 
HETATM   15  C   UNL     1     -44.400 -50.680  13.817  1.00  0.00     0.006 C 
HETATM   16  C   UNL     1     -44.488 -51.114  15.281  1.00  0.00     0.000 C 
HETATM   17  C   UNL     1     -45.930 -51.116  15.776  1.00  0.00     0.000 C 
HETATM   18  C   UNL     1     -46.827 -51.973  14.889  1.00  0.00     0.000 C 
HETATM   19  C   UNL     1     -46.733 -51.562  13.422  1.00  0.00     0.006 C 
ENDBRANCH  13  14
ENDBRANCH   3  13
TORSDOF 4
ENDMDL
MODEL 7
REMARK VINA RESULT:      -5.3      4.232      7.283
REMARK  4 active torsions:
REMARK  status: ('A' for Active; 'I' for Inactive)
REMARK    1  A    between atoms: C_2  and  C_3 
REMARK       I    between atoms: C_2  and  N_11 
REMARK    2  A    between atoms: C_3  and  N_4 
REMARK    3  A    between atoms: N_11  and  C_12 
REMARK    4  A    between atoms: C_12  and  C_13 
ROOT
HETATM    1  O   UNL     1     -42.221 -49.160  13.933  1.00  0.00    -0.272 OA
HETATM    2  C   UNL     1     -42.406 -49.779  12.886  1.00  0.00     0.235 C 
HETATM    3  N   UNL     1     -43.487 -50.610  12.689  1.00  0.00    -0.359 N 
HETATM    4  H   UNL     1     -43.650 -50.983  11.759  1.00  0.00     0.162 HD
ENDROOT
BRANCH   2   5
HETATM    5  C   UNL     1     -41.459 -49.652  11.695  1.00  0.00     0.234 C 
BRANCH   5   6
HETATM    6  N   UNL     1     -41.313 -48.258  11.268  1.00  0.00    -0.316 N 
HETATM    7  C   UNL     1     -42.363 -47.650  10.599  1.00  0.00     0.095 A 
HETATM    8  C   UNL     1     -42.272 -46.385  10.167  1.00  0.00     0.017 A 
HETATM    9  C   UNL     1     -41.049 -45.649  10.357  1.00  0.00     0.007 A 
HETATM   10  C   UNL     1     -40.019 -46.202  11.010  1.00  0.00     0.074 A 
HETATM   11  C   UNL     1     -40.130 -47.583  11.556  1.00  0.00     0.247 A 
HETATM   12  O   UNL     1     -39.204 -48.049  12.213  1.00  0.00    -0.268 OA
ENDBRANCH   5   6
ENDBRANCH   2   5
BRANCH   3  13
HETATM   13  C   UNL     1     -44.421 -50.873  13.762  1.00  0.00     0.127 C 
BRANCH  13  14
HETATM   14  C   UNL     1     -45.793 -51.379  13.281  1.00  0.00     0.003 C 
HETATM   15  C   UNL     1     -46.799 -51.402  14.447  1.00  0.00     0.006 C 
HETATM   16  C   UNL     1     -46.560 -52.553  15.424  1.00  0.00     0.000 C 
HETATM   17  C   UNL     1     -46.540 -53.899  14.708  1.00  0.00     0.000 C 
HETATM   18  C   UNL     1     -45.522 -53.915  13.572  1.00  0.00     0.000 C 
HETATM   19  C   UNL     1     -45.739 -52.758  12.599  1.00  0.00     0.006 C 
ENDBRANCH  13  14
ENDBRANCH   3  13
TORSDOF 4
ENDMDL
MODEL 8
REMARK VINA RESULT:      -5.1      3.261      6.641
REMARK  4 active torsions:
REMARK  status: ('A' for Active; 'I' for Inactive)
REMARK    1  A    between atoms: C_2  and  C_3 
REMARK       I    between atoms: C_2  and  N_11 
REMARK    2  A    between atoms: C_3  and  N_4 
REMARK    3  A    between atoms: N_11  and  C_12 
REMARK    4  A    between atoms: C_12  and  C_13 
ROOT
HETATM    1  O   UNL     1     -42.963 -49.298  13.010  1.00  0.00    -0.272 OA
HETATM    2  C   UNL     1     -42.191 -49.949  12.308  1.00  0.00     0.235 C 
HETATM    3  N   UNL     1     -42.305 -51.312  12.134  1.00  0.00    -0.359 N 
HETATM    4  H   UNL     1     -41.720 -51.763  11.439  1.00  0.00     0.162 HD
ENDROOT
BRANCH   2   5
HETATM    5  C   UNL     1     -41.048 -49.290  11.540  1.00  0.00     0.234 C 
BRANCH   5   6
HETATM    6  N   UNL     1     -39.893 -49.034  12.404  1.00  0.00    -0.316 N 
HETATM    7  C   UNL     1     -39.751 -47.780  12.976  1.00  0.00     0.095 A 
HETATM    8  C   UNL     1     -38.702 -47.488  13.755  1.00  0.00     0.017 A 
HETATM    9  C   UNL     1     -37.673 -48.471  13.974  1.00  0.00     0.007 A 
HETATM   10  C   UNL     1     -37.784 -49.697  13.445  1.00  0.00     0.074 A 
HETATM   11  C   UNL     1     -38.979 -50.059  12.633  1.00  0.00     0.247 A 
HETATM   12  O   UNL     1     -39.101 -51.207  12.216  1.00  0.00    -0.268 OA
ENDBRANCH   5   6
ENDBRANCH   2   5
BRANCH   3  13
HETATM   13  C   UNL     1     -43.302 -52.067  12.862  1.00  0.00     0.127 C 
BRANCH  13  14
HETATM   14  C   UNL     1     -43.223 -53.586  12.625  1.00  0.00     0.003 C 
HETATM   15  C   UNL     1     -44.451 -54.291  13.232  1.00  0.00     0.006 C 
HETATM   16  C   UNL     1     -44.397 -54.385  14.757  1.00  0.00     0.000 C 
HETATM   17  C   UNL     1     -43.109 -55.049  15.230  1.00  0.00     0.000 C 
HETATM   18  C   UNL     1     -41.876 -54.345  14.674  1.00  0.00     0.000 C 
HETATM   19  C   UNL     1     -41.928 -54.228  13.152  1.00  0.00     0.006 C 
ENDBRANCH  13  14
ENDBRANCH   3  13
TORSDOF 4
ENDMDL
MODEL 9
REMARK VINA RESULT:      -5.0      4.065      6.375
REMARK  4 active torsions:
REMARK  status: ('A' for Active; 'I' for Inactive)
REMARK    1  A    between atoms: C_2  and  C_3 
REMARK       I    between atoms: C_2  and  N_11 
REMARK    2  A    between atoms: C_3  and  N_4 
REMARK    3  A    between atoms: N_11  and  C_12 
REMARK    4  A    between atoms: C_12  and  C_13 
ROOT
HETATM    1  O   UNL     1     -41.287 -50.364  13.645  1.00  0.00    -0.272 OA
HETATM    2  C   UNL     1     -41.381 -50.690  12.463  1.00  0.00     0.235 C 
HETATM    3  N   UNL     1     -42.325 -51.584  12.005  1.00  0.00    -0.359 N 
HETATM    4  H   UNL     1     -42.433 -51.706  11.003  1.00  0.00     0.162 HD
ENDROOT
BRANCH   2   5
HETATM    5  C   UNL     1     -40.470 -50.101  11.388  1.00  0.00     0.234 C 
BRANCH   5   6
HETATM    6  N   UNL     1     -40.699 -48.665  11.214  1.00  0.00    -0.316 N 
HETATM    7  C   UNL     1     -41.804 -48.247  10.489  1.00  0.00     0.095 A 
HETATM    8  C   UNL     1     -42.046 -46.946  10.281  1.00  0.00     0.017 A 
HETATM    9  C   UNL     1     -41.125 -45.957  10.777  1.00  0.00     0.007 A 
HETATM   10  C   UNL     1     -40.054 -46.325  11.492  1.00  0.00     0.074 A 
HETATM   11  C   UNL     1     -39.808 -47.763  11.789  1.00  0.00     0.247 A 
HETATM   12  O   UNL     1     -38.862 -48.078  12.506  1.00  0.00    -0.268 OA
ENDBRANCH   5   6
ENDBRANCH   2   5
BRANCH   3  13
HETATM   13  C   UNL     1     -43.203 -52.267  12.930  1.00  0.00     0.127 C 
BRANCH  13  14
HETATM   14  C   UNL     1     -43.002 -53.793  12.963  1.00  0.00     0.003 C 
HETATM   15  C   UNL     1     -43.854 -54.425  14.081  1.00  0.00     0.006 C 
HETATM   16  C   UNL     1     -43.288 -54.179  15.480  1.00  0.00     0.000 C 
HETATM   17  C   UNL     1     -41.839 -54.641  15.584  1.00  0.00     0.000 C 
HETATM   18  C   UNL     1     -40.965 -53.998  14.511  1.00  0.00     0.000 C 
HETATM   19  C   UNL     1     -41.531 -54.221  13.111  1.00  0.00     0.006 C 
ENDBRANCH  13  14
ENDBRANCH   3  13
TORSDOF 4
ENDMDL
