MODEL 1
REMARK VINA RESULT:      -6.8      0.000      0.000
REMARK  5 active torsions:
REMARK  status: ('A' for Active; 'I' for Inactive)
REMARK       I    between atoms: C_2  and  N_3 
REMARK       I    between atoms: C_2  and  N_12 
REMARK    1  A    between atoms: N_3  and  C_4 
REMARK    2  A    between atoms: C_4  and  C_5 
REMARK    3  A    between atoms: C_5  and  C_6 
REMARK    4  A    between atoms: N_12  and  C_13 
REMARK    5  A    between atoms: C_16  and  N_20 
ROOT
HETATM    1  O   UNL     1     -41.947 -51.048  13.335  1.00  0.00    -0.247 OA
HETATM    2  C   UNL     1     -41.675 -51.431  12.204  1.00  0.00     0.320 C 
HETATM    3  N   UNL     1     -42.054 -52.674  11.734  1.00  0.00    -0.343 N 
HETATM    4  N   UNL     1     -40.969 -50.729  11.251  1.00  0.00    -0.308 N 
HETATM    5  H   UNL     1     -42.272 -52.694  10.749  1.00  0.00     0.164 HD
HETATM    6  H   UNL     1     -40.547 -51.286  10.523  1.00  0.00     0.170 HD
ENDROOT
BRANCH   4   7
HETATM    7  C   UNL     1     -40.575 -49.376  11.347  1.00  0.00     0.051 A 
HETATM    8  C   UNL     1     -39.598 -48.925  12.218  1.00  0.00     0.035 A 
HETATM    9  C   UNL     1     -39.275 -47.567  12.255  1.00  0.00     0.051 A 
HETATM   10  C   UNL     1     -39.940 -46.654  11.437  1.00  0.00     0.103 A 
HETATM   11  N   UNL     1     -40.919 -47.075  10.608  1.00  0.00    -0.350 N 
HETATM   12  C   UNL     1     -41.203 -48.406  10.572  1.00  0.00     0.119 A 
ATOM     13  HN  UNL     1     -41.432 -46.414  10.024  1.00  0.00     0.166 HD
BRANCH  10  14
HETATM   14  N   UNL     1     -39.634 -45.314  11.508  1.00  0.00    -0.363 N 
HETATM   15  C   UNL     1     -39.129 -44.728  12.752  1.00  0.00     0.150 C 
HETATM   16  C   UNL     1     -40.062 -43.629  13.274  1.00  0.00     0.187 C 
HETATM   17  O   UNL     1     -40.369 -42.660  12.257  1.00  0.00    -0.388 OA
HETATM   18  C   UNL     1     -41.028 -43.305  11.158  1.00  0.00     0.187 C 
HETATM   19  C   UNL     1     -40.132 -44.368  10.504  1.00  0.00     0.150 C 
ENDBRANCH  10  14
ENDBRANCH   4   7
BRANCH   3  20
HETATM   20  C   UNL     1     -42.879 -53.511  12.596  1.00  0.00     0.128 C 
BRANCH  20  21
HETATM   21  C   UNL     1     -44.362 -53.432  12.229  1.00  0.00     0.053 C 
BRANCH  21  22
HETATM   22  C   UNL     1     -45.269 -53.083  13.393  1.00  0.00    -0.082 A 
HETATM   23  C   UNL     1     -45.433 -53.929  14.419  1.00  0.00    -0.024 A 
HETATM   24  C   UNL     1     -46.263 -53.660  15.628  1.00  0.00     0.027 A 
HETATM   25  C   UNL     1     -46.937 -52.297  15.721  1.00  0.00     0.004 A 
HETATM   26  C   UNL     1     -46.756 -51.312  14.570  1.00  0.00     0.005 A 
HETATM   27  C   UNL     1     -45.931 -51.737  13.354  1.00  0.00     0.034 A 
ENDBRANCH  21  22
ENDBRANCH  20  21
ENDBRANCH   3  20
TORSDOF 5
ENDMDL
MODEL 2
REMARK VINA RESULT:      -6.7      1.545      1.888
REMARK  5 active torsions:
REMARK  status: ('A' for Active; 'I' for Inactive)
REMARK       I    between atoms: C_2  and  N_3 
REMARK       I    between atoms: C_2  and  N_12 
REMARK    1  A    between atoms: N_3  and  C_4 
REMARK    2  A    between atoms: C_4  and  C_5 
REMARK    3  A    between atoms: C_5  and  C_6 
REMARK    4  A    between atoms: N_12  and  C_13 
REMARK    5  A    between atoms: C_16  and  N_20 
ROOT
HETATM    1  O   UNL     1     -41.972 -49.695  13.289  1.00  0.00    -0.247 OA
HETATM    2  C   UNL     1     -41.940 -50.056  12.120  1.00  0.00     0.320 C 
HETATM    3  N   UNL     1     -42.111 -51.377  11.751  1.00  0.00    -0.343 N 
HETATM    4  N   UNL     1     -41.729 -49.253  11.020  1.00  0.00    -0.308 N 
HETATM    5  H   UNL     1     -42.585 -51.500  10.868  1.00  0.00     0.164 HD
HETATM    6  H   UNL     1     -41.402 -49.726  10.191  1.00  0.00     0.170 HD
ENDROOT
BRANCH   4   7
HETATM    7  C   UNL     1     -41.675 -47.841  11.029  1.00  0.00     0.051 A 
HETATM    8  C   UNL     1     -40.498 -47.121  11.144  1.00  0.00     0.035 A 
HETATM    9  C   UNL     1     -40.536 -45.726  11.153  1.00  0.00     0.051 A 
HETATM   10  C   UNL     1     -41.750 -45.046  11.066  1.00  0.00     0.103 A 
HETATM   11  N   UNL     1     -42.909 -45.734  10.988  1.00  0.00    -0.350 N 
HETATM   12  C   UNL     1     -42.847 -47.095  10.960  1.00  0.00     0.119 A 
ATOM     13  HN  UNL     1     -43.806 -45.250  10.951  1.00  0.00     0.166 HD
BRANCH  10  14
HETATM   14  N   UNL     1     -41.775 -43.670  11.109  1.00  0.00    -0.363 N 
HETATM   15  C   UNL     1     -40.585 -42.914  11.507  1.00  0.00     0.150 C 
HETATM   16  C   UNL     1     -40.851 -42.068  12.759  1.00  0.00     0.187 C 
HETATM   17  O   UNL     1     -42.033 -41.261  12.617  1.00  0.00    -0.388 OA
HETATM   18  C   UNL     1     -43.174 -42.107  12.414  1.00  0.00     0.187 C 
HETATM   19  C   UNL     1     -43.043 -42.934  11.125  1.00  0.00     0.150 C 
ENDBRANCH  10  14
ENDBRANCH   4   7
BRANCH   3  20
HETATM   20  C   UNL     1     -42.425 -52.346  12.794  1.00  0.00     0.128 C 
BRANCH  20  21
HETATM   21  C   UNL     1     -43.604 -53.243  12.412  1.00  0.00     0.053 C 
BRANCH  21  22
HETATM   22  C   UNL     1     -44.838 -53.039  13.270  1.00  0.00    -0.082 A 
HETATM   23  C   UNL     1     -45.399 -54.061  13.929  1.00  0.00    -0.024 A 
HETATM   24  C   UNL     1     -46.581 -53.954  14.831  1.00  0.00     0.027 A 
HETATM   25  C   UNL     1     -47.166 -52.564  15.052  1.00  0.00     0.004 A 
HETATM   26  C   UNL     1     -46.537 -51.383  14.321  1.00  0.00     0.005 A 
HETATM   27  C   UNL     1     -45.366 -51.637  13.371  1.00  0.00     0.034 A 
ENDBRANCH  21  22
ENDBRANCH  20  21
ENDBRANCH   3  20
TORSDOF 5
ENDMDL
MODEL 3
REMARK VINA RESULT:      -6.3      2.335      3.476
REMARK  5 active torsions:
REMARK  status: ('A' for Active; 'I' for Inactive)
REMARK       I    between atoms: C_2  and  N_3 
REMARK       I    between atoms: C_2  and  N_12 
REMARK    1  A    between atoms: N_3  and  C_4 
REMARK    2  A    between atoms: C_4  and  C_5 
REMARK    3  A    between atoms: C_5  and  C_6 
REMARK    4  A    between atoms: N_12  and  C_13 
REMARK    5  A    between atoms: C_16  and  N_20 
ROOT
HETATM    1  O   UNL     1     -40.229 -48.899  12.792  1.00  0.00    -0.247 OA
HETATM    2  C   UNL     1     -40.634 -49.223  11.683  1.00  0.00     0.320 C 
HETATM    3  N   UNL     1     -40.755 -50.545  11.298  1.00  0.00    -0.343 N 
HETATM    4  N   UNL     1     -41.014 -48.370  10.669  1.00  0.00    -0.308 N 
HETATM    5  H   UNL     1     -41.529 -50.724  10.676  1.00  0.00     0.164 HD
HETATM    6  H   UNL     1     -40.997 -48.763   9.740  1.00  0.00     0.170 HD
ENDROOT
BRANCH   4   7
HETATM    7  C   UNL     1     -41.162 -46.969  10.783  1.00  0.00     0.051 A 
HETATM    8  C   UNL     1     -40.098 -46.084  10.749  1.00  0.00     0.035 A 
HETATM    9  C   UNL     1     -40.332 -44.714  10.877  1.00  0.00     0.051 A 
HETATM   10  C   UNL     1     -41.626 -44.226  11.058  1.00  0.00     0.103 A 
HETATM   11  N   UNL     1     -42.669 -45.080  11.128  1.00  0.00    -0.350 N 
HETATM   12  C   UNL     1     -42.421 -46.411  10.980  1.00  0.00     0.119 A 
ATOM     13  HN  UNL     1     -43.617 -44.739  11.288  1.00  0.00     0.166 HD
BRANCH  10  14
HETATM   14  N   UNL     1     -41.838 -42.875  11.216  1.00  0.00    -0.363 N 
HETATM   15  C   UNL     1     -40.798 -42.017  11.788  1.00  0.00     0.150 C 
HETATM   16  C   UNL     1     -41.277 -41.336  13.076  1.00  0.00     0.187 C 
HETATM   17  O   UNL     1     -42.541 -40.675  12.893  1.00  0.00    -0.388 OA
HETATM   18  C   UNL     1     -43.537 -41.634  12.511  1.00  0.00     0.187 C 
HETATM   19  C   UNL     1     -43.191 -42.309  11.175  1.00  0.00     0.150 C 
ENDBRANCH  10  14
ENDBRANCH   4   7
BRANCH   3  20
HETATM   20  C   UNL     1     -40.467 -51.577  12.287  1.00  0.00     0.128 C 
BRANCH  20  21
HETATM   21  C   UNL     1     -41.135 -52.909  11.942  1.00  0.00     0.053 C 
BRANCH  21  22
HETATM   22  C   UNL     1     -41.727 -53.631  13.137  1.00  0.00    -0.082 A 
HETATM   23  C   UNL     1     -43.036 -53.908  13.198  1.00  0.00    -0.024 A 
HETATM   24  C   UNL     1     -43.704 -54.651  14.305  1.00  0.00     0.027 A 
HETATM   25  C   UNL     1     -42.818 -55.175  15.428  1.00  0.00     0.004 A 
HETATM   26  C   UNL     1     -41.322 -54.881  15.374  1.00  0.00     0.005 A 
HETATM   27  C   UNL     1     -40.770 -54.050  14.215  1.00  0.00     0.034 A 
ENDBRANCH  21  22
ENDBRANCH  20  21
ENDBRANCH   3  20
TORSDOF 5
ENDMDL
MODEL 4
REMARK VINA RESULT:      -6.2      1.817      3.085
REMARK  5 active torsions:
REMARK  status: ('A' for Active; 'I' for Inactive)
REMARK       I    between atoms: C_2  and  N_3 
REMARK       I    between atoms: C_2  and  N_12 
REMARK    1  A    between atoms: N_3  and  C_4 
REMARK    2  A    between atoms: C_4  and  C_5 
REMARK    3  A    between atoms: C_5  and  C_6 
REMARK    4  A    between atoms: N_12  and  C_13 
REMARK    5  A    between atoms: C_16  and  N_20 
ROOT
HETATM    1  O   UNL     1     -42.649 -50.550  13.248  1.00  0.00    -0.247 OA
HETATM    2  C   UNL     1     -42.139 -51.062  12.261  1.00  0.00     0.320 C 
HETATM    3  N   UNL     1     -42.474 -52.332  11.831  1.00  0.00    -0.343 N 
HETATM    4  N   UNL     1     -41.180 -50.496  11.448  1.00  0.00    -0.308 N 
HETATM    5  H   UNL     1     -42.450 -52.447  10.828  1.00  0.00     0.164 HD
HETATM    6  H   UNL     1     -40.633 -51.144  10.902  1.00  0.00     0.170 HD
ENDROOT
BRANCH   4   7
HETATM    7  C   UNL     1     -40.732 -49.157  11.511  1.00  0.00     0.051 A 
HETATM    8  C   UNL     1     -39.854 -48.689  12.474  1.00  0.00     0.035 A 
HETATM    9  C   UNL     1     -39.470 -47.347  12.468  1.00  0.00     0.051 A 
HETATM   10  C   UNL     1     -39.975 -46.465  11.514  1.00  0.00     0.103 A 
HETATM   11  N   UNL     1     -40.859 -46.899  10.591  1.00  0.00    -0.350 N 
HETATM   12  C   UNL     1     -41.205 -48.216  10.601  1.00  0.00     0.119 A 
ATOM     13  HN  UNL     1     -41.258 -46.258   9.904  1.00  0.00     0.166 HD
BRANCH  10  14
HETATM   14  N   UNL     1     -39.612 -45.137  11.541  1.00  0.00    -0.363 N 
HETATM   15  C   UNL     1     -39.047 -44.542  12.755  1.00  0.00     0.150 C 
HETATM   16  C   UNL     1     -39.920 -43.392  13.274  1.00  0.00     0.187 C 
HETATM   17  O   UNL     1     -40.216 -42.437  12.241  1.00  0.00    -0.388 OA
HETATM   18  C   UNL     1     -40.933 -43.081  11.178  1.00  0.00     0.187 C 
HETATM   19  C   UNL     1     -40.100 -44.197  10.527  1.00  0.00     0.150 C 
ENDBRANCH  10  14
ENDBRANCH   4   7
BRANCH   3  20
HETATM   20  C   UNL     1     -43.536 -53.037  12.538  1.00  0.00     0.128 C 
BRANCH  20  21
HETATM   21  C   UNL     1     -43.014 -54.268  13.283  1.00  0.00     0.053 C 
BRANCH  21  22
HETATM   22  C   UNL     1     -41.705 -54.038  14.013  1.00  0.00    -0.082 A 
HETATM   23  C   UNL     1     -40.537 -54.409  13.473  1.00  0.00    -0.024 A 
HETATM   24  C   UNL     1     -39.198 -54.187  14.088  1.00  0.00     0.027 A 
HETATM   25  C   UNL     1     -39.156 -53.435  15.414  1.00  0.00     0.004 A 
HETATM   26  C   UNL     1     -40.473 -52.992  16.043  1.00  0.00     0.005 A 
HETATM   27  C   UNL     1     -41.786 -53.340  15.340  1.00  0.00     0.034 A 
ENDBRANCH  21  22
ENDBRANCH  20  21
ENDBRANCH   3  20
TORSDOF 5
ENDMDL
MODEL 5
REMARK VINA RESULT:      -6.0      4.170      4.758
REMARK  5 active torsions:
REMARK  status: ('A' for Active; 'I' for Inactive)
REMARK       I    between atoms: C_2  and  N_3 
REMARK       I    between atoms: C_2  and  N_12 
REMARK    1  A    between atoms: N_3  and  C_4 
REMARK    2  A    between atoms: C_4  and  C_5 
REMARK    3  A    between atoms: C_5  and  C_6 
REMARK    4  A    between atoms: N_12  and  C_13 
REMARK    5  A    between atoms: C_16  and  N_20 
ROOT
HETATM    1  O   UNL     1     -42.391 -51.890  13.861  1.00  0.00    -0.247 OA
HETATM    2  C   UNL     1     -41.800 -52.878  13.446  1.00  0.00     0.320 C 
HETATM    3  N   UNL     1     -42.439 -53.879  12.738  1.00  0.00    -0.343 N 
HETATM    4  N   UNL     1     -40.460 -53.159  13.610  1.00  0.00    -0.308 N 
HETATM    5  H   UNL     1     -41.866 -54.312  12.029  1.00  0.00     0.164 HD
HETATM    6  H   UNL     1     -40.203 -54.131  13.515  1.00  0.00     0.170 HD
ENDROOT
BRANCH   4   7
HETATM    7  C   UNL     1     -39.492 -52.279  14.145  1.00  0.00     0.051 A 
HETATM    8  C   UNL     1     -39.207 -52.187  15.496  1.00  0.00     0.035 A 
HETATM    9  C   UNL     1     -38.241 -51.282  15.941  1.00  0.00     0.051 A 
HETATM   10  C   UNL     1     -37.571 -50.455  15.040  1.00  0.00     0.103 A 
HETATM   11  N   UNL     1     -37.865 -50.509  13.723  1.00  0.00    -0.350 N 
HETATM   12  C   UNL     1     -38.795 -51.413  13.308  1.00  0.00     0.119 A 
ATOM     13  HN  UNL     1     -37.403 -49.890  13.057  1.00  0.00     0.166 HD
BRANCH  10  14
HETATM   14  N   UNL     1     -36.645 -49.545  15.496  1.00  0.00    -0.363 N 
HETATM   15  C   UNL     1     -35.533 -49.974  16.347  1.00  0.00     0.150 C 
HETATM   16  C   UNL     1     -35.569 -49.277  17.713  1.00  0.00     0.187 C 
HETATM   17  O   UNL     1     -35.684 -47.849  17.582  1.00  0.00    -0.388 OA
HETATM   18  C   UNL     1     -36.901 -47.524  16.894  1.00  0.00     0.187 C 
HETATM   19  C   UNL     1     -36.921 -48.104  15.472  1.00  0.00     0.150 C 
ENDBRANCH  10  14
ENDBRANCH   4   7
BRANCH   3  20
HETATM   20  C   UNL     1     -43.847 -53.694  12.409  1.00  0.00     0.128 C 
BRANCH  20  21
HETATM   21  C   UNL     1     -44.768 -54.428  13.385  1.00  0.00     0.053 C 
BRANCH  21  22
HETATM   22  C   UNL     1     -45.559 -53.510  14.297  1.00  0.00    -0.082 A 
HETATM   23  C   UNL     1     -45.636 -53.743  15.614  1.00  0.00    -0.024 A 
HETATM   24  C   UNL     1     -46.347 -52.878  16.598  1.00  0.00     0.027 A 
HETATM   25  C   UNL     1     -46.995 -51.605  16.066  1.00  0.00     0.004 A 
HETATM   26  C   UNL     1     -46.910 -51.312  14.571  1.00  0.00     0.005 A 
HETATM   27  C   UNL     1     -46.206 -52.316  13.657  1.00  0.00     0.034 A 
ENDBRANCH  21  22
ENDBRANCH  20  21
ENDBRANCH   3  20
TORSDOF 5
ENDMDL
MODEL 6
REMARK VINA RESULT:      -5.7      2.561      3.506
REMARK  5 active torsions:
REMARK  status: ('A' for Active; 'I' for Inactive)
REMARK       I    between atoms: C_2  and  N_3 
REMARK       I    between atoms: C_2  and  N_12 
REMARK    1  A    between atoms: N_3  and  C_4 
REMARK    2  A    between atoms: C_4  and  C_5 
REMARK    3  A    between atoms: C_5  and  C_6 
REMARK    4  A    between atoms: N_12  and  C_13 
REMARK    5  A    between atoms: C_16  and  N_20 
ROOT
HETATM    1  O   UNL     1     -40.425 -51.192  13.250  1.00  0.00    -0.247 OA
HETATM    2  C   UNL     1     -40.963 -51.384  12.167  1.00  0.00     0.320 C 
HETATM    3  N   UNL     1     -41.221 -52.654  11.685  1.00  0.00    -0.343 N 
HETATM    4  N   UNL     1     -41.379 -50.417  11.277  1.00  0.00    -0.308 N 
HETATM    5  H   UNL     1     -42.066 -52.723  11.136  1.00  0.00     0.164 HD
HETATM    6  H   UNL     1     -41.486 -50.721  10.321  1.00  0.00     0.170 HD
ENDROOT
BRANCH   4   7
HETATM    7  C   UNL     1     -41.409 -49.026  11.525  1.00  0.00     0.051 A 
HETATM    8  C   UNL     1     -40.290 -48.214  11.461  1.00  0.00     0.035 A 
HETATM    9  C   UNL     1     -40.407 -46.850  11.730  1.00  0.00     0.051 A 
HETATM   10  C   UNL     1     -41.638 -46.295  12.082  1.00  0.00     0.103 A 
HETATM   11  N   UNL     1     -42.731 -47.082  12.183  1.00  0.00    -0.350 N 
HETATM   12  C   UNL     1     -42.598 -48.406  11.896  1.00  0.00     0.119 A 
ATOM     13  HN  UNL     1     -43.631 -46.694  12.467  1.00  0.00     0.166 HD
BRANCH  10  14
HETATM   14  N   UNL     1     -41.731 -44.954  12.377  1.00  0.00    -0.363 N 
HETATM   15  C   UNL     1     -41.976 -43.972  11.318  1.00  0.00     0.150 C 
HETATM   16  C   UNL     1     -40.830 -42.957  11.217  1.00  0.00     0.187 C 
HETATM   17  O   UNL     1     -40.521 -42.372  12.494  1.00  0.00    -0.388 OA
HETATM   18  C   UNL     1     -40.115 -43.398  13.411  1.00  0.00     0.187 C 
HETATM   19  C   UNL     1     -41.236 -44.421  13.650  1.00  0.00     0.150 C 
ENDBRANCH  10  14
ENDBRANCH   4   7
BRANCH   3  20
HETATM   20  C   UNL     1     -40.913 -53.789  12.545  1.00  0.00     0.128 C 
BRANCH  20  21
HETATM   21  C   UNL     1     -42.068 -54.126  13.491  1.00  0.00     0.053 C 
BRANCH  21  22
HETATM   22  C   UNL     1     -41.629 -54.731  14.810  1.00  0.00    -0.082 A 
HETATM   23  C   UNL     1     -42.510 -55.327  15.625  1.00  0.00    -0.024 A 
HETATM   24  C   UNL     1     -42.171 -55.989  16.917  1.00  0.00     0.027 A 
HETATM   25  C   UNL     1     -40.701 -56.031  17.314  1.00  0.00     0.004 A 
HETATM   26  C   UNL     1     -39.677 -55.370  16.397  1.00  0.00     0.005 A 
HETATM   27  C   UNL     1     -40.164 -54.665  15.129  1.00  0.00     0.034 A 
ENDBRANCH  21  22
ENDBRANCH  20  21
ENDBRANCH   3  20
TORSDOF 5
ENDMDL
MODEL 7
REMARK VINA RESULT:      -5.7     13.322     14.472
REMARK  5 active torsions:
REMARK  status: ('A' for Active; 'I' for Inactive)
REMARK       I    between atoms: C_2  and  N_3 
REMARK       I    between atoms: C_2  and  N_12 
REMARK    1  A    between atoms: N_3  and  C_4 
REMARK    2  A    between atoms: C_4  and  C_5 
REMARK    3  A    between atoms: C_5  and  C_6 
REMARK    4  A    between atoms: N_12  and  C_13 
REMARK    5  A    between atoms: C_16  and  N_20 
ROOT
HETATM    1  O   UNL     1     -50.965 -48.315   2.271  1.00  0.00    -0.247 OA
HETATM    2  C   UNL     1     -50.687 -47.820   1.187  1.00  0.00     0.320 C 
HETATM    3  N   UNL     1     -50.757 -48.537   0.007  1.00  0.00    -0.343 N 
HETATM    4  N   UNL     1     -50.265 -46.527   0.961  1.00  0.00    -0.308 N 
HETATM    5  H   UNL     1     -51.035 -47.988  -0.793  1.00  0.00     0.164 HD
HETATM    6  H   UNL     1     -49.766 -46.375   0.098  1.00  0.00     0.170 HD
ENDROOT
BRANCH   4   7
HETATM    7  C   UNL     1     -50.238 -45.490   1.921  1.00  0.00     0.051 A 
HETATM    8  C   UNL     1     -49.098 -45.123   2.617  1.00  0.00     0.035 A 
HETATM    9  C   UNL     1     -49.162 -44.092   3.556  1.00  0.00     0.051 A 
HETATM   10  C   UNL     1     -50.365 -43.436   3.815  1.00  0.00     0.103 A 
HETATM   11  N   UNL     1     -51.491 -43.807   3.169  1.00  0.00    -0.350 N 
HETATM   12  C   UNL     1     -51.403 -44.801   2.243  1.00  0.00     0.119 A 
ATOM     13  HN  UNL     1     -52.383 -43.355   3.369  1.00  0.00     0.166 HD
BRANCH  10  14
HETATM   14  N   UNL     1     -50.419 -42.444   4.767  1.00  0.00    -0.363 N 
HETATM   15  C   UNL     1     -49.412 -42.372   5.829  1.00  0.00     0.150 C 
HETATM   16  C   UNL     1     -50.051 -42.504   7.217  1.00  0.00     0.187 C 
HETATM   17  O   UNL     1     -51.147 -41.589   7.391  1.00  0.00    -0.388 OA
HETATM   18  C   UNL     1     -52.164 -41.862   6.417  1.00  0.00     0.187 C 
HETATM   19  C   UNL     1     -51.643 -41.666   4.984  1.00  0.00     0.150 C 
ENDBRANCH  10  14
ENDBRANCH   4   7
BRANCH   3  20
HETATM   20  C   UNL     1     -51.264 -49.903   0.064  1.00  0.00     0.128 C 
BRANCH  20  21
HETATM   21  C   UNL     1     -50.136 -50.935   0.121  1.00  0.00     0.053 C 
BRANCH  21  22
HETATM   22  C   UNL     1     -50.439 -52.222  -0.622  1.00  0.00    -0.082 A 
HETATM   23  C   UNL     1     -51.699 -52.641  -0.792  1.00  0.00    -0.024 A 
HETATM   24  C   UNL     1     -52.102 -53.863  -1.544  1.00  0.00     0.027 A 
HETATM   25  C   UNL     1     -50.993 -54.669  -2.210  1.00  0.00     0.004 A 
HETATM   26  C   UNL     1     -49.551 -54.204  -2.041  1.00  0.00     0.005 A 
HETATM   27  C   UNL     1     -49.265 -52.968  -1.187  1.00  0.00     0.034 A 
ENDBRANCH  21  22
ENDBRANCH  20  21
ENDBRANCH   3  20
TORSDOF 5
ENDMDL
MODEL 8
REMARK VINA RESULT:      -5.6     18.809     19.808
REMARK  5 active torsions:
REMARK  status: ('A' for Active; 'I' for Inactive)
REMARK       I    between atoms: C_2  and  N_3 
REMARK       I    between atoms: C_2  and  N_12 
REMARK    1  A    between atoms: N_3  and  C_4 
REMARK    2  A    between atoms: C_4  and  C_5 
REMARK    3  A    between atoms: C_5  and  C_6 
REMARK    4  A    between atoms: N_12  and  C_13 
REMARK    5  A    between atoms: C_16  and  N_20 
ROOT
HETATM    1  O   UNL     1     -30.633 -46.457  -1.421  1.00  0.00    -0.247 OA
HETATM    2  C   UNL     1     -30.518 -46.105  -2.587  1.00  0.00     0.320 C 
HETATM    3  N   UNL     1     -31.383 -46.533  -3.577  1.00  0.00    -0.343 N 
HETATM    4  N   UNL     1     -29.548 -45.269  -3.098  1.00  0.00    -0.308 N 
HETATM    5  H   UNL     1     -31.556 -45.847  -4.297  1.00  0.00     0.164 HD
HETATM    6  H   UNL     1     -29.386 -45.344  -4.091  1.00  0.00     0.170 HD
ENDROOT
BRANCH   4   7
HETATM    7  C   UNL     1     -28.610 -44.534  -2.338  1.00  0.00     0.051 A 
HETATM    8  C   UNL     1     -27.495 -45.102  -1.744  1.00  0.00     0.035 A 
HETATM    9  C   UNL     1     -26.623 -44.304  -1.003  1.00  0.00     0.051 A 
HETATM   10  C   UNL     1     -26.870 -42.942  -0.836  1.00  0.00     0.103 A 
HETATM   11  N   UNL     1     -27.972 -42.381  -1.379  1.00  0.00    -0.350 N 
HETATM   12  C   UNL     1     -28.798 -43.174  -2.117  1.00  0.00     0.119 A 
ATOM     13  HN  UNL     1     -28.179 -41.392  -1.242  1.00  0.00     0.166 HD
BRANCH  10  14
HETATM   14  N   UNL     1     -26.018 -42.174  -0.074  1.00  0.00    -0.363 N 
HETATM   15  C   UNL     1     -25.695 -42.559   1.302  1.00  0.00     0.150 C 
HETATM   16  C   UNL     1     -26.125 -41.479   2.303  1.00  0.00     0.187 C 
HETATM   17  O   UNL     1     -25.634 -40.179   1.931  1.00  0.00    -0.388 OA
HETATM   18  C   UNL     1     -26.157 -39.815   0.645  1.00  0.00     0.187 C 
HETATM   19  C   UNL     1     -25.702 -40.792  -0.449  1.00  0.00     0.150 C 
ENDBRANCH  10  14
ENDBRANCH   4   7
BRANCH   3  20
HETATM   20  C   UNL     1     -32.516 -47.362  -3.186  1.00  0.00     0.128 C 
BRANCH  20  21
HETATM   21  C   UNL     1     -33.421 -47.699  -4.372  1.00  0.00     0.053 C 
BRANCH  21  22
HETATM   22  C   UNL     1     -34.726 -46.925  -4.392  1.00  0.00    -0.082 A 
HETATM   23  C   UNL     1     -34.813 -45.703  -3.852  1.00  0.00    -0.024 A 
HETATM   24  C   UNL     1     -36.032 -44.846  -3.861  1.00  0.00     0.027 A 
HETATM   25  C   UNL     1     -37.260 -45.389  -4.583  1.00  0.00     0.004 A 
HETATM   26  C   UNL     1     -37.182 -46.774  -5.215  1.00  0.00     0.005 A 
HETATM   27  C   UNL     1     -35.889 -47.580  -5.078  1.00  0.00     0.034 A 
ENDBRANCH  21  22
ENDBRANCH  20  21
ENDBRANCH   3  20
TORSDOF 5
ENDMDL
MODEL 9
REMARK VINA RESULT:      -5.6      3.666      8.380
REMARK  5 active torsions:
REMARK  status: ('A' for Active; 'I' for Inactive)
REMARK       I    between atoms: C_2  and  N_3 
REMARK       I    between atoms: C_2  and  N_12 
REMARK    1  A    between atoms: N_3  and  C_4 
REMARK    2  A    between atoms: C_4  and  C_5 
REMARK    3  A    between atoms: C_5  and  C_6 
REMARK    4  A    between atoms: N_12  and  C_13 
REMARK    5  A    between atoms: C_16  and  N_20 
ROOT
HETATM    1  O   UNL     1     -42.070 -49.648  12.439  1.00  0.00    -0.247 OA
HETATM    2  C   UNL     1     -41.321 -49.947  11.517  1.00  0.00     0.320 C 
HETATM    3  N   UNL     1     -41.176 -49.151  10.396  1.00  0.00    -0.343 N 
HETATM    4  N   UNL     1     -40.536 -51.077  11.434  1.00  0.00    -0.308 N 
HETATM    5  H   UNL     1     -40.246 -49.160  10.002  1.00  0.00     0.164 HD
HETATM    6  H   UNL     1     -40.249 -51.341  10.503  1.00  0.00     0.170 HD
ENDROOT
BRANCH   4   7
HETATM    7  C   UNL     1     -40.327 -52.014  12.471  1.00  0.00     0.051 A 
HETATM    8  C   UNL     1     -39.447 -51.809  13.520  1.00  0.00     0.035 A 
HETATM    9  C   UNL     1     -39.295 -52.793  14.499  1.00  0.00     0.051 A 
HETATM   10  C   UNL     1     -40.006 -53.990  14.424  1.00  0.00     0.103 A 
HETATM   11  N   UNL     1     -40.842 -54.217  13.387  1.00  0.00    -0.350 N 
HETATM   12  C   UNL     1     -40.991 -53.236  12.455  1.00  0.00     0.119 A 
ATOM     13  HN  UNL     1     -41.347 -55.100  13.305  1.00  0.00     0.166 HD
BRANCH  10  14
HETATM   14  N   UNL     1     -39.821 -54.964  15.379  1.00  0.00    -0.363 N 
HETATM   15  C   UNL     1     -40.903 -55.322  16.299  1.00  0.00     0.150 C 
HETATM   16  C   UNL     1     -40.503 -55.072  17.759  1.00  0.00     0.187 C 
HETATM   17  O   UNL     1     -39.240 -55.680  18.079  1.00  0.00    -0.388 OA
HETATM   18  C   UNL     1     -38.212 -55.127  17.246  1.00  0.00     0.187 C 
HETATM   19  C   UNL     1     -38.476 -55.408  15.758  1.00  0.00     0.150 C 
ENDBRANCH  10  14
ENDBRANCH   4   7
BRANCH   3  20
HETATM   20  C   UNL     1     -41.880 -47.876  10.365  1.00  0.00     0.128 C 
BRANCH  20  21
HETATM   21  C   UNL     1     -40.982 -46.710  10.784  1.00  0.00     0.053 C 
BRANCH  21  22
HETATM   22  C   UNL     1     -41.287 -46.161  12.164  1.00  0.00    -0.082 A 
HETATM   23  C   UNL     1     -40.336 -45.570  12.899  1.00  0.00    -0.024 A 
HETATM   24  C   UNL     1     -40.546 -44.960  14.243  1.00  0.00     0.027 A 
HETATM   25  C   UNL     1     -41.964 -44.970  14.799  1.00  0.00     0.004 A 
HETATM   26  C   UNL     1     -43.067 -45.628  13.975  1.00  0.00     0.005 A 
HETATM   27  C   UNL     1     -42.707 -46.277  12.638  1.00  0.00     0.034 A 
ENDBRANCH  21  22
ENDBRANCH  20  21
ENDBRANCH   3  20
TORSDOF 5
ENDMDL
