MODEL 1
REMARK VINA RESULT:      -6.6      0.000      0.000
REMARK  4 active torsions:
REMARK  status: ('A' for Active; 'I' for Inactive)
REMARK    1  A    between atoms: C_2  and  C_5 
REMARK    2  A    between atoms: C_10  and  N_11 
REMARK       I    between atoms: N_11  and  C_12 
REMARK       I    between atoms: C_12  and  N_14 
REMARK    3  A    between atoms: N_14  and  C_15 
REMARK    4  A    between atoms: C_18  and  O_19 
ROOT
HETATM    1  N   UNL     1     -41.319 -49.142  13.037  1.00  0.00    -0.288 N 
HETATM    2  C   UNL     1     -41.917 -50.130  13.766  1.00  0.00     0.322 C 
HETATM    3  O   UNL     1     -41.415 -50.477  14.835  1.00  0.00    -0.247 OA
HETATM    4  N   UNL     1     -43.070 -50.677  13.268  1.00  0.00    -0.338 N 
HETATM    5  H   UNL     1     -40.513 -48.707  13.449  1.00  0.00     0.172 HD
HETATM    6  H   UNL     1     -43.316 -50.430  12.313  1.00  0.00     0.164 HD
ENDROOT
BRANCH   1   7
HETATM    7  C   UNL     1     -41.730 -48.748  11.794  1.00  0.00     0.169 A 
HETATM    8  N   UNL     1     -41.194 -49.067  10.643  1.00  0.00    -0.279 N 
HETATM    9  N   UNL     1     -41.895 -48.543   9.591  1.00  0.00    -0.295 N 
ATOM     10  HN  UNL     1     -40.355 -49.638  10.542  1.00  0.00     0.189 HD
HETATM   11  C   UNL     1     -42.955 -47.856   9.977  1.00  0.00     0.077 A 
ATOM     12  HN  UNL     1     -41.628 -48.669   8.615  1.00  0.00     0.187 HD
HETATM   13  S   UNL     1     -43.100 -47.744  11.696  1.00  0.00    -0.037 SA
BRANCH  11  14
HETATM   14  C   UNL     1     -43.923 -47.260   8.969  1.00  0.00    -0.001 C 
HETATM   15  C   UNL     1     -43.562 -47.818   7.576  1.00  0.00     0.021 C 
HETATM   16  C   UNL     1     -43.733 -45.730   8.957  1.00  0.00     0.021 C 
HETATM   17  C   UNL     1     -45.401 -47.572   9.242  1.00  0.00     0.021 C 
ENDBRANCH  11  14
ENDBRANCH   1   7
BRANCH   4  18
HETATM   18  C   UNL     1     -43.709 -51.844  13.855  1.00  0.00     0.086 C 
HETATM   19  C   UNL     1     -44.225 -52.787  12.756  1.00  0.00     0.028 C 
HETATM   20  C   UNL     1     -45.661 -52.521  12.316  1.00  0.00     0.034 C 
HETATM   21  C   UNL     1     -46.614 -52.486  13.502  1.00  0.00     0.118 C 
HETATM   22  C   UNL     1     -46.211 -51.379  14.469  1.00  0.00     0.034 C 
HETATM   23  C   UNL     1     -44.750 -51.459  14.926  1.00  0.00     0.028 C 
BRANCH  21  24
HETATM   24  O   UNL     1     -46.645 -53.750  14.160  1.00  0.00    -0.396 OA
HETATM   25  H   UNL     1     -46.217 -53.673  15.028  1.00  0.00     0.210 HD
ENDBRANCH  21  24
ENDBRANCH   4  18
TORSDOF 4
ENDMDL
MODEL 2
REMARK VINA RESULT:      -6.6      1.937      2.335
REMARK  4 active torsions:
REMARK  status: ('A' for Active; 'I' for Inactive)
REMARK    1  A    between atoms: C_2  and  C_5 
REMARK    2  A    between atoms: C_10  and  N_11 
REMARK       I    between atoms: N_11  and  C_12 
REMARK       I    between atoms: C_12  and  N_14 
REMARK    3  A    between atoms: N_14  and  C_15 
REMARK    4  A    between atoms: C_18  and  O_19 
ROOT
HETATM    1  N   UNL     1     -39.950 -51.446  12.204  1.00  0.00    -0.288 N 
HETATM    2  C   UNL     1     -40.648 -52.510  12.699  1.00  0.00     0.322 C 
HETATM    3  O   UNL     1     -40.034 -53.492  13.114  1.00  0.00    -0.247 OA
HETATM    4  N   UNL     1     -42.015 -52.417  12.721  1.00  0.00    -0.338 N 
HETATM    5  H   UNL     1     -38.949 -51.503  12.257  1.00  0.00     0.172 HD
HETATM    6  H   UNL     1     -42.427 -51.635  12.218  1.00  0.00     0.164 HD
ENDROOT
BRANCH   1   7
HETATM    7  C   UNL     1     -40.527 -50.349  11.626  1.00  0.00     0.169 A 
HETATM    8  N   UNL     1     -40.508 -50.018  10.359  1.00  0.00    -0.279 N 
HETATM    9  N   UNL     1     -41.237 -48.885  10.118  1.00  0.00    -0.295 N 
ATOM     10  HN  UNL     1     -40.009 -50.540   9.639  1.00  0.00     0.189 HD
HETATM   11  C   UNL     1     -41.803 -48.401  11.209  1.00  0.00     0.077 A 
ATOM     12  HN  UNL     1     -41.332 -48.460   9.196  1.00  0.00     0.187 HD
HETATM   13  S   UNL     1     -41.390 -49.285  12.635  1.00  0.00    -0.037 SA
BRANCH  11  14
HETATM   14  C   UNL     1     -42.728 -47.197  11.153  1.00  0.00    -0.001 C 
HETATM   15  C   UNL     1     -41.995 -46.068  10.397  1.00  0.00     0.021 C 
HETATM   16  C   UNL     1     -43.007 -46.731  12.595  1.00  0.00     0.021 C 
HETATM   17  C   UNL     1     -44.068 -47.453  10.449  1.00  0.00     0.021 C 
ENDBRANCH  11  14
ENDBRANCH   1   7
BRANCH   4  18
HETATM   18  C   UNL     1     -42.878 -53.537  13.062  1.00  0.00     0.086 C 
HETATM   19  C   UNL     1     -44.107 -53.571  12.139  1.00  0.00     0.028 C 
HETATM   20  C   UNL     1     -45.313 -52.795  12.662  1.00  0.00     0.034 C 
HETATM   21  C   UNL     1     -45.677 -53.213  14.079  1.00  0.00     0.118 C 
HETATM   22  C   UNL     1     -44.509 -52.949  15.022  1.00  0.00     0.034 C 
HETATM   23  C   UNL     1     -43.192 -53.590  14.570  1.00  0.00     0.028 C 
BRANCH  21  24
HETATM   24  O   UNL     1     -46.062 -54.585  14.116  1.00  0.00    -0.396 OA
HETATM   25  H   UNL     1     -45.380 -55.122  13.681  1.00  0.00     0.210 HD
ENDBRANCH  21  24
ENDBRANCH   4  18
TORSDOF 4
ENDMDL
MODEL 3
REMARK VINA RESULT:      -6.4      4.518      6.703
REMARK  4 active torsions:
REMARK  status: ('A' for Active; 'I' for Inactive)
REMARK    1  A    between atoms: C_2  and  C_5 
REMARK    2  A    between atoms: C_10  and  N_11 
REMARK       I    between atoms: N_11  and  C_12 
REMARK       I    between atoms: C_12  and  N_14 
REMARK    3  A    between atoms: N_14  and  C_15 
REMARK    4  A    between atoms: C_18  and  O_19 
ROOT
HETATM    1  N   UNL     1     -41.248 -54.172  13.186  1.00  0.00    -0.288 N 
HETATM    2  C   UNL     1     -40.066 -53.539  13.442  1.00  0.00     0.322 C 
HETATM    3  O   UNL     1     -39.049 -54.210  13.620  1.00  0.00    -0.247 OA
HETATM    4  N   UNL     1     -40.073 -52.170  13.471  1.00  0.00    -0.338 N 
HETATM    5  H   UNL     1     -41.212 -55.172  13.102  1.00  0.00     0.172 HD
HETATM    6  H   UNL     1     -40.983 -51.718  13.465  1.00  0.00     0.164 HD
ENDROOT
BRANCH   1   7
HETATM    7  C   UNL     1     -42.453 -53.535  13.073  1.00  0.00     0.169 A 
HETATM    8  N   UNL     1     -43.012 -53.083  11.979  1.00  0.00    -0.279 N 
HETATM    9  N   UNL     1     -44.249 -52.550  12.222  1.00  0.00    -0.295 N 
ATOM     10  HN  UNL     1     -42.579 -53.122  11.057  1.00  0.00     0.189 HD
HETATM   11  C   UNL     1     -44.599 -52.632  13.493  1.00  0.00     0.077 A 
ATOM     12  HN  UNL     1     -44.837 -52.134  11.500  1.00  0.00     0.187 HD
HETATM   13  S   UNL     1     -43.362 -53.306  14.494  1.00  0.00    -0.037 SA
BRANCH  11  14
HETATM   14  C   UNL     1     -45.969 -52.178  13.968  1.00  0.00    -0.001 C 
HETATM   15  C   UNL     1     -46.739 -53.423  14.458  1.00  0.00     0.021 C 
HETATM   16  C   UNL     1     -46.722 -51.567  12.770  1.00  0.00     0.021 C 
HETATM   17  C   UNL     1     -45.941 -51.152  15.110  1.00  0.00     0.021 C 
ENDBRANCH  11  14
ENDBRANCH   1   7
BRANCH   4  18
HETATM   18  C   UNL     1     -38.926 -51.382  13.897  1.00  0.00     0.086 C 
HETATM   19  C   UNL     1     -39.368 -50.252  14.842  1.00  0.00     0.028 C 
HETATM   20  C   UNL     1     -39.706 -48.939  14.143  1.00  0.00     0.034 C 
HETATM   21  C   UNL     1     -38.577 -48.482  13.230  1.00  0.00     0.118 C 
HETATM   22  C   UNL     1     -38.316 -49.528  12.153  1.00  0.00     0.034 C 
HETATM   23  C   UNL     1     -38.055 -50.934  12.706  1.00  0.00     0.028 C 
BRANCH  21  24
HETATM   24  O   UNL     1     -37.396 -48.220  13.983  1.00  0.00    -0.396 OA
HETATM   25  H   UNL     1     -36.684 -48.807  13.682  1.00  0.00     0.210 HD
ENDBRANCH  21  24
ENDBRANCH   4  18
TORSDOF 4
ENDMDL
MODEL 4
REMARK VINA RESULT:      -6.1      2.982      6.468
REMARK  4 active torsions:
REMARK  status: ('A' for Active; 'I' for Inactive)
REMARK    1  A    between atoms: C_2  and  C_5 
REMARK    2  A    between atoms: C_10  and  N_11 
REMARK       I    between atoms: N_11  and  C_12 
REMARK       I    between atoms: C_12  and  N_14 
REMARK    3  A    between atoms: N_14  and  C_15 
REMARK    4  A    between atoms: C_18  and  O_19 
ROOT
HETATM    1  N   UNL     1     -40.470 -51.726  12.082  1.00  0.00    -0.288 N 
HETATM    2  C   UNL     1     -40.239 -50.459  11.629  1.00  0.00     0.322 C 
HETATM    3  O   UNL     1     -39.081 -50.056  11.528  1.00  0.00    -0.247 OA
HETATM    4  N   UNL     1     -41.328 -49.699  11.290  1.00  0.00    -0.338 N 
HETATM    5  H   UNL     1     -39.659 -52.291  12.262  1.00  0.00     0.172 HD
HETATM    6  H   UNL     1     -42.239 -50.064  11.553  1.00  0.00     0.164 HD
ENDROOT
BRANCH   1   7
HETATM    7  C   UNL     1     -41.712 -52.241  12.329  1.00  0.00     0.169 A 
HETATM    8  N   UNL     1     -42.562 -52.716  11.454  1.00  0.00    -0.279 N 
HETATM    9  N   UNL     1     -43.691 -53.204  12.054  1.00  0.00    -0.295 N 
ATOM     10  HN  UNL     1     -42.403 -52.721  10.447  1.00  0.00     0.189 HD
HETATM   11  C   UNL     1     -43.654 -53.102  13.370  1.00  0.00     0.077 A 
ATOM     12  HN  UNL     1     -44.476 -53.604  11.540  1.00  0.00     0.187 HD
HETATM   13  S   UNL     1     -42.235 -52.303  13.947  1.00  0.00    -0.037 SA
BRANCH  11  14
HETATM   14  C   UNL     1     -44.768 -53.661  14.240  1.00  0.00    -0.001 C 
HETATM   15  C   UNL     1     -45.961 -52.684  14.172  1.00  0.00     0.021 C 
HETATM   16  C   UNL     1     -44.262 -53.729  15.694  1.00  0.00     0.021 C 
HETATM   17  C   UNL     1     -45.264 -55.053  13.823  1.00  0.00     0.021 C 
ENDBRANCH  11  14
ENDBRANCH   1   7
BRANCH   4  18
HETATM   18  C   UNL     1     -41.233 -48.285  10.958  1.00  0.00     0.086 C 
HETATM   19  C   UNL     1     -41.136 -47.436  12.235  1.00  0.00     0.028 C 
HETATM   20  C   UNL     1     -42.480 -46.968  12.787  1.00  0.00     0.034 C 
HETATM   21  C   UNL     1     -43.311 -46.267  11.722  1.00  0.00     0.118 C 
HETATM   22  C   UNL     1     -43.589 -47.216  10.563  1.00  0.00     0.034 C 
HETATM   23  C   UNL     1     -42.327 -47.848   9.964  1.00  0.00     0.028 C 
BRANCH  21  24
HETATM   24  O   UNL     1     -42.654 -45.087  11.268  1.00  0.00    -0.396 OA
HETATM   25  H   UNL     1     -42.991 -44.848  10.389  1.00  0.00     0.210 HD
ENDBRANCH  21  24
ENDBRANCH   4  18
TORSDOF 4
ENDMDL
MODEL 5
REMARK VINA RESULT:      -6.0      3.432      4.427
REMARK  4 active torsions:
REMARK  status: ('A' for Active; 'I' for Inactive)
REMARK    1  A    between atoms: C_2  and  C_5 
REMARK    2  A    between atoms: C_10  and  N_11 
REMARK       I    between atoms: N_11  and  C_12 
REMARK       I    between atoms: C_12  and  N_14 
REMARK    3  A    between atoms: N_14  and  C_15 
REMARK    4  A    between atoms: C_18  and  O_19 
ROOT
HETATM    1  N   UNL     1     -41.652 -54.483  13.767  1.00  0.00    -0.288 N 
HETATM    2  C   UNL     1     -42.736 -54.572  14.592  1.00  0.00     0.322 C 
HETATM    3  O   UNL     1     -43.002 -55.650  15.124  1.00  0.00    -0.247 OA
HETATM    4  N   UNL     1     -43.470 -53.434  14.799  1.00  0.00    -0.338 N 
HETATM    5  H   UNL     1     -41.087 -55.309  13.679  1.00  0.00     0.172 HD
HETATM    6  H   UNL     1     -43.261 -52.641  14.200  1.00  0.00     0.164 HD
ENDROOT
BRANCH   1   7
HETATM    7  C   UNL     1     -41.323 -53.368  13.047  1.00  0.00     0.169 A 
HETATM    8  N   UNL     1     -41.728 -53.053  11.842  1.00  0.00    -0.279 N 
HETATM    9  N   UNL     1     -41.249 -51.834  11.446  1.00  0.00    -0.295 N 
ATOM     10  HN  UNL     1     -42.329 -53.644  11.268  1.00  0.00     0.189 HD
HETATM   11  C   UNL     1     -40.508 -51.252  12.372  1.00  0.00     0.077 A 
ATOM     12  HN  UNL     1     -41.443 -51.420  10.534  1.00  0.00     0.187 HD
HETATM   13  S   UNL     1     -40.286 -52.233  13.777  1.00  0.00    -0.037 SA
BRANCH  11  14
HETATM   14  C   UNL     1     -39.946 -49.854  12.173  1.00  0.00    -0.001 C 
HETATM   15  C   UNL     1     -40.831 -49.129  11.137  1.00  0.00     0.021 C 
HETATM   16  C   UNL     1     -38.518 -49.980  11.607  1.00  0.00     0.021 C 
HETATM   17  C   UNL     1     -39.899 -48.999  13.448  1.00  0.00     0.021 C 
ENDBRANCH  11  14
ENDBRANCH   1   7
BRANCH   4  18
HETATM   18  C   UNL     1     -44.737 -53.430  15.515  1.00  0.00     0.086 C 
HETATM   19  C   UNL     1     -45.910 -53.610  14.537  1.00  0.00     0.028 C 
HETATM   20  C   UNL     1     -46.487 -52.306  13.995  1.00  0.00     0.034 C 
HETATM   21  C   UNL     1     -46.850 -51.343  15.117  1.00  0.00     0.118 C 
HETATM   22  C   UNL     1     -45.611 -50.999  15.935  1.00  0.00     0.034 C 
HETATM   23  C   UNL     1     -44.861 -52.225  16.469  1.00  0.00     0.028 C 
BRANCH  21  24
HETATM   24  O   UNL     1     -47.869 -51.897  15.945  1.00  0.00    -0.396 OA
HETATM   25  H   UNL     1     -48.126 -52.768  15.602  1.00  0.00     0.210 HD
ENDBRANCH  21  24
ENDBRANCH   4  18
TORSDOF 4
ENDMDL
MODEL 6
REMARK VINA RESULT:      -5.9      3.906      6.434
REMARK  4 active torsions:
REMARK  status: ('A' for Active; 'I' for Inactive)
REMARK    1  A    between atoms: C_2  and  C_5 
REMARK    2  A    between atoms: C_10  and  N_11 
REMARK       I    between atoms: N_11  and  C_12 
REMARK       I    between atoms: C_12  and  N_14 
REMARK    3  A    between atoms: N_14  and  C_15 
REMARK    4  A    between atoms: C_18  and  O_19 
ROOT
HETATM    1  N   UNL     1     -40.911 -53.349  13.212  1.00  0.00    -0.288 N 
HETATM    2  C   UNL     1     -39.884 -52.454  13.297  1.00  0.00     0.322 C 
HETATM    3  O   UNL     1     -38.746 -52.862  13.527  1.00  0.00    -0.247 OA
HETATM    4  N   UNL     1     -40.179 -51.130  13.101  1.00  0.00    -0.338 N 
HETATM    5  H   UNL     1     -40.666 -54.320  13.292  1.00  0.00     0.172 HD
HETATM    6  H   UNL     1     -41.163 -50.882  13.070  1.00  0.00     0.164 HD
ENDROOT
BRANCH   1   7
HETATM    7  C   UNL     1     -42.224 -53.001  13.062  1.00  0.00     0.169 A 
HETATM    8  N   UNL     1     -42.902 -52.924  11.944  1.00  0.00    -0.279 N 
HETATM    9  N   UNL     1     -44.214 -52.601  12.164  1.00  0.00    -0.295 N 
ATOM     10  HN  UNL     1     -42.501 -53.084  11.020  1.00  0.00     0.189 HD
HETATM   11  C   UNL     1     -44.495 -52.462  13.447  1.00  0.00     0.077 A 
ATOM     12  HN  UNL     1     -44.899 -52.481  11.419  1.00  0.00     0.187 HD
HETATM   13  S   UNL     1     -43.112 -52.640  14.468  1.00  0.00    -0.037 SA
BRANCH  11  14
HETATM   14  C   UNL     1     -45.913 -52.189  13.921  1.00  0.00    -0.001 C 
HETATM   15  C   UNL     1     -46.711 -51.615  12.731  1.00  0.00     0.021 C 
HETATM   16  C   UNL     1     -45.857 -51.130  15.040  1.00  0.00     0.021 C 
HETATM   17  C   UNL     1     -46.659 -53.424  14.447  1.00  0.00     0.021 C 
ENDBRANCH  11  14
ENDBRANCH   1   7
BRANCH   4  18
HETATM   18  C   UNL     1     -39.216 -50.063  13.329  1.00  0.00     0.086 C 
HETATM   19  C   UNL     1     -39.562 -49.290  14.612  1.00  0.00     0.028 C 
HETATM   20  C   UNL     1     -40.479 -48.089  14.399  1.00  0.00     0.034 C 
HETATM   21  C   UNL     1     -39.941 -47.157  13.323  1.00  0.00     0.118 C 
HETATM   22  C   UNL     1     -39.828 -47.896  11.996  1.00  0.00     0.034 C 
HETATM   23  C   UNL     1     -39.009 -49.190  12.076  1.00  0.00     0.028 C 
BRANCH  21  24
HETATM   24  O   UNL     1     -38.684 -46.612  13.712  1.00  0.00    -0.396 OA
HETATM   25  H   UNL     1     -38.064 -46.666  12.966  1.00  0.00     0.210 HD
ENDBRANCH  21  24
ENDBRANCH   4  18
TORSDOF 4
ENDMDL
MODEL 7
REMARK VINA RESULT:      -5.7      3.713      5.598
REMARK  4 active torsions:
REMARK  status: ('A' for Active; 'I' for Inactive)
REMARK    1  A    between atoms: C_2  and  C_5 
REMARK    2  A    between atoms: C_10  and  N_11 
REMARK       I    between atoms: N_11  and  C_12 
REMARK       I    between atoms: C_12  and  N_14 
REMARK    3  A    between atoms: N_14  and  C_15 
REMARK    4  A    between atoms: C_18  and  O_19 
ROOT
HETATM    1  N   UNL     1     -40.548 -51.833  12.007  1.00  0.00    -0.288 N 
HETATM    2  C   UNL     1     -39.708 -52.045  13.063  1.00  0.00     0.322 C 
HETATM    3  O   UNL     1     -39.538 -53.192  13.476  1.00  0.00    -0.247 OA
HETATM    4  N   UNL     1     -39.080 -50.954  13.602  1.00  0.00    -0.338 N 
HETATM    5  H   UNL     1     -40.948 -52.650  11.582  1.00  0.00     0.172 HD
HETATM    6  H   UNL     1     -39.402 -50.042  13.291  1.00  0.00     0.164 HD
ENDROOT
BRANCH   1   7
HETATM    7  C   UNL     1     -40.889 -50.598  11.531  1.00  0.00     0.169 A 
HETATM    8  N   UNL     1     -40.438 -50.010  10.451  1.00  0.00    -0.279 N 
HETATM    9  N   UNL     1     -41.037 -48.798  10.242  1.00  0.00    -0.295 N 
ATOM     10  HN  UNL     1     -39.725 -50.408   9.840  1.00  0.00     0.189 HD
HETATM   11  C   UNL     1     -41.940 -48.510  11.162  1.00  0.00     0.077 A 
ATOM     12  HN  UNL     1     -40.810 -48.184   9.461  1.00  0.00     0.187 HD
HETATM   13  S   UNL     1     -42.041 -49.703  12.408  1.00  0.00    -0.037 SA
BRANCH  11  14
HETATM   14  C   UNL     1     -42.787 -47.251  11.074  1.00  0.00    -0.001 C 
HETATM   15  C   UNL     1     -43.079 -46.774  12.512  1.00  0.00     0.021 C 
HETATM   16  C   UNL     1     -44.119 -47.608  10.387  1.00  0.00     0.021 C 
HETATM   17  C   UNL     1     -42.130 -46.094  10.308  1.00  0.00     0.021 C 
ENDBRANCH  11  14
ENDBRANCH   1   7
BRANCH   4  18
HETATM   18  C   UNL     1     -38.298 -51.017  14.827  1.00  0.00     0.086 C 
HETATM   19  C   UNL     1     -39.190 -50.753  16.051  1.00  0.00     0.028 C 
HETATM   20  C   UNL     1     -39.276 -49.287  16.467  1.00  0.00     0.034 C 
HETATM   21  C   UNL     1     -37.895 -48.674  16.650  1.00  0.00     0.118 C 
HETATM   22  C   UNL     1     -37.112 -48.742  15.345  1.00  0.00     0.034 C 
HETATM   23  C   UNL     1     -37.024 -50.152  14.749  1.00  0.00     0.028 C 
BRANCH  21  24
HETATM   24  O   UNL     1     -37.191 -49.328  17.702  1.00  0.00    -0.396 OA
HETATM   25  H   UNL     1     -36.238 -49.170  17.599  1.00  0.00     0.210 HD
ENDBRANCH  21  24
ENDBRANCH   4  18
TORSDOF 4
ENDMDL
MODEL 8
REMARK VINA RESULT:      -5.2      2.292      2.837
REMARK  4 active torsions:
REMARK  status: ('A' for Active; 'I' for Inactive)
REMARK    1  A    between atoms: C_2  and  C_5 
REMARK    2  A    between atoms: C_10  and  N_11 
REMARK       I    between atoms: N_11  and  C_12 
REMARK       I    between atoms: C_12  and  N_14 
REMARK    3  A    between atoms: N_14  and  C_15 
REMARK    4  A    between atoms: C_18  and  O_19 
ROOT
HETATM    1  N   UNL     1     -39.844 -50.923  11.741  1.00  0.00    -0.288 N 
HETATM    2  C   UNL     1     -40.640 -51.839  12.368  1.00  0.00     0.322 C 
HETATM    3  O   UNL     1     -40.474 -53.037  12.141  1.00  0.00    -0.247 OA
HETATM    4  N   UNL     1     -41.582 -51.366  13.242  1.00  0.00    -0.338 N 
HETATM    5  H   UNL     1     -39.115 -51.290  11.155  1.00  0.00     0.172 HD
HETATM    6  H   UNL     1     -41.740 -50.362  13.244  1.00  0.00     0.164 HD
ENDROOT
BRANCH   1   7
HETATM    7  C   UNL     1     -40.004 -49.569  11.839  1.00  0.00     0.169 A 
HETATM    8  N   UNL     1     -39.322 -48.742  12.591  1.00  0.00    -0.279 N 
HETATM    9  N   UNL     1     -39.708 -47.443  12.400  1.00  0.00    -0.295 N 
ATOM     10  HN  UNL     1     -38.591 -49.031  13.241  1.00  0.00     0.189 HD
HETATM   11  C   UNL     1     -40.660 -47.323  11.493  1.00  0.00     0.077 A 
ATOM     12  HN  UNL     1     -39.304 -46.654  12.904  1.00  0.00     0.187 HD
HETATM   13  S   UNL     1     -41.204 -48.842  10.876  1.00  0.00    -0.037 SA
BRANCH  11  14
HETATM   14  C   UNL     1     -41.177 -45.959  11.064  1.00  0.00    -0.001 C 
HETATM   15  C   UNL     1     -42.328 -46.182  10.059  1.00  0.00     0.021 C 
HETATM   16  C   UNL     1     -40.034 -45.208  10.353  1.00  0.00     0.021 C 
HETATM   17  C   UNL     1     -41.703 -45.086  12.211  1.00  0.00     0.021 C 
ENDBRANCH  11  14
ENDBRANCH   1   7
BRANCH   4  18
HETATM   18  C   UNL     1     -42.600 -52.215  13.844  1.00  0.00     0.086 C 
HETATM   19  C   UNL     1     -43.850 -52.272  12.952  1.00  0.00     0.028 C 
HETATM   20  C   UNL     1     -44.899 -51.208  13.263  1.00  0.00     0.034 C 
HETATM   21  C   UNL     1     -45.274 -51.204  14.738  1.00  0.00     0.118 C 
HETATM   22  C   UNL     1     -44.047 -50.912  15.593  1.00  0.00     0.034 C 
HETATM   23  C   UNL     1     -42.864 -51.849  15.318  1.00  0.00     0.028 C 
BRANCH  21  24
HETATM   24  O   UNL     1     -45.869 -52.445  15.108  1.00  0.00    -0.396 OA
HETATM   25  H   UNL     1     -45.830 -52.546  16.073  1.00  0.00     0.210 HD
ENDBRANCH  21  24
ENDBRANCH   4  18
TORSDOF 4
ENDMDL
MODEL 9
REMARK VINA RESULT:      -5.1      5.510      7.701
REMARK  4 active torsions:
REMARK  status: ('A' for Active; 'I' for Inactive)
REMARK    1  A    between atoms: C_2  and  C_5 
REMARK    2  A    between atoms: C_10  and  N_11 
REMARK       I    between atoms: N_11  and  C_12 
REMARK       I    between atoms: C_12  and  N_14 
REMARK    3  A    between atoms: N_14  and  C_15 
REMARK    4  A    between atoms: C_18  and  O_19 
ROOT
HETATM    1  N   UNL     1     -44.019 -54.321  18.189  1.00  0.00    -0.288 N 
HETATM    2  C   UNL     1     -45.081 -54.069  17.369  1.00  0.00     0.322 C 
HETATM    3  O   UNL     1     -46.195 -53.895  17.862  1.00  0.00    -0.247 OA
HETATM    4  N   UNL     1     -44.840 -54.006  16.022  1.00  0.00    -0.338 N 
HETATM    5  H   UNL     1     -44.200 -54.298  19.177  1.00  0.00     0.172 HD
HETATM    6  H   UNL     1     -43.924 -54.313  15.707  1.00  0.00     0.164 HD
ENDROOT
BRANCH   1   7
HETATM    7  C   UNL     1     -42.762 -54.629  17.748  1.00  0.00     0.169 A 
HETATM    8  N   UNL     1     -42.299 -55.813  17.434  1.00  0.00    -0.279 N 
HETATM    9  N   UNL     1     -41.012 -55.751  16.973  1.00  0.00    -0.295 N 
ATOM     10  HN  UNL     1     -42.833 -56.677  17.522  1.00  0.00     0.189 HD
HETATM   11  C   UNL     1     -40.544 -54.516  16.934  1.00  0.00     0.077 A 
ATOM     12  HN  UNL     1     -40.473 -56.569  16.691  1.00  0.00     0.187 HD
HETATM   13  S   UNL     1     -41.656 -53.350  17.556  1.00  0.00    -0.037 SA
BRANCH  11  14
HETATM   14  C   UNL     1     -39.165 -54.210  16.373  1.00  0.00    -0.001 C 
HETATM   15  C   UNL     1     -38.988 -55.025  15.074  1.00  0.00     0.021 C 
HETATM   16  C   UNL     1     -38.110 -54.670  17.398  1.00  0.00     0.021 C 
HETATM   17  C   UNL     1     -38.924 -52.729  16.046  1.00  0.00     0.021 C 
ENDBRANCH  11  14
ENDBRANCH   1   7
BRANCH   4  18
HETATM   18  C   UNL     1     -45.904 -53.913  15.032  1.00  0.00     0.086 C 
HETATM   19  C   UNL     1     -45.475 -54.582  13.716  1.00  0.00     0.028 C 
HETATM   20  C   UNL     1     -44.796 -53.643  12.722  1.00  0.00     0.034 C 
HETATM   21  C   UNL     1     -45.636 -52.401  12.461  1.00  0.00     0.118 C 
HETATM   22  C   UNL     1     -45.851 -51.629  13.756  1.00  0.00     0.034 C 
HETATM   23  C   UNL     1     -46.441 -52.476  14.890  1.00  0.00     0.028 C 
BRANCH  21  24
HETATM   24  O   UNL     1     -46.882 -52.752  11.864  1.00  0.00    -0.396 OA
HETATM   25  H   UNL     1     -47.377 -51.944  11.652  1.00  0.00     0.210 HD
ENDBRANCH  21  24
ENDBRANCH   4  18
TORSDOF 4
ENDMDL
