MODEL 1
REMARK VINA RESULT:      -6.0      0.000      0.000
REMARK  4 active torsions:
REMARK  status: ('A' for Active; 'I' for Inactive)
REMARK       I    between atoms: N_2  and  C_4 
REMARK    1  A    between atoms: C_4  and  C_6 
REMARK    2  A    between atoms: C_6  and  C_7 
REMARK    3  A    between atoms: C_7  and  N_8 
REMARK       I    between atoms: N_8  and  C_9 
REMARK       I    between atoms: C_9  and  N_11 
REMARK    4  A    between atoms: N_11  and  C_12 
ROOT
HETATM    1  N   UNL     1     -40.963 -49.515  10.847  1.00  0.00    -0.342 N 
HETATM    2  C   UNL     1     -42.082 -48.706  10.798  1.00  0.00     0.320 C 
HETATM    3  O   UNL     1     -42.729 -48.416  11.793  1.00  0.00    -0.247 OA
HETATM    4  N   UNL     1     -42.318 -48.243   9.521  1.00  0.00    -0.309 N 
HETATM    5  H   UNL     1     -40.918 -50.176  10.086  1.00  0.00     0.164 HD
HETATM    6  H   UNL     1     -41.471 -48.109   8.983  1.00  0.00     0.170 HD
ENDROOT
BRANCH   1   7
HETATM    7  C   UNL     1     -40.496 -49.927  12.163  1.00  0.00     0.143 C 
BRANCH   7   8
HETATM    8  C   UNL     1     -39.187 -49.305  12.688  1.00  0.00     0.057 C 
HETATM    9  C   UNL     1     -38.484 -50.129  13.778  1.00  0.00     0.021 C 
HETATM   10  C   UNL     1     -37.424 -50.998  13.096  1.00  0.00     0.001 C 
HETATM   11  C   UNL     1     -37.354 -50.562  11.642  1.00  0.00     0.001 C 
HETATM   12  C   UNL     1     -38.102 -49.243  11.585  1.00  0.00     0.021 C 
BRANCH   8  13
HETATM   13  C   UNL     1     -39.525 -47.859  13.134  1.00  0.00     0.229 C 
HETATM   14  N   UNL     1     -40.106 -47.593  14.374  1.00  0.00    -0.360 N 
HETATM   15  C   UNL     1     -40.357 -46.186  14.665  1.00  0.00     0.152 C 
HETATM   16  C   UNL     1     -40.235 -48.512  15.495  1.00  0.00     0.152 C 
HETATM   17  O   UNL     1     -39.340 -46.923  12.343  1.00  0.00    -0.272 OA
ENDBRANCH   8  13
ENDBRANCH   7   8
ENDBRANCH   1   7
BRANCH   4  18
HETATM   18  C   UNL     1     -43.384 -47.352   9.265  1.00  0.00     0.038 A 
HETATM   19  C   UNL     1     -43.130 -45.985   9.238  1.00  0.00     0.046 A 
HETATM   20  C   UNL     1     -44.209 -45.128   9.095  1.00  0.00     0.090 A 
HETATM   21  N   UNL     1     -45.485 -45.539   8.923  1.00  0.00    -0.375 N 
HETATM   22  C   UNL     1     -45.695 -46.872   8.911  1.00  0.00     0.090 A 
ATOM     23  HN  UNL     1     -46.251 -44.875   8.809  1.00  0.00     0.164 HD
HETATM   24  C   UNL     1     -44.689 -47.808   9.077  1.00  0.00     0.046 A 
ENDBRANCH   4  18
TORSDOF 4
ENDMDL
MODEL 2
REMARK VINA RESULT:      -6.0      4.548      6.071
REMARK  4 active torsions:
REMARK  status: ('A' for Active; 'I' for Inactive)
REMARK       I    between atoms: N_2  and  C_4 
REMARK    1  A    between atoms: C_4  and  C_6 
REMARK    2  A    between atoms: C_6  and  C_7 
REMARK    3  A    between atoms: C_7  and  N_8 
REMARK       I    between atoms: N_8  and  C_9 
REMARK       I    between atoms: C_9  and  N_11 
REMARK    4  A    between atoms: N_11  and  C_12 
ROOT
HETATM    1  N   UNL     1     -42.945 -51.117  12.835  1.00  0.00    -0.342 N 
HETATM    2  C   UNL     1     -42.787 -49.776  12.540  1.00  0.00     0.320 C 
HETATM    3  O   UNL     1     -43.152 -48.889  13.297  1.00  0.00    -0.247 OA
HETATM    4  N   UNL     1     -42.130 -49.594  11.342  1.00  0.00    -0.309 N 
HETATM    5  H   UNL     1     -43.243 -51.665  12.041  1.00  0.00     0.164 HD
HETATM    6  H   UNL     1     -41.458 -50.323  11.142  1.00  0.00     0.170 HD
ENDROOT
BRANCH   1   7
HETATM    7  C   UNL     1     -43.463 -51.453  14.154  1.00  0.00     0.143 C 
BRANCH   7   8
HETATM    8  C   UNL     1     -44.619 -52.470  14.234  1.00  0.00     0.057 C 
HETATM    9  C   UNL     1     -45.739 -52.084  15.213  1.00  0.00     0.021 C 
HETATM   10  C   UNL     1     -46.837 -51.379  14.413  1.00  0.00     0.001 C 
HETATM   11  C   UNL     1     -46.477 -51.511  12.944  1.00  0.00     0.001 C 
HETATM   12  C   UNL     1     -45.389 -52.566  12.893  1.00  0.00     0.021 C 
BRANCH   8  13
HETATM   13  C   UNL     1     -43.982 -53.849  14.542  1.00  0.00     0.229 C 
HETATM   14  N   UNL     1     -43.095 -54.024  15.604  1.00  0.00    -0.360 N 
HETATM   15  C   UNL     1     -42.583 -55.378  15.784  1.00  0.00     0.152 C 
HETATM   16  C   UNL     1     -42.841 -53.094  16.694  1.00  0.00     0.152 C 
HETATM   17  O   UNL     1     -44.210 -54.804  13.786  1.00  0.00    -0.272 OA
ENDBRANCH   8  13
ENDBRANCH   7   8
ENDBRANCH   1   7
BRANCH   4  18
HETATM   18  C   UNL     1     -41.817 -48.294  10.885  1.00  0.00     0.038 A 
HETATM   19  C   UNL     1     -40.609 -47.718  11.264  1.00  0.00     0.046 A 
HETATM   20  C   UNL     1     -40.375 -46.404  10.894  1.00  0.00     0.090 A 
HETATM   21  N   UNL     1     -41.220 -45.666  10.141  1.00  0.00    -0.375 N 
HETATM   22  C   UNL     1     -42.365 -46.267   9.752  1.00  0.00     0.090 A 
ATOM     23  HN  UNL     1     -41.005 -44.704   9.879  1.00  0.00     0.164 HD
HETATM   24  C   UNL     1     -42.705 -47.563  10.095  1.00  0.00     0.046 A 
ENDBRANCH   4  18
TORSDOF 4
ENDMDL
MODEL 3
REMARK VINA RESULT:      -5.8      4.140      5.547
REMARK  4 active torsions:
REMARK  status: ('A' for Active; 'I' for Inactive)
REMARK       I    between atoms: N_2  and  C_4 
REMARK    1  A    between atoms: C_4  and  C_6 
REMARK    2  A    between atoms: C_6  and  C_7 
REMARK    3  A    between atoms: C_7  and  N_8 
REMARK       I    between atoms: N_8  and  C_9 
REMARK       I    between atoms: C_9  and  N_11 
REMARK    4  A    between atoms: N_11  and  C_12 
ROOT
HETATM    1  N   UNL     1     -42.525 -51.406  12.491  1.00  0.00    -0.342 N 
HETATM    2  C   UNL     1     -42.465 -50.031  12.366  1.00  0.00     0.320 C 
HETATM    3  O   UNL     1     -42.908 -49.273  13.216  1.00  0.00    -0.247 OA
HETATM    4  N   UNL     1     -41.804 -49.654  11.217  1.00  0.00    -0.309 N 
HETATM    5  H   UNL     1     -42.767 -51.872  11.628  1.00  0.00     0.164 HD
HETATM    6  H   UNL     1     -41.075 -50.301  10.947  1.00  0.00     0.170 HD
ENDROOT
BRANCH   1   7
HETATM    7  C   UNL     1     -43.038 -51.939  13.744  1.00  0.00     0.143 C 
BRANCH   7   8
HETATM    8  C   UNL     1     -43.011 -53.468  13.940  1.00  0.00     0.057 C 
HETATM    9  C   UNL     1     -43.618 -53.951  15.265  1.00  0.00     0.021 C 
HETATM   10  C   UNL     1     -45.078 -54.331  15.000  1.00  0.00     0.001 C 
HETATM   11  C   UNL     1     -45.292 -54.265  13.498  1.00  0.00     0.001 C 
HETATM   12  C   UNL     1     -43.900 -54.193  12.899  1.00  0.00     0.021 C 
BRANCH   8  13
HETATM   13  C   UNL     1     -41.541 -53.920  13.737  1.00  0.00     0.229 C 
HETATM   14  N   UNL     1     -40.566 -53.690  14.707  1.00  0.00    -0.360 N 
HETATM   15  C   UNL     1     -39.230 -54.179  14.388  1.00  0.00     0.152 C 
HETATM   16  C   UNL     1     -40.782 -53.271  16.084  1.00  0.00     0.152 C 
HETATM   17  O   UNL     1     -41.209 -54.434  12.660  1.00  0.00    -0.272 OA
ENDBRANCH   8  13
ENDBRANCH   7   8
ENDBRANCH   1   7
BRANCH   4  18
HETATM   18  C   UNL     1     -41.583 -48.288  10.930  1.00  0.00     0.038 A 
HETATM   19  C   UNL     1     -42.548 -47.582  10.221  1.00  0.00     0.046 A 
HETATM   20  C   UNL     1     -42.259 -46.276   9.858  1.00  0.00     0.090 A 
HETATM   21  N   UNL     1     -41.123 -45.629  10.199  1.00  0.00    -0.375 N 
HETATM   22  C   UNL     1     -40.223 -46.327  10.924  1.00  0.00     0.090 A 
ATOM     23  HN  UNL     1     -40.953 -44.662   9.922  1.00  0.00     0.164 HD
HETATM   24  C   UNL     1     -40.404 -47.643  11.310  1.00  0.00     0.046 A 
ENDBRANCH   4  18
TORSDOF 4
ENDMDL
MODEL 4
REMARK VINA RESULT:      -5.8      4.193      5.548
REMARK  4 active torsions:
REMARK  status: ('A' for Active; 'I' for Inactive)
REMARK       I    between atoms: N_2  and  C_4 
REMARK    1  A    between atoms: C_4  and  C_6 
REMARK    2  A    between atoms: C_6  and  C_7 
REMARK    3  A    between atoms: C_7  and  N_8 
REMARK       I    between atoms: N_8  and  C_9 
REMARK       I    between atoms: C_9  and  N_11 
REMARK    4  A    between atoms: N_11  and  C_12 
ROOT
HETATM    1  N   UNL     1     -43.120 -49.643  12.513  1.00  0.00    -0.342 N 
HETATM    2  C   UNL     1     -43.514 -50.813  13.133  1.00  0.00     0.320 C 
HETATM    3  O   UNL     1     -42.832 -51.372  13.979  1.00  0.00    -0.247 OA
HETATM    4  N   UNL     1     -44.767 -51.211  12.718  1.00  0.00    -0.309 N 
HETATM    5  H   UNL     1     -43.318 -49.632  11.524  1.00  0.00     0.164 HD
HETATM    6  H   UNL     1     -45.374 -50.434  12.485  1.00  0.00     0.170 HD
ENDROOT
BRANCH   1   7
HETATM    7  C   UNL     1     -41.895 -49.016  12.991  1.00  0.00     0.143 C 
BRANCH   7   8
HETATM    8  C   UNL     1     -40.869 -48.551  11.939  1.00  0.00     0.057 C 
HETATM    9  C   UNL     1     -39.631 -47.853  12.524  1.00  0.00     0.021 C 
HETATM   10  C   UNL     1     -38.528 -48.904  12.671  1.00  0.00     0.001 C 
HETATM   11  C   UNL     1     -39.026 -50.174  12.004  1.00  0.00     0.001 C 
HETATM   12  C   UNL     1     -40.234 -49.750  11.191  1.00  0.00     0.021 C 
BRANCH   8  13
HETATM   13  C   UNL     1     -41.640 -47.679  10.915  1.00  0.00     0.229 C 
HETATM   14  N   UNL     1     -42.068 -46.388  11.230  1.00  0.00    -0.360 N 
HETATM   15  C   UNL     1     -42.770 -45.679  10.166  1.00  0.00     0.152 C 
HETATM   16  C   UNL     1     -41.664 -45.588  12.375  1.00  0.00     0.152 C 
HETATM   17  O   UNL     1     -41.946 -48.162   9.816  1.00  0.00    -0.272 OA
ENDBRANCH   8  13
ENDBRANCH   7   8
ENDBRANCH   1   7
BRANCH   4  18
HETATM   18  C   UNL     1     -45.380 -52.355  13.275  1.00  0.00     0.038 A 
HETATM   19  C   UNL     1     -46.466 -52.191  14.127  1.00  0.00     0.046 A 
HETATM   20  C   UNL     1     -46.979 -53.320  14.746  1.00  0.00     0.090 A 
HETATM   21  N   UNL     1     -46.526 -54.575  14.530  1.00  0.00    -0.375 N 
HETATM   22  C   UNL     1     -45.499 -54.706  13.665  1.00  0.00     0.090 A 
ATOM     23  HN  UNL     1     -46.940 -55.382  14.997  1.00  0.00     0.164 HD
HETATM   24  C   UNL     1     -44.898 -53.640  13.020  1.00  0.00     0.046 A 
ENDBRANCH   4  18
TORSDOF 4
ENDMDL
MODEL 5
REMARK VINA RESULT:      -5.7      4.321      5.729
REMARK  4 active torsions:
REMARK  status: ('A' for Active; 'I' for Inactive)
REMARK       I    between atoms: N_2  and  C_4 
REMARK    1  A    between atoms: C_4  and  C_6 
REMARK    2  A    between atoms: C_6  and  C_7 
REMARK    3  A    between atoms: C_7  and  N_8 
REMARK       I    between atoms: N_8  and  C_9 
REMARK       I    between atoms: C_9  and  N_11 
REMARK    4  A    between atoms: N_11  and  C_12 
ROOT
HETATM    1  N   UNL     1     -42.224 -51.577  12.820  1.00  0.00    -0.342 N 
HETATM    2  C   UNL     1     -42.259 -50.218  12.569  1.00  0.00     0.320 C 
HETATM    3  O   UNL     1     -42.699 -49.412  13.376  1.00  0.00    -0.247 OA
HETATM    4  N   UNL     1     -41.693 -49.911  11.351  1.00  0.00    -0.309 N 
HETATM    5  H   UNL     1     -42.487 -52.134  12.020  1.00  0.00     0.164 HD
HETATM    6  H   UNL     1     -40.941 -50.538  11.092  1.00  0.00     0.170 HD
ENDROOT
BRANCH   1   7
HETATM    7  C   UNL     1     -42.626 -52.020  14.147  1.00  0.00     0.143 C 
BRANCH   7   8
HETATM    8  C   UNL     1     -43.542 -53.256  14.245  1.00  0.00     0.057 C 
HETATM    9  C   UNL     1     -42.802 -54.601  14.190  1.00  0.00     0.021 C 
HETATM   10  C   UNL     1     -42.560 -55.062  15.630  1.00  0.00     0.001 C 
HETATM   11  C   UNL     1     -43.315 -54.107  16.539  1.00  0.00     0.001 C 
HETATM   12  C   UNL     1     -44.247 -53.337  15.621  1.00  0.00     0.021 C 
BRANCH   8  13
HETATM   13  C   UNL     1     -44.621 -53.104  13.142  1.00  0.00     0.229 C 
HETATM   14  N   UNL     1     -45.714 -52.251  13.302  1.00  0.00    -0.360 N 
HETATM   15  C   UNL     1     -46.643 -52.197  12.180  1.00  0.00     0.152 C 
HETATM   16  C   UNL     1     -45.882 -51.227  14.322  1.00  0.00     0.152 C 
HETATM   17  O   UNL     1     -44.552 -53.808  12.125  1.00  0.00    -0.272 OA
ENDBRANCH   8  13
ENDBRANCH   7   8
ENDBRANCH   1   7
BRANCH   4  18
HETATM   18  C   UNL     1     -41.577 -48.568  10.929  1.00  0.00     0.038 A 
HETATM   19  C   UNL     1     -40.450 -47.841  11.295  1.00  0.00     0.046 A 
HETATM   20  C   UNL     1     -40.411 -46.496  10.963  1.00  0.00     0.090 A 
HETATM   21  N   UNL     1     -41.374 -45.861  10.259  1.00  0.00    -0.375 N 
HETATM   22  C   UNL     1     -42.436 -46.604   9.881  1.00  0.00     0.090 A 
ATOM     23  HN  UNL     1     -41.302 -44.871  10.024  1.00  0.00     0.164 HD
HETATM   24  C   UNL     1     -42.582 -47.945  10.189  1.00  0.00     0.046 A 
ENDBRANCH   4  18
TORSDOF 4
ENDMDL
MODEL 6
REMARK VINA RESULT:      -5.6      2.566      3.261
REMARK  4 active torsions:
REMARK  status: ('A' for Active; 'I' for Inactive)
REMARK       I    between atoms: N_2  and  C_4 
REMARK    1  A    between atoms: C_4  and  C_6 
REMARK    2  A    between atoms: C_6  and  C_7 
REMARK    3  A    between atoms: C_7  and  N_8 
REMARK       I    between atoms: N_8  and  C_9 
REMARK       I    between atoms: C_9  and  N_11 
REMARK    4  A    between atoms: N_11  and  C_12 
ROOT
HETATM    1  N   UNL     1     -40.592 -51.219  11.453  1.00  0.00    -0.342 N 
HETATM    2  C   UNL     1     -41.402 -50.100  11.475  1.00  0.00     0.320 C 
HETATM    3  O   UNL     1     -42.340 -49.982  12.249  1.00  0.00    -0.247 OA
HETATM    4  N   UNL     1     -40.977 -49.147  10.574  1.00  0.00    -0.309 N 
HETATM    5  H   UNL     1     -40.358 -51.520  10.518  1.00  0.00     0.164 HD
HETATM    6  H   UNL     1     -39.974 -49.145  10.441  1.00  0.00     0.170 HD
ENDROOT
BRANCH   1   7
HETATM    7  C   UNL     1     -40.820 -52.227  12.479  1.00  0.00     0.143 C 
BRANCH   7   8
HETATM    8  C   UNL     1     -39.885 -52.227  13.705  1.00  0.00     0.057 C 
HETATM    9  C   UNL     1     -40.596 -51.991  15.046  1.00  0.00     0.021 C 
HETATM   10  C   UNL     1     -40.890 -53.359  15.668  1.00  0.00     0.001 C 
HETATM   11  C   UNL     1     -40.193 -54.400  14.810  1.00  0.00     0.001 C 
HETATM   12  C   UNL     1     -39.238 -53.617  13.929  1.00  0.00     0.021 C 
BRANCH   8  13
HETATM   13  C   UNL     1     -38.763 -51.198  13.415  1.00  0.00     0.229 C 
HETATM   14  N   UNL     1     -38.869 -49.867  13.821  1.00  0.00    -0.360 N 
HETATM   15  C   UNL     1     -37.734 -49.014  13.492  1.00  0.00     0.152 C 
HETATM   16  C   UNL     1     -39.839 -49.311  14.753  1.00  0.00     0.152 C 
HETATM   17  O   UNL     1     -37.780 -51.545  12.745  1.00  0.00    -0.272 OA
ENDBRANCH   8  13
ENDBRANCH   7   8
ENDBRANCH   1   7
BRANCH   4  18
HETATM   18  C   UNL     1     -41.637 -47.902  10.480  1.00  0.00     0.038 A 
HETATM   19  C   UNL     1     -41.169 -46.832  11.236  1.00  0.00     0.046 A 
HETATM   20  C   UNL     1     -41.898 -45.654  11.210  1.00  0.00     0.090 A 
HETATM   21  N   UNL     1     -43.001 -45.461  10.455  1.00  0.00    -0.375 N 
HETATM   22  C   UNL     1     -43.407 -46.504   9.700  1.00  0.00     0.090 A 
ATOM     23  HN  UNL     1     -43.503 -44.574  10.455  1.00  0.00     0.164 HD
HETATM   24  C   UNL     1     -42.766 -47.731   9.678  1.00  0.00     0.046 A 
ENDBRANCH   4  18
TORSDOF 4
ENDMDL
MODEL 7
REMARK VINA RESULT:      -5.6      4.338      5.617
REMARK  4 active torsions:
REMARK  status: ('A' for Active; 'I' for Inactive)
REMARK       I    between atoms: N_2  and  C_4 
REMARK    1  A    between atoms: C_4  and  C_6 
REMARK    2  A    between atoms: C_6  and  C_7 
REMARK    3  A    between atoms: C_7  and  N_8 
REMARK       I    between atoms: N_8  and  C_9 
REMARK       I    between atoms: C_9  and  N_11 
REMARK    4  A    between atoms: N_11  and  C_12 
ROOT
HETATM    1  N   UNL     1     -42.621 -51.378  12.698  1.00  0.00    -0.342 N 
HETATM    2  C   UNL     1     -42.511 -50.008  12.547  1.00  0.00     0.320 C 
HETATM    3  O   UNL     1     -42.814 -49.223  13.433  1.00  0.00    -0.247 OA
HETATM    4  N   UNL     1     -41.975 -49.674  11.322  1.00  0.00    -0.309 N 
HETATM    5  H   UNL     1     -42.986 -51.839  11.877  1.00  0.00     0.164 HD
HETATM    6  H   UNL     1     -41.314 -50.359  10.977  1.00  0.00     0.170 HD
ENDROOT
BRANCH   1   7
HETATM    7  C   UNL     1     -43.006 -51.874  14.011  1.00  0.00     0.143 C 
BRANCH   7   8
HETATM    8  C   UNL     1     -42.718 -53.355  14.332  1.00  0.00     0.057 C 
HETATM    9  C   UNL     1     -42.100 -54.149  13.171  1.00  0.00     0.021 C 
HETATM   10  C   UNL     1     -40.580 -54.143  13.357  1.00  0.00     0.001 C 
HETATM   11  C   UNL     1     -40.297 -53.523  14.715  1.00  0.00     0.001 C 
HETATM   12  C   UNL     1     -41.635 -53.501  15.430  1.00  0.00     0.021 C 
BRANCH   8  13
HETATM   13  C   UNL     1     -44.043 -53.965  14.858  1.00  0.00     0.229 C 
HETATM   14  N   UNL     1     -45.246 -53.803  14.170  1.00  0.00    -0.360 N 
HETATM   15  C   UNL     1     -46.409 -54.442  14.774  1.00  0.00     0.152 C 
HETATM   16  C   UNL     1     -45.417 -53.313  12.811  1.00  0.00     0.152 C 
HETATM   17  O   UNL     1     -44.049 -54.551  15.950  1.00  0.00    -0.272 OA
ENDBRANCH   8  13
ENDBRANCH   7   8
ENDBRANCH   1   7
BRANCH   4  18
HETATM   18  C   UNL     1     -41.725 -48.323  10.992  1.00  0.00     0.038 A 
HETATM   19  C   UNL     1     -42.691 -47.610  10.291  1.00  0.00     0.046 A 
HETATM   20  C   UNL     1     -42.378 -46.323   9.884  1.00  0.00     0.090 A 
HETATM   21  N   UNL     1     -41.215 -45.699  10.174  1.00  0.00    -0.375 N 
HETATM   22  C   UNL     1     -40.314 -46.401  10.892  1.00  0.00     0.090 A 
ATOM     23  HN  UNL     1     -41.028 -44.745   9.865  1.00  0.00     0.164 HD
HETATM   24  C   UNL     1     -40.519 -47.701  11.319  1.00  0.00     0.046 A 
ENDBRANCH   4  18
TORSDOF 4
ENDMDL
MODEL 8
REMARK VINA RESULT:      -5.6      4.207      5.951
REMARK  4 active torsions:
REMARK  status: ('A' for Active; 'I' for Inactive)
REMARK       I    between atoms: N_2  and  C_4 
REMARK    1  A    between atoms: C_4  and  C_6 
REMARK    2  A    between atoms: C_6  and  C_7 
REMARK    3  A    between atoms: C_7  and  N_8 
REMARK       I    between atoms: N_8  and  C_9 
REMARK       I    between atoms: C_9  and  N_11 
REMARK    4  A    between atoms: N_11  and  C_12 
ROOT
HETATM    1  N   UNL     1     -43.465 -49.537  12.338  1.00  0.00    -0.342 N 
HETATM    2  C   UNL     1     -43.847 -50.571  13.172  1.00  0.00     0.320 C 
HETATM    3  O   UNL     1     -43.403 -50.701  14.304  1.00  0.00    -0.247 OA
HETATM    4  N   UNL     1     -44.808 -51.367  12.587  1.00  0.00    -0.309 N 
HETATM    5  H   UNL     1     -43.321 -49.831  11.383  1.00  0.00     0.164 HD
HETATM    6  H   UNL     1     -45.420 -50.858  11.963  1.00  0.00     0.170 HD
ENDROOT
BRANCH   1   7
HETATM    7  C   UNL     1     -42.589 -48.518  12.899  1.00  0.00     0.143 C 
BRANCH   7   8
HETATM    8  C   UNL     1     -41.615 -47.803  11.942  1.00  0.00     0.057 C 
HETATM    9  C   UNL     1     -41.666 -48.304  10.490  1.00  0.00     0.021 C 
HETATM   10  C   UNL     1     -42.608 -47.382   9.710  1.00  0.00     0.001 C 
HETATM   11  C   UNL     1     -42.967 -46.227  10.628  1.00  0.00     0.001 C 
HETATM   12  C   UNL     1     -41.976 -46.306  11.774  1.00  0.00     0.021 C 
BRANCH   8  13
HETATM   13  C   UNL     1     -40.204 -47.905  12.577  1.00  0.00     0.229 C 
HETATM   14  N   UNL     1     -39.566 -49.134  12.745  1.00  0.00    -0.360 N 
HETATM   15  C   UNL     1     -38.238 -49.080  13.345  1.00  0.00     0.152 C 
HETATM   16  C   UNL     1     -39.949 -50.407  12.154  1.00  0.00     0.152 C 
HETATM   17  O   UNL     1     -39.660 -46.881  13.012  1.00  0.00    -0.272 OA
ENDBRANCH   8  13
ENDBRANCH   7   8
ENDBRANCH   1   7
BRANCH   4  18
HETATM   18  C   UNL     1     -45.375 -52.448  13.297  1.00  0.00     0.038 A 
HETATM   19  C   UNL     1     -44.848 -53.723  13.122  1.00  0.00     0.046 A 
HETATM   20  C   UNL     1     -45.491 -54.781  13.744  1.00  0.00     0.090 A 
HETATM   21  N   UNL     1     -46.564 -54.645  14.555  1.00  0.00    -0.375 N 
HETATM   22  C   UNL     1     -47.027 -53.390  14.740  1.00  0.00     0.090 A 
ATOM     23  HN  UNL     1     -47.002 -55.449  15.004  1.00  0.00     0.164 HD
HETATM   24  C   UNL     1     -46.474 -52.272  14.140  1.00  0.00     0.046 A 
ENDBRANCH   4  18
TORSDOF 4
ENDMDL
MODEL 9
REMARK VINA RESULT:      -5.5      2.615      3.325
REMARK  4 active torsions:
REMARK  status: ('A' for Active; 'I' for Inactive)
REMARK       I    between atoms: N_2  and  C_4 
REMARK    1  A    between atoms: C_4  and  C_6 
REMARK    2  A    between atoms: C_6  and  C_7 
REMARK    3  A    between atoms: C_7  and  N_8 
REMARK       I    between atoms: N_8  and  C_9 
REMARK       I    between atoms: C_9  and  N_11 
REMARK    4  A    between atoms: N_11  and  C_12 
ROOT
HETATM    1  N   UNL     1     -40.878 -50.378  11.436  1.00  0.00    -0.342 N 
HETATM    2  C   UNL     1     -41.749 -49.308  11.349  1.00  0.00     0.320 C 
HETATM    3  O   UNL     1     -42.511 -49.005  12.254  1.00  0.00    -0.247 OA
HETATM    4  N   UNL     1     -41.595 -48.623  10.162  1.00  0.00    -0.309 N 
HETATM    5  H   UNL     1     -40.822 -50.913  10.582  1.00  0.00     0.164 HD
HETATM    6  H   UNL     1     -40.645 -48.638   9.814  1.00  0.00     0.170 HD
ENDROOT
BRANCH   1   7
HETATM    7  C   UNL     1     -40.810 -51.079  12.710  1.00  0.00     0.143 C 
BRANCH   7   8
HETATM    8  C   UNL     1     -39.435 -51.184  13.399  1.00  0.00     0.057 C 
HETATM    9  C   UNL     1     -38.245 -50.804  12.505  1.00  0.00     0.021 C 
HETATM   10  C   UNL     1     -37.910 -49.333  12.772  1.00  0.00     0.001 C 
HETATM   11  C   UNL     1     -38.759 -48.887  13.950  1.00  0.00     0.001 C 
HETATM   12  C   UNL     1     -39.299 -50.167  14.560  1.00  0.00     0.021 C 
BRANCH   8  13
HETATM   13  C   UNL     1     -39.333 -52.618  13.980  1.00  0.00     0.229 C 
HETATM   14  N   UNL     1     -40.103 -53.020  15.071  1.00  0.00    -0.360 N 
HETATM   15  C   UNL     1     -39.913 -54.400  15.504  1.00  0.00     0.152 C 
HETATM   16  C   UNL     1     -41.246 -52.323  15.640  1.00  0.00     0.152 C 
HETATM   17  O   UNL     1     -38.497 -53.403  13.512  1.00  0.00    -0.272 OA
ENDBRANCH   8  13
ENDBRANCH   7   8
ENDBRANCH   1   7
BRANCH   4  18
HETATM   18  C   UNL     1     -42.352 -47.460   9.900  1.00  0.00     0.038 A 
HETATM   19  C   UNL     1     -41.964 -46.258  10.482  1.00  0.00     0.046 A 
HETATM   20  C   UNL     1     -42.785 -45.156  10.298  1.00  0.00     0.090 A 
HETATM   21  N   UNL     1     -43.906 -45.163   9.545  1.00  0.00    -0.375 N 
HETATM   22  C   UNL     1     -44.234 -46.334   8.958  1.00  0.00     0.090 A 
ATOM     23  HN  UNL     1     -44.477 -44.327   9.425  1.00  0.00     0.164 HD
HETATM   24  C   UNL     1     -43.498 -47.497   9.104  1.00  0.00     0.046 A 
ENDBRANCH   4  18
TORSDOF 4
ENDMDL
