MODEL 1
REMARK VINA RESULT:      -6.4      0.000      0.000
REMARK  7 active torsions:
REMARK  status: ('A' for Active; 'I' for Inactive)
REMARK    1  A    between atoms: C_2  and  C_4 
REMARK    2  A    between atoms: C_4  and  C_5 
REMARK    3  A    between atoms: C_5  and  N_6 
REMARK    4  A    between atoms: C_5  and  C_13 
REMARK       I    between atoms: C_13  and  N_15 
REMARK    5  A    between atoms: N_15  and  C_16 
REMARK    6  A    between atoms: C_16  and  C_17 
REMARK    7  A    between atoms: C_17  and  C_18 
ROOT
HETATM    1  C   UNL     1     -42.145 -51.157  12.794  1.00  0.00     0.240 C 
HETATM    2  O   UNL     1     -41.297 -51.037  13.677  1.00  0.00    -0.271 OA
HETATM    3  N   UNL     1     -42.315 -50.219  11.797  1.00  0.00    -0.359 N 
HETATM    4  H   UNL     1     -43.250 -50.171  11.385  1.00  0.00     0.162 HD
ENDROOT
BRANCH   1   5
HETATM    5  C   UNL     1     -43.143 -52.328  12.748  1.00  0.00     0.179 C 
BRANCH   5   6
HETATM    6  C   UNL     1     -42.422 -53.630  13.156  1.00  0.00     0.039 C 
BRANCH   6   7
HETATM    7  C   UNL     1     -42.546 -54.032  14.639  1.00  0.00    -0.020 C 
HETATM    8  C   UNL     1     -43.502 -55.204  14.856  1.00  0.00     0.009 C 
HETATM    9  C   UNL     1     -41.158 -54.395  15.177  1.00  0.00     0.009 C 
ENDBRANCH   6   7
ENDBRANCH   5   6
BRANCH   5  10
HETATM   10  N   UNL     1     -44.332 -52.046  13.568  1.00  0.00    -0.339 N 
HETATM   11  C   UNL     1     -44.372 -50.827  14.373  1.00  0.00     0.127 C 
HETATM   12  C   UNL     1     -45.309 -50.976  15.563  1.00  0.00     0.020 C 
HETATM   13  C   UNL     1     -46.691 -51.414  15.098  1.00  0.00     0.011 C 
HETATM   14  C   UNL     1     -46.609 -52.640  14.203  1.00  0.00     0.103 C 
HETATM   15  C   UNL     1     -45.557 -52.530  13.115  1.00  0.00     0.220 C 
HETATM   16  O   UNL     1     -45.730 -52.972  11.982  1.00  0.00    -0.273 OA
ENDBRANCH   5  10
ENDBRANCH   1   5
BRANCH   3  17
HETATM   17  C   UNL     1     -41.476 -49.035  11.733  1.00  0.00     0.127 C 
BRANCH  17  18
HETATM   18  C   UNL     1     -41.618 -48.260  10.408  1.00  0.00     0.059 C 
BRANCH  18  19
HETATM   19  C   UNL     1     -41.529 -46.779  10.645  1.00  0.00    -0.041 A 
HETATM   20  C   UNL     1     -40.294 -46.141  10.758  1.00  0.00     0.010 A 
HETATM   21  C   UNL     1     -40.243 -44.794  11.108  1.00  0.00     0.025 A 
HETATM   22  C   UNL     1     -41.434 -44.115  11.336  1.00  0.00     0.005 A 
HETATM   23  C   UNL     1     -41.429 -42.699  11.828  1.00  0.00     0.068 C 
HETATM   24  N   UNL     1     -42.646 -44.701  11.190  1.00  0.00    -0.369 N 
HETATM   25  C   UNL     1     -42.668 -46.009  10.847  1.00  0.00     0.095 A 
ATOM     26  HN  UNL     1     -43.508 -44.177  11.334  1.00  0.00     0.165 HD
ENDBRANCH  18  19
ENDBRANCH  17  18
ENDBRANCH   3  17
TORSDOF 7
ENDMDL
MODEL 2
REMARK VINA RESULT:      -6.3      2.334      7.500
REMARK  7 active torsions:
REMARK  status: ('A' for Active; 'I' for Inactive)
REMARK    1  A    between atoms: C_2  and  C_4 
REMARK    2  A    between atoms: C_4  and  C_5 
REMARK    3  A    between atoms: C_5  and  N_6 
REMARK    4  A    between atoms: C_5  and  C_13 
REMARK       I    between atoms: C_13  and  N_15 
REMARK    5  A    between atoms: N_15  and  C_16 
REMARK    6  A    between atoms: C_16  and  C_17 
REMARK    7  A    between atoms: C_17  and  C_18 
ROOT
HETATM    1  C   UNL     1     -42.260 -50.955  12.819  1.00  0.00     0.240 C 
HETATM    2  O   UNL     1     -42.565 -50.800  14.002  1.00  0.00    -0.271 OA
HETATM    3  N   UNL     1     -42.407 -52.163  12.169  1.00  0.00    -0.359 N 
HETATM    4  H   UNL     1     -41.778 -52.322  11.378  1.00  0.00     0.162 HD
ENDROOT
BRANCH   1   5
HETATM    5  C   UNL     1     -41.625 -49.842  11.967  1.00  0.00     0.179 C 
BRANCH   5   6
HETATM    6  C   UNL     1     -42.619 -48.669  11.837  1.00  0.00     0.039 C 
BRANCH   6   7
HETATM    7  C   UNL     1     -42.622 -47.935  10.482  1.00  0.00    -0.020 C 
HETATM    8  C   UNL     1     -44.009 -47.434  10.083  1.00  0.00     0.009 C 
HETATM    9  C   UNL     1     -41.649 -46.753  10.551  1.00  0.00     0.009 C 
ENDBRANCH   6   7
ENDBRANCH   5   6
BRANCH   5  10
HETATM   10  N   UNL     1     -40.319 -49.434  12.511  1.00  0.00    -0.339 N 
HETATM   11  C   UNL     1     -40.271 -48.450  13.590  1.00  0.00     0.127 C 
HETATM   12  C   UNL     1     -38.942 -47.710  13.609  1.00  0.00     0.020 C 
HETATM   13  C   UNL     1     -37.785 -48.699  13.669  1.00  0.00     0.011 C 
HETATM   14  C   UNL     1     -37.904 -49.753  12.580  1.00  0.00     0.103 C 
HETATM   15  C   UNL     1     -39.287 -50.369  12.477  1.00  0.00     0.220 C 
HETATM   16  O   UNL     1     -39.464 -51.560  12.234  1.00  0.00    -0.273 OA
ENDBRANCH   5  10
ENDBRANCH   1   5
BRANCH   3  17
HETATM   17  C   UNL     1     -42.952 -53.321  12.855  1.00  0.00     0.127 C 
BRANCH  17  18
HETATM   18  C   UNL     1     -44.404 -53.640  12.449  1.00  0.00     0.059 C 
BRANCH  18  19
HETATM   19  C   UNL     1     -45.373 -53.084  13.455  1.00  0.00    -0.041 A 
HETATM   20  C   UNL     1     -46.001 -51.856  13.247  1.00  0.00     0.010 A 
HETATM   21  C   UNL     1     -46.790 -51.306  14.252  1.00  0.00     0.025 A 
HETATM   22  C   UNL     1     -46.934 -52.001  15.448  1.00  0.00     0.005 A 
HETATM   23  C   UNL     1     -47.675 -51.398  16.603  1.00  0.00     0.068 C 
HETATM   24  N   UNL     1     -46.370 -53.214  15.657  1.00  0.00    -0.369 N 
HETATM   25  C   UNL     1     -45.611 -53.727  14.663  1.00  0.00     0.095 A 
ATOM     26  HN  UNL     1     -46.512 -53.720  16.530  1.00  0.00     0.165 HD
ENDBRANCH  18  19
ENDBRANCH  17  18
ENDBRANCH   3  17
TORSDOF 7
ENDMDL
MODEL 3
REMARK VINA RESULT:      -6.3      2.300      2.997
REMARK  7 active torsions:
REMARK  status: ('A' for Active; 'I' for Inactive)
REMARK    1  A    between atoms: C_2  and  C_4 
REMARK    2  A    between atoms: C_4  and  C_5 
REMARK    3  A    between atoms: C_5  and  N_6 
REMARK    4  A    between atoms: C_5  and  C_13 
REMARK       I    between atoms: C_13  and  N_15 
REMARK    5  A    between atoms: N_15  and  C_16 
REMARK    6  A    between atoms: C_16  and  C_17 
REMARK    7  A    between atoms: C_17  and  C_18 
ROOT
HETATM    1  C   UNL     1     -43.164 -50.940  13.690  1.00  0.00     0.240 C 
HETATM    2  O   UNL     1     -44.022 -50.502  12.925  1.00  0.00    -0.271 OA
HETATM    3  N   UNL     1     -42.341 -50.115  14.430  1.00  0.00    -0.359 N 
HETATM    4  H   UNL     1     -41.434 -50.510  14.691  1.00  0.00     0.162 HD
ENDROOT
BRANCH   1   5
HETATM    5  C   UNL     1     -42.876 -52.443  13.851  1.00  0.00     0.179 C 
BRANCH   5   6
HETATM    6  C   UNL     1     -41.688 -52.635  14.818  1.00  0.00     0.039 C 
BRANCH   6   7
HETATM    7  C   UNL     1     -40.535 -53.516  14.301  1.00  0.00    -0.020 C 
HETATM    8  C   UNL     1     -40.855 -54.185  12.964  1.00  0.00     0.009 C 
HETATM    9  C   UNL     1     -39.275 -52.656  14.156  1.00  0.00     0.009 C 
ENDBRANCH   6   7
ENDBRANCH   5   6
BRANCH   5  10
HETATM   10  N   UNL     1     -44.083 -53.175  14.268  1.00  0.00    -0.339 N 
HETATM   11  C   UNL     1     -44.929 -52.615  15.319  1.00  0.00     0.127 C 
HETATM   12  C   UNL     1     -45.721 -53.701  16.033  1.00  0.00     0.020 C 
HETATM   13  C   UNL     1     -46.510 -54.530  15.028  1.00  0.00     0.011 C 
HETATM   14  C   UNL     1     -45.616 -55.035  13.907  1.00  0.00     0.103 C 
HETATM   15  C   UNL     1     -44.720 -53.964  13.313  1.00  0.00     0.220 C 
HETATM   16  O   UNL     1     -44.468 -53.904  12.112  1.00  0.00    -0.273 OA
ENDBRANCH   5  10
ENDBRANCH   1   5
BRANCH   3  17
HETATM   17  C   UNL     1     -42.462 -48.671  14.351  1.00  0.00     0.127 C 
BRANCH  17  18
HETATM   18  C   UNL     1     -41.390 -48.018  13.456  1.00  0.00     0.059 C 
BRANCH  18  19
HETATM   19  C   UNL     1     -41.913 -47.813  12.062  1.00  0.00    -0.041 A 
HETATM   20  C   UNL     1     -43.108 -47.130  11.834  1.00  0.00     0.010 A 
HETATM   21  C   UNL     1     -43.632 -47.069  10.546  1.00  0.00     0.025 A 
HETATM   22  C   UNL     1     -42.946 -47.695   9.512  1.00  0.00     0.005 A 
HETATM   23  C   UNL     1     -43.527 -47.760   8.132  1.00  0.00     0.068 C 
HETATM   24  N   UNL     1     -41.763 -48.327   9.701  1.00  0.00    -0.369 N 
HETATM   25  C   UNL     1     -41.274 -48.369  10.961  1.00  0.00     0.095 A 
ATOM     26  HN  UNL     1     -41.262 -48.755   8.923  1.00  0.00     0.165 HD
ENDBRANCH  18  19
ENDBRANCH  17  18
ENDBRANCH   3  17
TORSDOF 7
ENDMDL
MODEL 4
REMARK VINA RESULT:      -6.3      2.594      7.455
REMARK  7 active torsions:
REMARK  status: ('A' for Active; 'I' for Inactive)
REMARK    1  A    between atoms: C_2  and  C_4 
REMARK    2  A    between atoms: C_4  and  C_5 
REMARK    3  A    between atoms: C_5  and  N_6 
REMARK    4  A    between atoms: C_5  and  C_13 
REMARK       I    between atoms: C_13  and  N_15 
REMARK    5  A    between atoms: N_15  and  C_16 
REMARK    6  A    between atoms: C_16  and  C_17 
REMARK    7  A    between atoms: C_17  and  C_18 
ROOT
HETATM    1  C   UNL     1     -41.147 -47.622  10.957  1.00  0.00     0.240 C 
HETATM    2  O   UNL     1     -39.999 -47.251  11.196  1.00  0.00    -0.271 OA
HETATM    3  N   UNL     1     -41.494 -48.956  10.883  1.00  0.00    -0.359 N 
HETATM    4  H   UNL     1     -42.304 -49.173  10.297  1.00  0.00     0.162 HD
ENDROOT
BRANCH   1   5
HETATM    5  C   UNL     1     -42.295 -46.643  10.651  1.00  0.00     0.179 C 
BRANCH   5   6
HETATM    6  C   UNL     1     -43.581 -47.443  10.351  1.00  0.00     0.039 C 
BRANCH   6   7
HETATM    7  C   UNL     1     -44.266 -47.134   9.005  1.00  0.00    -0.020 C 
HETATM    8  C   UNL     1     -43.567 -47.797   7.819  1.00  0.00     0.009 C 
HETATM    9  C   UNL     1     -45.725 -47.601   9.069  1.00  0.00     0.009 C 
ENDBRANCH   6   7
ENDBRANCH   5   6
BRANCH   5  10
HETATM   10  N   UNL     1     -42.464 -45.665  11.738  1.00  0.00    -0.339 N 
HETATM   11  C   UNL     1     -42.400 -46.121  13.124  1.00  0.00     0.127 C 
HETATM   12  C   UNL     1     -43.168 -45.190  14.052  1.00  0.00     0.020 C 
HETATM   13  C   UNL     1     -42.683 -43.756  13.885  1.00  0.00     0.011 C 
HETATM   14  C   UNL     1     -42.693 -43.338  12.424  1.00  0.00     0.103 C 
HETATM   15  C   UNL     1     -42.057 -44.356  11.495  1.00  0.00     0.220 C 
HETATM   16  O   UNL     1     -41.371 -44.031  10.529  1.00  0.00    -0.273 OA
ENDBRANCH   5  10
ENDBRANCH   1   5
BRANCH   3  17
HETATM   17  C   UNL     1     -40.509 -49.999  11.104  1.00  0.00     0.127 C 
BRANCH  17  18
HETATM   18  C   UNL     1     -40.700 -50.742  12.440  1.00  0.00     0.059 C 
BRANCH  18  19
HETATM   19  C   UNL     1     -42.139 -51.133  12.632  1.00  0.00    -0.041 A 
HETATM   20  C   UNL     1     -43.012 -50.326  13.362  1.00  0.00     0.010 A 
HETATM   21  C   UNL     1     -44.302 -50.776  13.633  1.00  0.00     0.025 A 
HETATM   22  C   UNL     1     -44.688 -52.027  13.165  1.00  0.00     0.005 A 
HETATM   23  C   UNL     1     -46.022 -52.605  13.530  1.00  0.00     0.068 C 
HETATM   24  N   UNL     1     -43.873 -52.809  12.419  1.00  0.00    -0.369 N 
HETATM   25  C   UNL     1     -42.627 -52.347  12.166  1.00  0.00     0.095 A 
ATOM     26  HN  UNL     1     -44.186 -53.710  12.061  1.00  0.00     0.165 HD
ENDBRANCH  18  19
ENDBRANCH  17  18
ENDBRANCH   3  17
TORSDOF 7
ENDMDL
MODEL 5
REMARK VINA RESULT:      -6.3      3.851      7.159
REMARK  7 active torsions:
REMARK  status: ('A' for Active; 'I' for Inactive)
REMARK    1  A    between atoms: C_2  and  C_4 
REMARK    2  A    between atoms: C_4  and  C_5 
REMARK    3  A    between atoms: C_5  and  N_6 
REMARK    4  A    between atoms: C_5  and  C_13 
REMARK       I    between atoms: C_13  and  N_15 
REMARK    5  A    between atoms: N_15  and  C_16 
REMARK    6  A    between atoms: C_16  and  C_17 
REMARK    7  A    between atoms: C_17  and  C_18 
ROOT
HETATM    1  C   UNL     1     -41.830 -51.806  12.483  1.00  0.00     0.240 C 
HETATM    2  O   UNL     1     -42.468 -50.757  12.577  1.00  0.00    -0.271 OA
HETATM    3  N   UNL     1     -42.440 -53.029  12.292  1.00  0.00    -0.359 N 
HETATM    4  H   UNL     1     -41.922 -53.843  12.632  1.00  0.00     0.162 HD
ENDROOT
BRANCH   1   5
HETATM    5  C   UNL     1     -40.300 -51.869  12.635  1.00  0.00     0.179 C 
BRANCH   5   6
HETATM    6  C   UNL     1     -39.690 -50.510  12.233  1.00  0.00     0.039 C 
BRANCH   6   7
HETATM    7  C   UNL     1     -38.173 -50.359  12.460  1.00  0.00    -0.020 C 
HETATM    8  C   UNL     1     -37.411 -50.047  11.172  1.00  0.00     0.009 C 
HETATM    9  C   UNL     1     -37.929 -49.246  13.484  1.00  0.00     0.009 C 
ENDBRANCH   6   7
ENDBRANCH   5   6
BRANCH   5  10
HETATM   10  N   UNL     1     -39.917 -52.295  13.992  1.00  0.00    -0.339 N 
HETATM   11  C   UNL     1     -40.383 -51.522  15.140  1.00  0.00     0.127 C 
HETATM   12  C   UNL     1     -39.457 -51.690  16.336  1.00  0.00     0.020 C 
HETATM   13  C   UNL     1     -39.274 -53.166  16.661  1.00  0.00     0.011 C 
HETATM   14  C   UNL     1     -38.861 -53.955  15.429  1.00  0.00     0.103 C 
HETATM   15  C   UNL     1     -39.704 -53.655  14.204  1.00  0.00     0.220 C 
HETATM   16  O   UNL     1     -40.032 -54.522  13.398  1.00  0.00    -0.273 OA
ENDBRANCH   5  10
ENDBRANCH   1   5
BRANCH   3  17
HETATM   17  C   UNL     1     -43.882 -53.135  12.173  1.00  0.00     0.127 C 
BRANCH  17  18
HETATM   18  C   UNL     1     -44.511 -54.076  13.220  1.00  0.00     0.059 C 
BRANCH  18  19
HETATM   19  C   UNL     1     -45.475 -53.329  14.097  1.00  0.00    -0.041 A 
HETATM   20  C   UNL     1     -46.049 -52.129  13.678  1.00  0.00     0.010 A 
HETATM   21  C   UNL     1     -46.834 -51.394  14.562  1.00  0.00     0.025 A 
HETATM   22  C   UNL     1     -47.028 -51.879  15.850  1.00  0.00     0.005 A 
HETATM   23  C   UNL     1     -47.766 -51.070  16.873  1.00  0.00     0.068 C 
HETATM   24  N   UNL     1     -46.517 -53.062  16.266  1.00  0.00    -0.369 N 
HETATM   25  C   UNL     1     -45.761 -53.758  15.388  1.00  0.00     0.095 A 
ATOM     26  HN  UNL     1     -46.696 -53.414  17.206  1.00  0.00     0.165 HD
ENDBRANCH  18  19
ENDBRANCH  17  18
ENDBRANCH   3  17
TORSDOF 7
ENDMDL
MODEL 6
REMARK VINA RESULT:      -6.3      2.198      2.738
REMARK  7 active torsions:
REMARK  status: ('A' for Active; 'I' for Inactive)
REMARK    1  A    between atoms: C_2  and  C_4 
REMARK    2  A    between atoms: C_4  and  C_5 
REMARK    3  A    between atoms: C_5  and  N_6 
REMARK    4  A    between atoms: C_5  and  C_13 
REMARK       I    between atoms: C_13  and  N_15 
REMARK    5  A    between atoms: N_15  and  C_16 
REMARK    6  A    between atoms: C_16  and  C_17 
REMARK    7  A    between atoms: C_17  and  C_18 
ROOT
HETATM    1  C   UNL     1     -42.036 -52.325  13.140  1.00  0.00     0.240 C 
HETATM    2  O   UNL     1     -42.108 -52.152  11.923  1.00  0.00    -0.271 OA
HETATM    3  N   UNL     1     -41.119 -51.662  13.929  1.00  0.00    -0.359 N 
HETATM    4  H   UNL     1     -40.847 -52.140  14.792  1.00  0.00     0.162 HD
ENDROOT
BRANCH   1   5
HETATM    5  C   UNL     1     -42.914 -53.341  13.892  1.00  0.00     0.179 C 
BRANCH   5   6
HETATM    6  C   UNL     1     -42.160 -53.836  15.145  1.00  0.00     0.039 C 
BRANCH   6   7
HETATM    7  C   UNL     1     -42.944 -54.787  16.070  1.00  0.00    -0.020 C 
HETATM    8  C   UNL     1     -42.162 -56.053  16.417  1.00  0.00     0.009 C 
HETATM    9  C   UNL     1     -43.312 -54.042  17.358  1.00  0.00     0.009 C 
ENDBRANCH   6   7
ENDBRANCH   5   6
BRANCH   5  10
HETATM   10  N   UNL     1     -44.237 -52.776  14.201  1.00  0.00    -0.339 N 
HETATM   11  C   UNL     1     -44.346 -51.363  14.555  1.00  0.00     0.127 C 
HETATM   12  C   UNL     1     -45.581 -51.095  15.402  1.00  0.00     0.020 C 
HETATM   13  C   UNL     1     -46.828 -51.619  14.702  1.00  0.00     0.011 C 
HETATM   14  C   UNL     1     -46.655 -53.070  14.281  1.00  0.00     0.103 C 
HETATM   15  C   UNL     1     -45.342 -53.345  13.572  1.00  0.00     0.220 C 
HETATM   16  O   UNL     1     -45.253 -54.122  12.625  1.00  0.00    -0.273 OA
ENDBRANCH   5  10
ENDBRANCH   1   5
BRANCH   3  17
HETATM   17  C   UNL     1     -40.192 -50.704  13.355  1.00  0.00     0.127 C 
BRANCH  17  18
HETATM   18  C   UNL     1     -40.600 -49.238  13.605  1.00  0.00     0.059 C 
BRANCH  18  19
HETATM   19  C   UNL     1     -41.311 -48.672  12.408  1.00  0.00    -0.041 A 
HETATM   20  C   UNL     1     -42.516 -47.983  12.547  1.00  0.00     0.010 A 
HETATM   21  C   UNL     1     -43.217 -47.584  11.412  1.00  0.00     0.025 A 
HETATM   22  C   UNL     1     -42.694 -47.886  10.160  1.00  0.00     0.005 A 
HETATM   23  C   UNL     1     -43.465 -47.584   8.911  1.00  0.00     0.068 C 
HETATM   24  N   UNL     1     -41.506 -48.516  10.000  1.00  0.00    -0.369 N 
HETATM   25  C   UNL     1     -40.843 -48.889  11.118  1.00  0.00     0.095 A 
ATOM     26  HN  UNL     1     -41.125 -48.701   9.073  1.00  0.00     0.165 HD
ENDBRANCH  18  19
ENDBRANCH  17  18
ENDBRANCH   3  17
TORSDOF 7
ENDMDL
MODEL 7
REMARK VINA RESULT:      -6.2      2.427      4.575
REMARK  7 active torsions:
REMARK  status: ('A' for Active; 'I' for Inactive)
REMARK    1  A    between atoms: C_2  and  C_4 
REMARK    2  A    between atoms: C_4  and  C_5 
REMARK    3  A    between atoms: C_5  and  N_6 
REMARK    4  A    between atoms: C_5  and  C_13 
REMARK       I    between atoms: C_13  and  N_15 
REMARK    5  A    between atoms: N_15  and  C_16 
REMARK    6  A    between atoms: C_16  and  C_17 
REMARK    7  A    between atoms: C_17  and  C_18 
ROOT
HETATM    1  C   UNL     1     -42.952 -49.763  14.643  1.00  0.00     0.240 C 
HETATM    2  O   UNL     1     -42.326 -49.509  15.672  1.00  0.00    -0.271 OA
HETATM    3  N   UNL     1     -43.163 -48.824  13.654  1.00  0.00    -0.359 N 
HETATM    4  H   UNL     1     -43.995 -48.966  13.076  1.00  0.00     0.162 HD
ENDROOT
BRANCH   1   5
HETATM    5  C   UNL     1     -43.617 -51.127  14.385  1.00  0.00     0.179 C 
BRANCH   5   6
HETATM    6  C   UNL     1     -44.706 -50.966  13.303  1.00  0.00     0.039 C 
BRANCH   6   7
HETATM    7  C   UNL     1     -45.969 -51.832  13.485  1.00  0.00    -0.020 C 
HETATM    8  C   UNL     1     -46.810 -51.405  14.687  1.00  0.00     0.009 C 
HETATM    9  C   UNL     1     -46.816 -51.754  12.210  1.00  0.00     0.009 C 
ENDBRANCH   6   7
ENDBRANCH   5   6
BRANCH   5  10
HETATM   10  N   UNL     1     -42.616 -52.152  14.048  1.00  0.00    -0.339 N 
HETATM   11  C   UNL     1     -41.451 -51.777  13.251  1.00  0.00     0.127 C 
HETATM   12  C   UNL     1     -40.882 -52.973  12.501  1.00  0.00     0.020 C 
HETATM   13  C   UNL     1     -40.587 -54.113  13.467  1.00  0.00     0.011 C 
HETATM   14  C   UNL     1     -41.796 -54.429  14.333  1.00  0.00     0.103 C 
HETATM   15  C   UNL     1     -42.442 -53.202  14.947  1.00  0.00     0.220 C 
HETATM   16  O   UNL     1     -42.902 -53.197  16.086  1.00  0.00    -0.273 OA
ENDBRANCH   5  10
ENDBRANCH   1   5
BRANCH   3  17
HETATM   17  C   UNL     1     -42.634 -47.478  13.776  1.00  0.00     0.127 C 
BRANCH  17  18
HETATM   18  C   UNL     1     -41.771 -47.053  12.572  1.00  0.00     0.059 C 
BRANCH  18  19
HETATM   19  C   UNL     1     -40.650 -48.029  12.349  1.00  0.00    -0.041 A 
HETATM   20  C   UNL     1     -39.561 -48.086  13.219  1.00  0.00     0.010 A 
HETATM   21  C   UNL     1     -38.478 -48.906  12.915  1.00  0.00     0.025 A 
HETATM   22  C   UNL     1     -38.511 -49.655  11.744  1.00  0.00     0.005 A 
HETATM   23  C   UNL     1     -37.323 -50.461  11.313  1.00  0.00     0.068 C 
HETATM   24  N   UNL     1     -39.575 -49.649  10.906  1.00  0.00    -0.369 N 
HETATM   25  C   UNL     1     -40.615 -48.846  11.226  1.00  0.00     0.095 A 
ATOM     26  HN  UNL     1     -39.591 -50.228  10.067  1.00  0.00     0.165 HD
ENDBRANCH  18  19
ENDBRANCH  17  18
ENDBRANCH   3  17
TORSDOF 7
ENDMDL
MODEL 8
REMARK VINA RESULT:      -5.9      2.929      8.210
REMARK  7 active torsions:
REMARK  status: ('A' for Active; 'I' for Inactive)
REMARK    1  A    between atoms: C_2  and  C_4 
REMARK    2  A    between atoms: C_4  and  C_5 
REMARK    3  A    between atoms: C_5  and  N_6 
REMARK    4  A    between atoms: C_5  and  C_13 
REMARK       I    between atoms: C_13  and  N_15 
REMARK    5  A    between atoms: N_15  and  C_16 
REMARK    6  A    between atoms: C_16  and  C_17 
REMARK    7  A    between atoms: C_17  and  C_18 
ROOT
HETATM    1  C   UNL     1     -41.321 -48.112  11.152  1.00  0.00     0.240 C 
HETATM    2  O   UNL     1     -40.132 -47.944  11.424  1.00  0.00    -0.271 OA
HETATM    3  N   UNL     1     -41.945 -49.335  11.286  1.00  0.00    -0.359 N 
HETATM    4  H   UNL     1     -42.753 -49.492  10.678  1.00  0.00     0.162 HD
ENDROOT
BRANCH   1   5
HETATM    5  C   UNL     1     -42.212 -46.997  10.574  1.00  0.00     0.179 C 
BRANCH   5   6
HETATM    6  C   UNL     1     -43.660 -47.516  10.449  1.00  0.00     0.039 C 
BRANCH   6   7
HETATM    7  C   UNL     1     -44.372 -47.208   9.117  1.00  0.00    -0.020 C 
HETATM    8  C   UNL     1     -44.631 -45.716   8.916  1.00  0.00     0.009 C 
HETATM    9  C   UNL     1     -43.521 -47.743   7.961  1.00  0.00     0.009 C 
ENDBRANCH   6   7
ENDBRANCH   5   6
BRANCH   5  10
HETATM   10  N   UNL     1     -42.106 -45.765  11.372  1.00  0.00    -0.339 N 
HETATM   11  C   UNL     1     -42.250 -45.840  12.824  1.00  0.00     0.127 C 
HETATM   12  C   UNL     1     -42.720 -44.515  13.406  1.00  0.00     0.020 C 
HETATM   13  C   UNL     1     -41.797 -43.386  12.968  1.00  0.00     0.011 C 
HETATM   14  C   UNL     1     -41.610 -43.381  11.459  1.00  0.00     0.103 C 
HETATM   15  C   UNL     1     -41.293 -44.747  10.881  1.00  0.00     0.220 C 
HETATM   16  O   UNL     1     -40.499 -44.905   9.957  1.00  0.00    -0.273 OA
ENDBRANCH   5  10
ENDBRANCH   1   5
BRANCH   3  17
HETATM   17  C   UNL     1     -41.223 -50.494  11.777  1.00  0.00     0.127 C 
BRANCH  17  18
HETATM   18  C   UNL     1     -42.112 -51.477  12.564  1.00  0.00     0.059 C 
BRANCH  18  19
HETATM   19  C   UNL     1     -41.276 -52.524  13.245  1.00  0.00    -0.041 A 
HETATM   20  C   UNL     1     -41.865 -53.630  13.858  1.00  0.00     0.010 A 
HETATM   21  C   UNL     1     -41.078 -54.512  14.592  1.00  0.00     0.025 A 
HETATM   22  C   UNL     1     -39.713 -54.267  14.695  1.00  0.00     0.005 A 
HETATM   23  C   UNL     1     -38.844 -55.120  15.569  1.00  0.00     0.068 C 
HETATM   24  N   UNL     1     -39.112 -53.226  14.074  1.00  0.00    -0.369 N 
HETATM   25  C   UNL     1     -39.898 -52.385  13.364  1.00  0.00     0.095 A 
ATOM     26  HN  UNL     1     -38.105 -53.081  14.138  1.00  0.00     0.165 HD
ENDBRANCH  18  19
ENDBRANCH  17  18
ENDBRANCH   3  17
TORSDOF 7
ENDMDL
MODEL 9
REMARK VINA RESULT:      -5.9      2.242      2.890
REMARK  7 active torsions:
REMARK  status: ('A' for Active; 'I' for Inactive)
REMARK    1  A    between atoms: C_2  and  C_4 
REMARK    2  A    between atoms: C_4  and  C_5 
REMARK    3  A    between atoms: C_5  and  N_6 
REMARK    4  A    between atoms: C_5  and  C_13 
REMARK       I    between atoms: C_13  and  N_15 
REMARK    5  A    between atoms: N_15  and  C_16 
REMARK    6  A    between atoms: C_16  and  C_17 
REMARK    7  A    between atoms: C_17  and  C_18 
ROOT
HETATM    1  C   UNL     1     -42.413 -50.487  13.426  1.00  0.00     0.240 C 
HETATM    2  O   UNL     1     -41.919 -49.750  14.278  1.00  0.00    -0.271 OA
HETATM    3  N   UNL     1     -42.671 -50.062  12.138  1.00  0.00    -0.359 N 
HETATM    4  H   UNL     1     -43.423 -50.554  11.649  1.00  0.00     0.162 HD
ENDROOT
BRANCH   1   5
HETATM    5  C   UNL     1     -42.854 -51.932  13.723  1.00  0.00     0.179 C 
BRANCH   5   6
HETATM    6  C   UNL     1     -41.890 -52.557  14.754  1.00  0.00     0.039 C 
BRANCH   6   7
HETATM    7  C   UNL     1     -41.510 -54.031  14.512  1.00  0.00    -0.020 C 
HETATM    8  C   UNL     1     -42.578 -55.006  15.007  1.00  0.00     0.009 C 
HETATM    9  C   UNL     1     -41.271 -54.247  13.014  1.00  0.00     0.009 C 
ENDBRANCH   6   7
ENDBRANCH   5   6
BRANCH   5  10
HETATM   10  N   UNL     1     -44.263 -51.983  14.147  1.00  0.00    -0.339 N 
HETATM   11  C   UNL     1     -44.848 -50.825  14.818  1.00  0.00     0.127 C 
HETATM   12  C   UNL     1     -46.023 -51.227  15.697  1.00  0.00     0.020 C 
HETATM   13  C   UNL     1     -47.047 -52.013  14.888  1.00  0.00     0.011 C 
HETATM   14  C   UNL     1     -46.393 -53.165  14.143  1.00  0.00     0.103 C 
HETATM   15  C   UNL     1     -45.132 -52.771  13.397  1.00  0.00     0.220 C 
HETATM   16  O   UNL     1     -44.844 -53.233  12.296  1.00  0.00    -0.273 OA
ENDBRANCH   5  10
ENDBRANCH   1   5
BRANCH   3  17
HETATM   17  C   UNL     1     -42.352 -48.710  11.719  1.00  0.00     0.127 C 
BRANCH  17  18
HETATM   18  C   UNL     1     -41.020 -48.610  10.949  1.00  0.00     0.059 C 
BRANCH  18  19
HETATM   19  C   UNL     1     -39.872 -48.398  11.895  1.00  0.00    -0.041 A 
HETATM   20  C   UNL     1     -38.857 -49.347  12.020  1.00  0.00     0.010 A 
HETATM   21  C   UNL     1     -37.878 -49.185  12.996  1.00  0.00     0.025 A 
HETATM   22  C   UNL     1     -37.938 -48.073  13.828  1.00  0.00     0.005 A 
HETATM   23  C   UNL     1     -36.978 -47.915  14.969  1.00  0.00     0.068 C 
HETATM   24  N   UNL     1     -38.888 -47.117  13.699  1.00  0.00    -0.369 N 
HETATM   25  C   UNL     1     -39.825 -47.297  12.741  1.00  0.00     0.095 A 
ATOM     26  HN  UNL     1     -38.896 -46.295  14.301  1.00  0.00     0.165 HD
ENDBRANCH  18  19
ENDBRANCH  17  18
ENDBRANCH   3  17
TORSDOF 7
ENDMDL
