MODEL 1
REMARK VINA RESULT:      -6.6      0.000      0.000
REMARK  6 active torsions:
REMARK  status: ('A' for Active; 'I' for Inactive)
REMARK    1  A    between atoms: N_2  and  C_4 
REMARK    2  A    between atoms: N_9  and  C_10 
REMARK    3  A    between atoms: C_10  and  C_11 
REMARK       I    between atoms: C_11  and  N_13 
REMARK    4  A    between atoms: N_13  and  C_14 
REMARK    5  A    between atoms: C_14  and  C_15 
REMARK    6  A    between atoms: C_15  and  C_16 
ROOT
HETATM    1  C   UNL     1     -42.206 -48.820  11.760  1.00  0.00     0.235 C 
HETATM    2  O   UNL     1     -42.478 -48.226  12.802  1.00  0.00    -0.272 OA
HETATM    3  N   UNL     1     -42.116 -50.197  11.682  1.00  0.00    -0.359 N 
HETATM    4  H   UNL     1     -41.587 -50.608  10.915  1.00  0.00     0.162 HD
ENDROOT
BRANCH   1   5
HETATM    5  C   UNL     1     -41.929 -48.057  10.467  1.00  0.00     0.234 C 
BRANCH   5   6
HETATM    6  N   UNL     1     -43.051 -47.235  10.017  1.00  0.00    -0.314 N 
HETATM    7  C   UNL     1     -42.832 -45.864   9.888  1.00  0.00     0.247 A 
HETATM    8  C   UNL     1     -43.933 -45.087   9.247  1.00  0.00     0.077 A 
HETATM    9  O   UNL     1     -41.808 -45.294  10.243  1.00  0.00    -0.268 OA
HETATM   10  C   UNL     1     -45.067 -45.696   8.871  1.00  0.00     0.043 A 
HETATM   11  C   UNL     1     -45.243 -47.113   9.100  1.00  0.00     0.118 A 
HETATM   12  C   UNL     1     -44.255 -47.838   9.656  1.00  0.00     0.130 A 
BRANCH  11  13
HETATM   13  N   UNL     1     -46.464 -47.805   8.679  1.00  0.00    -0.114 N 
HETATM   14  O   UNL     1     -47.533 -47.390   9.142  1.00  0.00    -0.532 OA
HETATM   15  O   UNL     1     -46.363 -48.747   7.880  1.00  0.00    -0.532 OA
ENDBRANCH  11  13
ENDBRANCH   5   6
ENDBRANCH   1   5
BRANCH   3  16
HETATM   16  C   UNL     1     -42.428 -50.984  12.863  1.00  0.00     0.127 C 
BRANCH  16  17
HETATM   17  C   UNL     1     -42.979 -52.386  12.594  1.00  0.00     0.053 C 
BRANCH  17  18
HETATM   18  C   UNL     1     -44.304 -52.584  13.316  1.00  0.00    -0.082 A 
HETATM   19  C   UNL     1     -44.714 -53.803  13.693  1.00  0.00    -0.024 A 
HETATM   20  C   UNL     1     -46.029 -54.106  14.326  1.00  0.00     0.027 A 
HETATM   21  C   UNL     1     -46.944 -52.926  14.634  1.00  0.00     0.004 A 
HETATM   22  C   UNL     1     -46.481 -51.524  14.248  1.00  0.00     0.005 A 
HETATM   23  C   UNL     1     -45.140 -51.356  13.532  1.00  0.00     0.034 A 
ENDBRANCH  17  18
ENDBRANCH  16  17
ENDBRANCH   3  16
TORSDOF 6
ENDMDL
MODEL 2
REMARK VINA RESULT:      -6.4      3.512      5.064
REMARK  6 active torsions:
REMARK  status: ('A' for Active; 'I' for Inactive)
REMARK    1  A    between atoms: N_2  and  C_4 
REMARK    2  A    between atoms: N_9  and  C_10 
REMARK    3  A    between atoms: C_10  and  C_11 
REMARK       I    between atoms: C_11  and  N_13 
REMARK    4  A    between atoms: N_13  and  C_14 
REMARK    5  A    between atoms: C_14  and  C_15 
REMARK    6  A    between atoms: C_15  and  C_16 
ROOT
HETATM    1  C   UNL     1     -42.276 -52.768  12.769  1.00  0.00     0.235 C 
HETATM    2  O   UNL     1     -42.229 -52.866  13.994  1.00  0.00    -0.272 OA
HETATM    3  N   UNL     1     -43.457 -52.842  12.054  1.00  0.00    -0.359 N 
HETATM    4  H   UNL     1     -43.414 -53.077  11.064  1.00  0.00     0.162 HD
ENDROOT
BRANCH   1   5
HETATM    5  C   UNL     1     -41.006 -52.572  11.944  1.00  0.00     0.234 C 
BRANCH   5   6
HETATM    6  N   UNL     1     -40.414 -51.244  12.083  1.00  0.00    -0.314 N 
HETATM    7  C   UNL     1     -39.187 -51.153  12.740  1.00  0.00     0.247 A 
HETATM    8  C   UNL     1     -38.522 -49.818  12.696  1.00  0.00     0.077 A 
HETATM    9  O   UNL     1     -38.640 -52.089  13.309  1.00  0.00    -0.268 OA
HETATM   10  C   UNL     1     -39.119 -48.780  12.092  1.00  0.00     0.043 A 
HETATM   11  C   UNL     1     -40.424 -48.940  11.490  1.00  0.00     0.118 A 
HETATM   12  C   UNL     1     -41.032 -50.140  11.498  1.00  0.00     0.130 A 
BRANCH  11  13
HETATM   13  N   UNL     1     -41.087 -47.826  10.805  1.00  0.00    -0.114 N 
HETATM   14  O   UNL     1     -40.642 -46.691  11.017  1.00  0.00    -0.532 OA
HETATM   15  O   UNL     1     -42.035 -48.078  10.049  1.00  0.00    -0.532 OA
ENDBRANCH  11  13
ENDBRANCH   5   6
ENDBRANCH   1   5
BRANCH   3  16
HETATM   16  C   UNL     1     -44.707 -52.966  12.785  1.00  0.00     0.127 C 
BRANCH  16  17
HETATM   17  C   UNL     1     -45.523 -51.678  12.919  1.00  0.00     0.053 C 
BRANCH  17  18
HETATM   18  C   UNL     1     -45.803 -51.376  14.383  1.00  0.00    -0.082 A 
HETATM   19  C   UNL     1     -46.998 -51.641  14.931  1.00  0.00    -0.024 A 
HETATM   20  C   UNL     1     -47.392 -51.302  16.328  1.00  0.00     0.027 A 
HETATM   21  C   UNL     1     -46.329 -50.674  17.221  1.00  0.00     0.004 A 
HETATM   22  C   UNL     1     -44.949 -50.399  16.630  1.00  0.00     0.005 A 
HETATM   23  C   UNL     1     -44.695 -50.723  15.157  1.00  0.00     0.034 A 
ENDBRANCH  17  18
ENDBRANCH  16  17
ENDBRANCH   3  16
TORSDOF 6
ENDMDL
MODEL 3
REMARK VINA RESULT:      -6.3      1.923      2.563
REMARK  6 active torsions:
REMARK  status: ('A' for Active; 'I' for Inactive)
REMARK    1  A    between atoms: N_2  and  C_4 
REMARK    2  A    between atoms: N_9  and  C_10 
REMARK    3  A    between atoms: C_10  and  C_11 
REMARK       I    between atoms: C_11  and  N_13 
REMARK    4  A    between atoms: N_13  and  C_14 
REMARK    5  A    between atoms: C_14  and  C_15 
REMARK    6  A    between atoms: C_15  and  C_16 
ROOT
HETATM    1  C   UNL     1     -41.262 -50.667  12.136  1.00  0.00     0.235 C 
HETATM    2  O   UNL     1     -41.361 -50.270  13.296  1.00  0.00    -0.272 OA
HETATM    3  N   UNL     1     -41.798 -51.865  11.703  1.00  0.00    -0.359 N 
HETATM    4  H   UNL     1     -41.424 -52.289  10.857  1.00  0.00     0.162 HD
ENDROOT
BRANCH   1   5
HETATM    5  C   UNL     1     -40.512 -49.851  11.085  1.00  0.00     0.234 C 
BRANCH   5   6
HETATM    6  N   UNL     1     -40.955 -48.461  10.993  1.00  0.00    -0.314 N 
HETATM    7  C   UNL     1     -40.168 -47.493  11.615  1.00  0.00     0.247 A 
HETATM    8  C   UNL     1     -40.542 -46.075  11.341  1.00  0.00     0.077 A 
HETATM    9  O   UNL     1     -39.206 -47.743  12.331  1.00  0.00    -0.268 OA
HETATM   10  C   UNL     1     -41.604 -45.788  10.573  1.00  0.00     0.043 A 
HETATM   11  C   UNL     1     -42.411 -46.852  10.017  1.00  0.00     0.118 A 
HETATM   12  C   UNL     1     -42.079 -48.138  10.234  1.00  0.00     0.130 A 
BRANCH  11  13
HETATM   13  N   UNL     1     -43.563 -46.563   9.159  1.00  0.00    -0.114 N 
HETATM   14  O   UNL     1     -43.691 -45.398   8.763  1.00  0.00    -0.532 OA
HETATM   15  O   UNL     1     -44.329 -47.492   8.867  1.00  0.00    -0.532 OA
ENDBRANCH  11  13
ENDBRANCH   5   6
ENDBRANCH   1   5
BRANCH   3  16
HETATM   16  C   UNL     1     -42.576 -52.658  12.640  1.00  0.00     0.127 C 
BRANCH  16  17
HETATM   17  C   UNL     1     -43.952 -53.106  12.140  1.00  0.00     0.053 C 
BRANCH  17  18
HETATM   18  C   UNL     1     -45.002 -52.908  13.224  1.00  0.00    -0.082 A 
HETATM   19  C   UNL     1     -45.320 -53.897  14.072  1.00  0.00    -0.024 A 
HETATM   20  C   UNL     1     -46.390 -53.826  15.106  1.00  0.00     0.027 A 
HETATM   21  C   UNL     1     -47.127 -52.500  15.258  1.00  0.00     0.004 A 
HETATM   22  C   UNL     1     -46.755 -51.348  14.330  1.00  0.00     0.005 A 
HETATM   23  C   UNL     1     -45.690 -51.574  13.256  1.00  0.00     0.034 A 
ENDBRANCH  17  18
ENDBRANCH  16  17
ENDBRANCH   3  16
TORSDOF 6
ENDMDL
MODEL 4
REMARK VINA RESULT:      -6.1      3.914      8.224
REMARK  6 active torsions:
REMARK  status: ('A' for Active; 'I' for Inactive)
REMARK    1  A    between atoms: N_2  and  C_4 
REMARK    2  A    between atoms: N_9  and  C_10 
REMARK    3  A    between atoms: C_10  and  C_11 
REMARK       I    between atoms: C_11  and  N_13 
REMARK    4  A    between atoms: N_13  and  C_14 
REMARK    5  A    between atoms: C_14  and  C_15 
REMARK    6  A    between atoms: C_15  and  C_16 
ROOT
HETATM    1  C   UNL     1     -41.064 -51.214  12.034  1.00  0.00     0.235 C 
HETATM    2  O   UNL     1     -41.372 -50.794  13.149  1.00  0.00    -0.272 OA
HETATM    3  N   UNL     1     -40.724 -50.382  10.985  1.00  0.00    -0.359 N 
HETATM    4  H   UNL     1     -40.795 -50.741  10.035  1.00  0.00     0.162 HD
ENDROOT
BRANCH   1   5
HETATM    5  C   UNL     1     -41.054 -52.711  11.732  1.00  0.00     0.234 C 
BRANCH   5   6
HETATM    6  N   UNL     1     -41.506 -53.540  12.848  1.00  0.00    -0.314 N 
HETATM    7  C   UNL     1     -40.548 -53.946  13.776  1.00  0.00     0.247 A 
HETATM    8  C   UNL     1     -41.071 -54.624  14.998  1.00  0.00     0.077 A 
HETATM    9  O   UNL     1     -39.344 -53.757  13.651  1.00  0.00    -0.268 OA
HETATM   10  C   UNL     1     -42.385 -54.853  15.139  1.00  0.00     0.043 A 
HETATM   11  C   UNL     1     -43.309 -54.460  14.098  1.00  0.00     0.118 A 
HETATM   12  C   UNL     1     -42.862 -53.826  12.998  1.00  0.00     0.130 A 
BRANCH  11  13
HETATM   13  N   UNL     1     -44.751 -54.680  14.239  1.00  0.00    -0.114 N 
HETATM   14  O   UNL     1     -45.405 -54.805  13.196  1.00  0.00    -0.532 OA
HETATM   15  O   UNL     1     -45.230 -54.743  15.380  1.00  0.00    -0.532 OA
ENDBRANCH  11  13
ENDBRANCH   5   6
ENDBRANCH   1   5
BRANCH   3  16
HETATM   16  C   UNL     1     -40.655 -48.950  11.226  1.00  0.00     0.127 C 
BRANCH  16  17
HETATM   17  C   UNL     1     -41.682 -48.105  10.469  1.00  0.00     0.053 C 
BRANCH  17  18
HETATM   18  C   UNL     1     -41.459 -46.625  10.745  1.00  0.00    -0.082 A 
HETATM   19  C   UNL     1     -42.492 -45.781  10.879  1.00  0.00    -0.024 A 
HETATM   20  C   UNL     1     -42.373 -44.307  11.065  1.00  0.00     0.027 A 
HETATM   21  C   UNL     1     -40.968 -43.729  11.186  1.00  0.00     0.004 A 
HETATM   22  C   UNL     1     -39.777 -44.678  11.075  1.00  0.00     0.005 A 
HETATM   23  C   UNL     1     -40.033 -46.161  10.807  1.00  0.00     0.034 A 
ENDBRANCH  17  18
ENDBRANCH  16  17
ENDBRANCH   3  16
TORSDOF 6
ENDMDL
MODEL 5
REMARK VINA RESULT:      -6.0      5.554      7.788
REMARK  6 active torsions:
REMARK  status: ('A' for Active; 'I' for Inactive)
REMARK    1  A    between atoms: N_2  and  C_4 
REMARK    2  A    between atoms: N_9  and  C_10 
REMARK    3  A    between atoms: C_10  and  C_11 
REMARK       I    between atoms: C_11  and  N_13 
REMARK    4  A    between atoms: N_13  and  C_14 
REMARK    5  A    between atoms: C_14  and  C_15 
REMARK    6  A    between atoms: C_15  and  C_16 
ROOT
HETATM    1  C   UNL     1     -43.638 -53.430  17.650  1.00  0.00     0.235 C 
HETATM    2  O   UNL     1     -42.788 -52.695  18.151  1.00  0.00    -0.272 OA
HETATM    3  N   UNL     1     -44.993 -53.161  17.707  1.00  0.00    -0.359 N 
HETATM    4  H   UNL     1     -45.648 -53.929  17.575  1.00  0.00     0.162 HD
ENDROOT
BRANCH   1   5
HETATM    5  C   UNL     1     -43.241 -54.720  16.934  1.00  0.00     0.234 C 
BRANCH   5   6
HETATM    6  N   UNL     1     -43.070 -54.562  15.491  1.00  0.00    -0.314 N 
HETATM    7  C   UNL     1     -44.216 -54.609  14.698  1.00  0.00     0.247 A 
HETATM    8  C   UNL     1     -44.029 -54.255  13.261  1.00  0.00     0.077 A 
HETATM    9  O   UNL     1     -45.331 -54.893  15.117  1.00  0.00    -0.268 OA
HETATM   10  C   UNL     1     -42.810 -53.959  12.786  1.00  0.00     0.043 A 
HETATM   11  C   UNL     1     -41.658 -53.998  13.660  1.00  0.00     0.118 A 
HETATM   12  C   UNL     1     -41.807 -54.292  14.965  1.00  0.00     0.130 A 
BRANCH  11  13
HETATM   13  N   UNL     1     -40.320 -53.658  13.170  1.00  0.00    -0.114 N 
HETATM   14  O   UNL     1     -40.241 -52.742  12.341  1.00  0.00    -0.532 OA
HETATM   15  O   UNL     1     -39.350 -54.287  13.616  1.00  0.00    -0.532 OA
ENDBRANCH  11  13
ENDBRANCH   5   6
ENDBRANCH   1   5
BRANCH   3  16
HETATM   16  C   UNL     1     -45.430 -51.919  18.321  1.00  0.00     0.127 C 
BRANCH  16  17
HETATM   17  C   UNL     1     -46.449 -51.109  17.515  1.00  0.00     0.053 C 
BRANCH  17  18
HETATM   18  C   UNL     1     -46.051 -51.065  16.047  1.00  0.00    -0.082 A 
HETATM   19  C   UNL     1     -46.890 -51.480  15.088  1.00  0.00    -0.024 A 
HETATM   20  C   UNL     1     -46.560 -51.555  13.636  1.00  0.00     0.027 A 
HETATM   21  C   UNL     1     -45.188 -51.051  13.205  1.00  0.00     0.004 A 
HETATM   22  C   UNL     1     -44.230 -50.537  14.277  1.00  0.00     0.005 A 
HETATM   23  C   UNL     1     -44.662 -50.585  15.743  1.00  0.00     0.034 A 
ENDBRANCH  17  18
ENDBRANCH  16  17
ENDBRANCH   3  16
TORSDOF 6
ENDMDL
MODEL 6
REMARK VINA RESULT:      -5.9      4.238      5.558
REMARK  6 active torsions:
REMARK  status: ('A' for Active; 'I' for Inactive)
REMARK    1  A    between atoms: N_2  and  C_4 
REMARK    2  A    between atoms: N_9  and  C_10 
REMARK    3  A    between atoms: C_10  and  C_11 
REMARK       I    between atoms: C_11  and  N_13 
REMARK    4  A    between atoms: N_13  and  C_14 
REMARK    5  A    between atoms: C_14  and  C_15 
REMARK    6  A    between atoms: C_15  and  C_16 
ROOT
HETATM    1  C   UNL     1     -40.451 -53.098  13.321  1.00  0.00     0.235 C 
HETATM    2  O   UNL     1     -40.393 -53.364  12.121  1.00  0.00    -0.272 OA
HETATM    3  N   UNL     1     -41.508 -53.482  14.125  1.00  0.00    -0.359 N 
HETATM    4  H   UNL     1     -41.666 -52.978  14.996  1.00  0.00     0.162 HD
ENDROOT
BRANCH   1   5
HETATM    5  C   UNL     1     -39.345 -52.298  14.006  1.00  0.00     0.234 C 
BRANCH   5   6
HETATM    6  N   UNL     1     -39.091 -50.998  13.388  1.00  0.00    -0.314 N 
HETATM    7  C   UNL     1     -37.939 -50.869  12.613  1.00  0.00     0.247 A 
HETATM    8  C   UNL     1     -37.810 -49.596  11.845  1.00  0.00     0.077 A 
HETATM    9  O   UNL     1     -37.073 -51.730  12.518  1.00  0.00    -0.268 OA
HETATM   10  C   UNL     1     -38.742 -48.639  11.953  1.00  0.00     0.043 A 
HETATM   11  C   UNL     1     -39.877 -48.822  12.832  1.00  0.00     0.118 A 
HETATM   12  C   UNL     1     -40.025 -49.971  13.516  1.00  0.00     0.130 A 
BRANCH  11  13
HETATM   13  N   UNL     1     -40.919 -47.799  12.951  1.00  0.00    -0.114 N 
HETATM   14  O   UNL     1     -41.041 -47.246  14.051  1.00  0.00    -0.532 OA
HETATM   15  O   UNL     1     -41.604 -47.535  11.953  1.00  0.00    -0.532 OA
ENDBRANCH  11  13
ENDBRANCH   5   6
ENDBRANCH   1   5
BRANCH   3  16
HETATM   16  C   UNL     1     -42.562 -54.298  13.547  1.00  0.00     0.127 C 
BRANCH  16  17
HETATM   17  C   UNL     1     -43.743 -54.602  14.473  1.00  0.00     0.053 C 
BRANCH  17  18
HETATM   18  C   UNL     1     -44.764 -53.474  14.419  1.00  0.00    -0.082 A 
HETATM   19  C   UNL     1     -45.179 -52.860  15.537  1.00  0.00    -0.024 A 
HETATM   20  C   UNL     1     -46.234 -51.809  15.593  1.00  0.00     0.027 A 
HETATM   21  C   UNL     1     -46.831 -51.346  14.269  1.00  0.00     0.004 A 
HETATM   22  C   UNL     1     -46.344 -52.004  12.980  1.00  0.00     0.005 A 
HETATM   23  C   UNL     1     -45.311 -53.128  13.065  1.00  0.00     0.034 A 
ENDBRANCH  17  18
ENDBRANCH  16  17
ENDBRANCH   3  16
TORSDOF 6
ENDMDL
MODEL 7
REMARK VINA RESULT:      -5.8      2.629      4.009
REMARK  6 active torsions:
REMARK  status: ('A' for Active; 'I' for Inactive)
REMARK    1  A    between atoms: N_2  and  C_4 
REMARK    2  A    between atoms: N_9  and  C_10 
REMARK    3  A    between atoms: C_10  and  C_11 
REMARK       I    between atoms: C_11  and  N_13 
REMARK    4  A    between atoms: N_13  and  C_14 
REMARK    5  A    between atoms: C_14  and  C_15 
REMARK    6  A    between atoms: C_15  and  C_16 
ROOT
HETATM    1  C   UNL     1     -41.728 -50.424  12.311  1.00  0.00     0.235 C 
HETATM    2  O   UNL     1     -41.965 -49.909  13.403  1.00  0.00    -0.272 OA
HETATM    3  N   UNL     1     -42.293 -51.618  11.905  1.00  0.00    -0.359 N 
HETATM    4  H   UNL     1     -41.834 -52.148  11.167  1.00  0.00     0.162 HD
ENDROOT
BRANCH   1   5
HETATM    5  C   UNL     1     -40.763 -49.770  11.325  1.00  0.00     0.234 C 
BRANCH   5   6
HETATM    6  N   UNL     1     -41.033 -48.354  11.088  1.00  0.00    -0.314 N 
HETATM    7  C   UNL     1     -40.171 -47.428  11.675  1.00  0.00     0.247 A 
HETATM    8  C   UNL     1     -40.360 -46.008  11.259  1.00  0.00     0.077 A 
HETATM    9  O   UNL     1     -39.285 -47.720  12.468  1.00  0.00    -0.268 OA
HETATM   10  C   UNL     1     -41.338 -45.673  10.404  1.00  0.00     0.043 A 
HETATM   11  C   UNL     1     -42.234 -46.685   9.890  1.00  0.00     0.118 A 
HETATM   12  C   UNL     1     -42.069 -47.975  10.234  1.00  0.00     0.130 A 
BRANCH  11  13
HETATM   13  N   UNL     1     -43.297 -46.347   8.939  1.00  0.00    -0.114 N 
HETATM   14  O   UNL     1     -43.745 -45.195   8.984  1.00  0.00    -0.532 OA
HETATM   15  O   UNL     1     -43.674 -47.217   8.142  1.00  0.00    -0.532 OA
ENDBRANCH  11  13
ENDBRANCH   5   6
ENDBRANCH   1   5
BRANCH   3  16
HETATM   16  C   UNL     1     -43.267 -52.258  12.773  1.00  0.00     0.127 C 
BRANCH  16  17
HETATM   17  C   UNL     1     -42.988 -53.725  13.108  1.00  0.00     0.053 C 
BRANCH  17  18
HETATM   18  C   UNL     1     -41.723 -53.848  13.945  1.00  0.00    -0.082 A 
HETATM   19  C   UNL     1     -41.687 -53.423  15.216  1.00  0.00    -0.024 A 
HETATM   20  C   UNL     1     -40.476 -53.422  16.084  1.00  0.00     0.027 A 
HETATM   21  C   UNL     1     -39.200 -54.020  15.503  1.00  0.00     0.004 A 
HETATM   22  C   UNL     1     -39.228 -54.546  14.070  1.00  0.00     0.005 A 
HETATM   23  C   UNL     1     -40.516 -54.417  13.257  1.00  0.00     0.034 A 
ENDBRANCH  17  18
ENDBRANCH  16  17
ENDBRANCH   3  16
TORSDOF 6
ENDMDL
MODEL 8
REMARK VINA RESULT:      -5.8      3.783      4.654
REMARK  6 active torsions:
REMARK  status: ('A' for Active; 'I' for Inactive)
REMARK    1  A    between atoms: N_2  and  C_4 
REMARK    2  A    between atoms: N_9  and  C_10 
REMARK    3  A    between atoms: C_10  and  C_11 
REMARK       I    between atoms: C_11  and  N_13 
REMARK    4  A    between atoms: N_13  and  C_14 
REMARK    5  A    between atoms: C_14  and  C_15 
REMARK    6  A    between atoms: C_15  and  C_16 
ROOT
HETATM    1  C   UNL     1     -40.103 -49.901  12.530  1.00  0.00     0.235 C 
HETATM    2  O   UNL     1     -40.946 -49.677  13.398  1.00  0.00    -0.272 OA
HETATM    3  N   UNL     1     -40.141 -51.018  11.717  1.00  0.00    -0.359 N 
HETATM    4  H   UNL     1     -39.282 -51.317  11.260  1.00  0.00     0.162 HD
ENDROOT
BRANCH   1   5
HETATM    5  C   UNL     1     -38.931 -48.949  12.305  1.00  0.00     0.234 C 
BRANCH   5   6
HETATM    6  N   UNL     1     -39.259 -47.545  12.545  1.00  0.00    -0.314 N 
HETATM    7  C   UNL     1     -38.793 -46.969  13.727  1.00  0.00     0.247 A 
HETATM    8  C   UNL     1     -38.979 -45.494  13.850  1.00  0.00     0.077 A 
HETATM    9  O   UNL     1     -38.237 -47.592  14.623  1.00  0.00    -0.268 OA
HETATM   10  C   UNL     1     -39.602 -44.804  12.883  1.00  0.00     0.043 A 
HETATM   11  C   UNL     1     -40.117 -45.486  11.716  1.00  0.00     0.118 A 
HETATM   12  C   UNL     1     -39.940 -46.812  11.574  1.00  0.00     0.130 A 
BRANCH  11  13
HETATM   13  N   UNL     1     -40.782 -44.751  10.637  1.00  0.00    -0.114 N 
HETATM   14  O   UNL     1     -40.481 -43.558  10.502  1.00  0.00    -0.532 OA
HETATM   15  O   UNL     1     -41.588 -45.358   9.919  1.00  0.00    -0.532 OA
ENDBRANCH  11  13
ENDBRANCH   5   6
ENDBRANCH   1   5
BRANCH   3  16
HETATM   16  C   UNL     1     -41.265 -51.931  11.840  1.00  0.00     0.127 C 
BRANCH  16  17
HETATM   17  C   UNL     1     -40.985 -53.219  12.620  1.00  0.00     0.053 C 
BRANCH  17  18
HETATM   18  C   UNL     1     -42.272 -53.768  13.218  1.00  0.00    -0.082 A 
HETATM   19  C   UNL     1     -42.254 -54.536  14.317  1.00  0.00    -0.024 A 
HETATM   20  C   UNL     1     -43.450 -55.188  14.924  1.00  0.00     0.027 A 
HETATM   21  C   UNL     1     -44.803 -54.895  14.288  1.00  0.00     0.004 A 
HETATM   22  C   UNL     1     -44.852 -53.990  13.059  1.00  0.00     0.005 A 
HETATM   23  C   UNL     1     -43.543 -53.446  12.487  1.00  0.00     0.034 A 
ENDBRANCH  17  18
ENDBRANCH  16  17
ENDBRANCH   3  16
TORSDOF 6
ENDMDL
MODEL 9
REMARK VINA RESULT:      -5.8      2.059      3.017
REMARK  6 active torsions:
REMARK  status: ('A' for Active; 'I' for Inactive)
REMARK    1  A    between atoms: N_2  and  C_4 
REMARK    2  A    between atoms: N_9  and  C_10 
REMARK    3  A    between atoms: C_10  and  C_11 
REMARK       I    between atoms: C_11  and  N_13 
REMARK    4  A    between atoms: N_13  and  C_14 
REMARK    5  A    between atoms: C_14  and  C_15 
REMARK    6  A    between atoms: C_15  and  C_16 
ROOT
HETATM    1  C   UNL     1     -39.865 -50.717  11.901  1.00  0.00     0.235 C 
HETATM    2  O   UNL     1     -38.957 -51.322  12.471  1.00  0.00    -0.272 OA
HETATM    3  N   UNL     1     -41.018 -51.337  11.458  1.00  0.00    -0.359 N 
HETATM    4  H   UNL     1     -41.568 -50.882  10.732  1.00  0.00     0.162 HD
ENDROOT
BRANCH   1   5
HETATM    5  C   UNL     1     -39.763 -49.219  11.627  1.00  0.00     0.234 C 
BRANCH   5   6
HETATM    6  N   UNL     1     -41.058 -48.543  11.563  1.00  0.00    -0.314 N 
HETATM    7  C   UNL     1     -41.668 -48.206  12.771  1.00  0.00     0.247 A 
HETATM    8  C   UNL     1     -42.887 -47.353  12.669  1.00  0.00     0.077 A 
HETATM    9  O   UNL     1     -41.250 -48.546  13.871  1.00  0.00    -0.268 OA
HETATM   10  C   UNL     1     -43.365 -46.989  11.470  1.00  0.00     0.043 A 
HETATM   11  C   UNL     1     -42.712 -47.436  10.259  1.00  0.00     0.118 A 
HETATM   12  C   UNL     1     -41.598 -48.187  10.327  1.00  0.00     0.130 A 
BRANCH  11  13
HETATM   13  N   UNL     1     -43.203 -47.034   8.938  1.00  0.00    -0.114 N 
HETATM   14  O   UNL     1     -43.529 -47.939   8.161  1.00  0.00    -0.532 OA
HETATM   15  O   UNL     1     -43.278 -45.824   8.679  1.00  0.00    -0.532 OA
ENDBRANCH  11  13
ENDBRANCH   5   6
ENDBRANCH   1   5
BRANCH   3  16
HETATM   16  C   UNL     1     -41.202 -52.750  11.743  1.00  0.00     0.127 C 
BRANCH  16  17
HETATM   17  C   UNL     1     -41.703 -53.078  13.152  1.00  0.00     0.053 C 
BRANCH  17  18
HETATM   18  C   UNL     1     -43.197 -52.810  13.261  1.00  0.00    -0.082 A 
HETATM   19  C   UNL     1     -44.092 -53.798  13.118  1.00  0.00    -0.024 A 
HETATM   20  C   UNL     1     -45.572 -53.619  13.122  1.00  0.00     0.027 A 
HETATM   21  C   UNL     1     -46.104 -52.216  13.383  1.00  0.00     0.004 A 
HETATM   22  C   UNL     1     -45.103 -51.082  13.588  1.00  0.00     0.005 A 
HETATM   23  C   UNL     1     -43.608 -51.384  13.482  1.00  0.00     0.034 A 
ENDBRANCH  17  18
ENDBRANCH  16  17
ENDBRANCH   3  16
TORSDOF 6
ENDMDL
