MODEL 1
REMARK VINA RESULT:      -6.3      0.000      0.000
REMARK  8 active torsions:
REMARK  status: ('A' for Active; 'I' for Inactive)
REMARK    1  A    between atoms: N_2  and  C_17 
REMARK    2  A    between atoms: C_6  and  N_7 
REMARK    3  A    between atoms: N_9  and  C_25 
REMARK    4  A    between atoms: C_16  and  C_17 
REMARK    5  A    between atoms: C_16  and  C_24 
REMARK    6  A    between atoms: C_24  and  O_28 
REMARK    7  A    between atoms: C_25  and  C_30 
REMARK    8  A    between atoms: O_29  and  C_30 
ROOT
HETATM    1  C   UNL     1     -42.438 -48.246  12.811  1.00  0.00     0.122 A 
HETATM    2  N   UNL     1     -42.138 -46.150  12.320  1.00  0.00    -0.326 N 
HETATM    3  C   UNL     1     -41.852 -47.410  11.873  1.00  0.00     0.140 A 
HETATM    4  N   UNL     1     -43.051 -47.512  13.812  1.00  0.00    -0.346 N 
ATOM      5  HN  UNL     1     -43.533 -47.867  14.637  1.00  0.00     0.167 HD
HETATM    6  C   UNL     1     -42.351 -49.630  12.578  1.00  0.00     0.135 A 
HETATM    7  C   UNL     1     -42.877 -46.259  13.465  1.00  0.00     0.185 A 
HETATM    8  N   UNL     1     -41.164 -47.764  10.776  1.00  0.00    -0.336 N 
ATOM      9  HN  UNL     1     -40.719 -47.110  10.132  1.00  0.00     0.168 HD
HETATM   10  N   UNL     1     -41.697 -50.039  11.456  1.00  0.00    -0.337 N 
ATOM     11  HN  UNL     1     -41.625 -51.031  11.231  1.00  0.00     0.168 HD
HETATM   12  C   UNL     1     -41.145 -49.111  10.647  1.00  0.00     0.183 A 
ENDROOT
BRANCH   6  13
HETATM   13  N   UNL     1     -42.986 -50.535  13.419  1.00  0.00    -0.361 N 
HETATM   14  C   UNL     1     -44.441 -50.602  13.297  1.00  0.00     0.165 C 
HETATM   15  C   UNL     1     -45.024 -51.414  14.503  1.00  0.00     0.168 C 
HETATM   16  N   UNL     1     -44.423 -52.803  14.597  1.00  0.00     0.102 N 
HETATM   17  C   UNL     1     -44.738 -50.633  15.820  1.00  0.00     0.050 C 
HETATM   18  C   UNL     1     -46.563 -51.447  14.369  1.00  0.00     0.050 C 
HETATM   19  C   UNL     1     -42.936 -52.677  14.657  1.00  0.00     0.293 C 
HETATM   20  C   UNL     1     -42.302 -51.830  13.528  1.00  0.00     0.154 C 
BRANCH  16  21
HETATM   21  C   UNL     1     -44.824 -53.675  13.464  1.00  0.00     0.299 C 
BRANCH  21  22
HETATM   22  C   UNL     1     -45.307 -55.082  13.862  1.00  0.00     0.194 C 
BRANCH  22  23
HETATM   23  O   UNL     1     -46.668 -55.014  14.283  1.00  0.00    -0.399 OA
HETATM   24  H   UNL     1     -47.023 -54.173  13.947  1.00  0.00     0.209 HD
ENDBRANCH  22  23
ENDBRANCH  21  22
ENDBRANCH  16  21
ENDBRANCH   6  13
BRANCH   2  25
HETATM   25  C   UNL     1     -41.764 -44.899  11.693  1.00  0.00     0.147 C 
BRANCH  25  26
HETATM   26  C   UNL     1     -40.281 -44.586  11.832  1.00  0.00     0.040 C 
HETATM   27  C   UNL     1     -39.548 -45.191  13.047  1.00  0.00     0.183 C 
HETATM   28  O   UNL     1     -39.078 -43.884  13.454  1.00  0.00    -0.389 OA
HETATM   29  C   UNL     1     -40.034 -43.253  12.565  1.00  0.00     0.183 C 
BRANCH  26  30
HETATM   30  C   UNL     1     -39.474 -44.765  10.550  1.00  0.00     0.179 C 
BRANCH  30  31
HETATM   31  O   UNL     1     -40.339 -45.139   9.484  1.00  0.00    -0.400 OA
HETATM   32  H   UNL     1     -41.225 -45.287   9.875  1.00  0.00     0.209 HD
ENDBRANCH  30  31
ENDBRANCH  26  30
ENDBRANCH  25  26
ENDBRANCH   2  25
TORSDOF 8
ENDMDL
MODEL 2
REMARK VINA RESULT:      -6.2      1.144      1.725
REMARK  8 active torsions:
REMARK  status: ('A' for Active; 'I' for Inactive)
REMARK    1  A    between atoms: N_2  and  C_17 
REMARK    2  A    between atoms: C_6  and  N_7 
REMARK    3  A    between atoms: N_9  and  C_25 
REMARK    4  A    between atoms: C_16  and  C_17 
REMARK    5  A    between atoms: C_16  and  C_24 
REMARK    6  A    between atoms: C_24  and  O_28 
REMARK    7  A    between atoms: C_25  and  C_30 
REMARK    8  A    between atoms: O_29  and  C_30 
ROOT
HETATM    1  C   UNL     1     -41.420 -48.952  13.337  1.00  0.00     0.122 A 
HETATM    2  N   UNL     1     -40.428 -47.028  13.147  1.00  0.00    -0.326 N 
HETATM    3  C   UNL     1     -40.587 -48.224  12.503  1.00  0.00     0.140 A 
HETATM    4  N   UNL     1     -41.748 -48.223  14.467  1.00  0.00    -0.346 N 
ATOM      5  HN  UNL     1     -42.320 -48.522  15.256  1.00  0.00     0.167 HD
HETATM    6  C   UNL     1     -41.806 -50.232  12.898  1.00  0.00     0.135 A 
HETATM    7  C   UNL     1     -41.160 -47.063  14.301  1.00  0.00     0.185 A 
HETATM    8  N   UNL     1     -40.059 -48.610  11.331  1.00  0.00    -0.336 N 
ATOM      9  HN  UNL     1     -39.419 -48.050  10.767  1.00  0.00     0.168 HD
HETATM   10  N   UNL     1     -41.330 -50.653  11.694  1.00  0.00    -0.337 N 
ATOM     11  HN  UNL     1     -41.598 -51.564  11.322  1.00  0.00     0.168 HD
HETATM   12  C   UNL     1     -40.497 -49.848  11.003  1.00  0.00     0.183 A 
ENDROOT
BRANCH   6  13
HETATM   13  N   UNL     1     -42.709 -50.993  13.629  1.00  0.00    -0.361 N 
HETATM   14  C   UNL     1     -44.103 -50.910  13.198  1.00  0.00     0.165 C 
HETATM   15  C   UNL     1     -45.021 -51.557  14.291  1.00  0.00     0.168 C 
HETATM   16  N   UNL     1     -44.629 -52.991  14.587  1.00  0.00     0.102 N 
HETATM   17  C   UNL     1     -44.922 -50.710  15.595  1.00  0.00     0.050 C 
HETATM   18  C   UNL     1     -46.490 -51.433  13.829  1.00  0.00     0.050 C 
HETATM   19  C   UNL     1     -43.183 -53.023  14.962  1.00  0.00     0.293 C 
HETATM   20  C   UNL     1     -42.228 -52.342  13.953  1.00  0.00     0.154 C 
BRANCH  16  21
HETATM   21  C   UNL     1     -44.888 -53.901  13.444  1.00  0.00     0.299 C 
BRANCH  21  22
HETATM   22  C   UNL     1     -45.577 -55.229  13.809  1.00  0.00     0.194 C 
BRANCH  22  23
HETATM   23  O   UNL     1     -46.830 -54.955  14.435  1.00  0.00    -0.399 OA
HETATM   24  H   UNL     1     -47.269 -55.813  14.569  1.00  0.00     0.209 HD
ENDBRANCH  22  23
ENDBRANCH  21  22
ENDBRANCH  16  21
ENDBRANCH   6  13
BRANCH   2  25
HETATM   25  C   UNL     1     -39.654 -45.891  12.693  1.00  0.00     0.147 C 
BRANCH  25  26
HETATM   26  C   UNL     1     -40.441 -44.965  11.777  1.00  0.00     0.040 C 
HETATM   27  C   UNL     1     -41.846 -45.436  11.344  1.00  0.00     0.183 C 
HETATM   28  O   UNL     1     -41.503 -45.272   9.947  1.00  0.00    -0.389 OA
HETATM   29  C   UNL     1     -40.097 -45.187  10.291  1.00  0.00     0.183 C 
BRANCH  26  30
HETATM   30  C   UNL     1     -40.456 -43.504  12.213  1.00  0.00     0.179 C 
BRANCH  30  31
HETATM   31  O   UNL     1     -40.445 -42.659  11.069  1.00  0.00    -0.400 OA
HETATM   32  H   UNL     1     -41.064 -41.922  11.253  1.00  0.00     0.209 HD
ENDBRANCH  30  31
ENDBRANCH  26  30
ENDBRANCH  25  26
ENDBRANCH   2  25
TORSDOF 8
ENDMDL
MODEL 3
REMARK VINA RESULT:      -6.2      2.323      7.774
REMARK  8 active torsions:
REMARK  status: ('A' for Active; 'I' for Inactive)
REMARK    1  A    between atoms: N_2  and  C_17 
REMARK    2  A    between atoms: C_6  and  N_7 
REMARK    3  A    between atoms: N_9  and  C_25 
REMARK    4  A    between atoms: C_16  and  C_17 
REMARK    5  A    between atoms: C_16  and  C_24 
REMARK    6  A    between atoms: C_24  and  O_28 
REMARK    7  A    between atoms: C_25  and  C_30 
REMARK    8  A    between atoms: O_29  and  C_30 
ROOT
HETATM    1  C   UNL     1     -42.011 -49.223  12.547  1.00  0.00     0.122 A 
HETATM    2  N   UNL     1     -42.696 -51.278  12.718  1.00  0.00    -0.326 N 
HETATM    3  C   UNL     1     -41.735 -50.512  12.119  1.00  0.00     0.140 A 
HETATM    4  N   UNL     1     -43.122 -49.204  13.373  1.00  0.00    -0.346 N 
ATOM      5  HN  UNL     1     -43.561 -48.392  13.806  1.00  0.00     0.167 HD
HETATM    6  C   UNL     1     -41.137 -48.206  12.122  1.00  0.00     0.135 A 
HETATM    7  C   UNL     1     -43.484 -50.460  13.478  1.00  0.00     0.185 A 
HETATM    8  N   UNL     1     -40.747 -50.910  11.302  1.00  0.00    -0.336 N 
ATOM      9  HN  UNL     1     -40.605 -51.870  10.985  1.00  0.00     0.168 HD
HETATM   10  N   UNL     1     -40.093 -48.567  11.325  1.00  0.00    -0.337 N 
ATOM     11  HN  UNL     1     -39.419 -47.870  11.009  1.00  0.00     0.168 HD
HETATM   12  C   UNL     1     -39.967 -49.859  10.959  1.00  0.00     0.183 A 
ENDROOT
BRANCH   6  13
HETATM   13  N   UNL     1     -41.287 -46.902  12.576  1.00  0.00    -0.361 N 
HETATM   14  C   UNL     1     -40.170 -46.002  12.301  1.00  0.00     0.165 C 
HETATM   15  C   UNL     1     -40.349 -44.686  13.133  1.00  0.00     0.168 C 
HETATM   16  N   UNL     1     -41.675 -44.009  12.848  1.00  0.00     0.102 N 
HETATM   17  C   UNL     1     -40.259 -45.035  14.649  1.00  0.00     0.050 C 
HETATM   18  C   UNL     1     -39.143 -43.763  12.851  1.00  0.00     0.050 C 
HETATM   19  C   UNL     1     -42.774 -44.991  13.086  1.00  0.00     0.293 C 
HETATM   20  C   UNL     1     -42.623 -46.339  12.342  1.00  0.00     0.154 C 
BRANCH  16  21
HETATM   21  C   UNL     1     -41.753 -43.468  11.468  1.00  0.00     0.299 C 
BRANCH  21  22
HETATM   22  C   UNL     1     -43.083 -42.781  11.110  1.00  0.00     0.194 C 
BRANCH  22  23
HETATM   23  O   UNL     1     -43.716 -43.496  10.050  1.00  0.00    -0.399 OA
HETATM   24  H   UNL     1     -43.791 -42.879   9.302  1.00  0.00     0.209 HD
ENDBRANCH  22  23
ENDBRANCH  21  22
ENDBRANCH  16  21
ENDBRANCH   6  13
BRANCH   2  25
HETATM   25  C   UNL     1     -42.855 -52.714  12.613  1.00  0.00     0.147 C 
BRANCH  25  26
HETATM   26  C   UNL     1     -41.985 -53.481  13.599  1.00  0.00     0.040 C 
HETATM   27  C   UNL     1     -42.680 -54.564  14.451  1.00  0.00     0.183 C 
HETATM   28  O   UNL     1     -42.196 -53.958  15.672  1.00  0.00    -0.389 OA
HETATM   29  C   UNL     1     -41.854 -52.749  14.949  1.00  0.00     0.183 C 
BRANCH  26  30
HETATM   30  C   UNL     1     -40.669 -53.988  13.021  1.00  0.00     0.179 C 
BRANCH  30  31
HETATM   31  O   UNL     1     -40.643 -53.769  11.615  1.00  0.00    -0.400 OA
HETATM   32  H   UNL     1     -40.947 -54.599  11.193  1.00  0.00     0.209 HD
ENDBRANCH  30  31
ENDBRANCH  26  30
ENDBRANCH  25  26
ENDBRANCH   2  25
TORSDOF 8
ENDMDL
MODEL 4
REMARK VINA RESULT:      -6.0      1.840      2.510
REMARK  8 active torsions:
REMARK  status: ('A' for Active; 'I' for Inactive)
REMARK    1  A    between atoms: N_2  and  C_17 
REMARK    2  A    between atoms: C_6  and  N_7 
REMARK    3  A    between atoms: N_9  and  C_25 
REMARK    4  A    between atoms: C_16  and  C_17 
REMARK    5  A    between atoms: C_16  and  C_24 
REMARK    6  A    between atoms: C_24  and  O_28 
REMARK    7  A    between atoms: C_25  and  C_30 
REMARK    8  A    between atoms: O_29  and  C_30 
ROOT
HETATM    1  C   UNL     1     -41.638 -49.690  12.054  1.00  0.00     0.122 A 
HETATM    2  N   UNL     1     -42.024 -47.805  11.045  1.00  0.00    -0.326 N 
HETATM    3  C   UNL     1     -41.014 -48.676  11.346  1.00  0.00     0.140 A 
HETATM    4  N   UNL     1     -42.991 -49.434  12.195  1.00  0.00    -0.346 N 
ATOM      5  HN  UNL     1     -43.682 -49.996  12.692  1.00  0.00     0.167 HD
HETATM    6  C   UNL     1     -40.839 -50.776  12.457  1.00  0.00     0.135 A 
HETATM    7  C   UNL     1     -43.190 -48.310  11.549  1.00  0.00     0.185 A 
HETATM    8  N   UNL     1     -39.713 -48.578  11.028  1.00  0.00    -0.336 N 
ATOM      9  HN  UNL     1     -39.292 -47.791  10.534  1.00  0.00     0.168 HD
HETATM   10  N   UNL     1     -39.519 -50.743  12.123  1.00  0.00    -0.337 N 
ATOM     11  HN  UNL     1     -38.902 -51.516  12.372  1.00  0.00     0.168 HD
HETATM   12  C   UNL     1     -39.040 -49.671  11.457  1.00  0.00     0.183 A 
ENDROOT
BRANCH   6  13
HETATM   13  N   UNL     1     -41.399 -51.876  13.093  1.00  0.00    -0.361 N 
HETATM   14  C   UNL     1     -41.828 -51.660  14.474  1.00  0.00     0.165 C 
HETATM   15  C   UNL     1     -42.138 -53.043  15.141  1.00  0.00     0.168 C 
HETATM   16  N   UNL     1     -43.178 -53.828  14.366  1.00  0.00     0.102 N 
HETATM   17  C   UNL     1     -40.818 -53.868  15.223  1.00  0.00     0.050 C 
HETATM   18  C   UNL     1     -42.560 -52.794  16.606  1.00  0.00     0.050 C 
HETATM   19  C   UNL     1     -42.717 -53.965  12.952  1.00  0.00     0.293 C 
HETATM   20  C   UNL     1     -42.333 -52.638  12.254  1.00  0.00     0.154 C 
BRANCH  16  21
HETATM   21  C   UNL     1     -44.521 -53.198  14.415  1.00  0.00     0.299 C 
BRANCH  21  22
HETATM   22  C   UNL     1     -45.656 -54.029  13.789  1.00  0.00     0.194 C 
BRANCH  22  23
HETATM   23  O   UNL     1     -46.151 -53.358  12.631  1.00  0.00    -0.399 OA
HETATM   24  H   UNL     1     -45.898 -53.900  11.864  1.00  0.00     0.209 HD
ENDBRANCH  22  23
ENDBRANCH  21  22
ENDBRANCH  16  21
ENDBRANCH   6  13
BRANCH   2  25
HETATM   25  C   UNL     1     -41.914 -46.569  10.297  1.00  0.00     0.147 C 
BRANCH  25  26
HETATM   26  C   UNL     1     -41.464 -45.395  11.154  1.00  0.00     0.040 C 
HETATM   27  C   UNL     1     -41.868 -45.418  12.642  1.00  0.00     0.183 C 
HETATM   28  O   UNL     1     -42.480 -44.112  12.528  1.00  0.00    -0.389 OA
HETATM   29  C   UNL     1     -42.449 -44.212  11.082  1.00  0.00     0.183 C 
BRANCH  26  30
HETATM   30  C   UNL     1     -39.998 -45.011  10.982  1.00  0.00     0.179 C 
BRANCH  30  31
HETATM   31  O   UNL     1     -39.441 -45.717   9.879  1.00  0.00    -0.400 OA
HETATM   32  H   UNL     1     -38.470 -45.727  10.009  1.00  0.00     0.209 HD
ENDBRANCH  30  31
ENDBRANCH  26  30
ENDBRANCH  25  26
ENDBRANCH   2  25
TORSDOF 8
ENDMDL
MODEL 5
REMARK VINA RESULT:      -5.9      1.679      8.212
REMARK  8 active torsions:
REMARK  status: ('A' for Active; 'I' for Inactive)
REMARK    1  A    between atoms: N_2  and  C_17 
REMARK    2  A    between atoms: C_6  and  N_7 
REMARK    3  A    between atoms: N_9  and  C_25 
REMARK    4  A    between atoms: C_16  and  C_17 
REMARK    5  A    between atoms: C_16  and  C_24 
REMARK    6  A    between atoms: C_24  and  O_28 
REMARK    7  A    between atoms: C_25  and  C_30 
REMARK    8  A    between atoms: O_29  and  C_30 
ROOT
HETATM    1  C   UNL     1     -42.753 -50.169  13.345  1.00  0.00     0.122 A 
HETATM    2  N   UNL     1     -43.386 -51.692  14.760  1.00  0.00    -0.326 N 
HETATM    3  C   UNL     1     -42.690 -51.531  13.593  1.00  0.00     0.140 A 
HETATM    4  N   UNL     1     -43.482 -49.521  14.327  1.00  0.00    -0.346 N 
ATOM      5  HN  UNL     1     -43.708 -48.528  14.380  1.00  0.00     0.167 HD
HETATM    6  C   UNL     1     -42.065 -49.692  12.214  1.00  0.00     0.135 A 
HETATM    7  C   UNL     1     -43.817 -50.463  15.174  1.00  0.00     0.185 A 
HETATM    8  N   UNL     1     -42.082 -52.472  12.855  1.00  0.00    -0.336 N 
ATOM      9  HN  UNL     1     -42.093 -53.471  13.060  1.00  0.00     0.168 HD
HETATM   10  N   UNL     1     -41.397 -50.603  11.454  1.00  0.00    -0.337 N 
ATOM     11  HN  UNL     1     -40.865 -50.305  10.637  1.00  0.00     0.168 HD
HETATM   12  C   UNL     1     -41.451 -51.907  11.799  1.00  0.00     0.183 A 
ENDROOT
BRANCH   6  13
HETATM   13  N   UNL     1     -42.001 -48.332  11.941  1.00  0.00    -0.361 N 
HETATM   14  C   UNL     1     -41.033 -47.571  12.727  1.00  0.00     0.165 C 
HETATM   15  C   UNL     1     -41.298 -46.040  12.533  1.00  0.00     0.168 C 
HETATM   16  N   UNL     1     -41.249 -45.634  11.073  1.00  0.00     0.102 N 
HETATM   17  C   UNL     1     -42.698 -45.694  13.123  1.00  0.00     0.050 C 
HETATM   18  C   UNL     1     -40.283 -45.256  13.395  1.00  0.00     0.050 C 
HETATM   19  C   UNL     1     -42.212 -46.483  10.310  1.00  0.00     0.293 C 
HETATM   20  C   UNL     1     -42.044 -48.008  10.509  1.00  0.00     0.154 C 
BRANCH  16  21
HETATM   21  C   UNL     1     -39.887 -45.747  10.495  1.00  0.00     0.299 C 
BRANCH  21  22
HETATM   22  C   UNL     1     -39.323 -44.448   9.892  1.00  0.00     0.194 C 
BRANCH  22  23
HETATM   23  O   UNL     1     -38.942 -44.680   8.537  1.00  0.00    -0.399 OA
HETATM   24  H   UNL     1     -38.945 -43.815   8.093  1.00  0.00     0.209 HD
ENDBRANCH  22  23
ENDBRANCH  21  22
ENDBRANCH  16  21
ENDBRANCH   6  13
BRANCH   2  25
HETATM   25  C   UNL     1     -43.614 -52.933  15.472  1.00  0.00     0.147 C 
BRANCH  25  26
HETATM   26  C   UNL     1     -44.874 -53.655  15.016  1.00  0.00     0.040 C 
HETATM   27  C   UNL     1     -46.003 -52.788  14.422  1.00  0.00     0.183 C 
HETATM   28  O   UNL     1     -46.957 -53.329  15.367  1.00  0.00    -0.389 OA
HETATM   29  C   UNL     1     -45.874 -53.863  16.169  1.00  0.00     0.183 C 
BRANCH  26  30
HETATM   30  C   UNL     1     -44.619 -54.895  14.165  1.00  0.00     0.179 C 
BRANCH  30  31
HETATM   31  O   UNL     1     -45.507 -54.907  13.053  1.00  0.00    -0.400 OA
HETATM   32  H   UNL     1     -46.250 -54.308  13.276  1.00  0.00     0.209 HD
ENDBRANCH  30  31
ENDBRANCH  26  30
ENDBRANCH  25  26
ENDBRANCH   2  25
TORSDOF 8
ENDMDL
MODEL 6
REMARK VINA RESULT:      -5.8      2.761      8.027
REMARK  8 active torsions:
REMARK  status: ('A' for Active; 'I' for Inactive)
REMARK    1  A    between atoms: N_2  and  C_17 
REMARK    2  A    between atoms: C_6  and  N_7 
REMARK    3  A    between atoms: N_9  and  C_25 
REMARK    4  A    between atoms: C_16  and  C_17 
REMARK    5  A    between atoms: C_16  and  C_24 
REMARK    6  A    between atoms: C_24  and  O_28 
REMARK    7  A    between atoms: C_25  and  C_30 
REMARK    8  A    between atoms: O_29  and  C_30 
ROOT
HETATM    1  C   UNL     1     -41.149 -49.691  12.049  1.00  0.00     0.122 A 
HETATM    2  N   UNL     1     -41.214 -51.847  12.312  1.00  0.00    -0.326 N 
HETATM    3  C   UNL     1     -40.358 -50.828  12.002  1.00  0.00     0.140 A 
HETATM    4  N   UNL     1     -42.458 -50.014  12.364  1.00  0.00    -0.346 N 
ATOM      5  HN  UNL     1     -43.254 -49.380  12.438  1.00  0.00     0.167 HD
HETATM    6  C   UNL     1     -40.513 -48.458  11.820  1.00  0.00     0.135 A 
HETATM    7  C   UNL     1     -42.450 -51.312  12.546  1.00  0.00     0.185 A 
HETATM    8  N   UNL     1     -39.048 -50.903  11.719  1.00  0.00    -0.336 N 
ATOM      9  HN  UNL     1     -38.513 -51.771  11.661  1.00  0.00     0.168 HD
HETATM   10  N   UNL     1     -39.175 -48.478  11.567  1.00  0.00    -0.337 N 
ATOM     11  HN  UNL     1     -38.663 -47.609  11.416  1.00  0.00     0.168 HD
HETATM   12  C   UNL     1     -38.537 -49.666  11.520  1.00  0.00     0.183 A 
ENDROOT
BRANCH   6  13
HETATM   13  N   UNL     1     -41.212 -47.264  11.935  1.00  0.00    -0.361 N 
HETATM   14  C   UNL     1     -40.794 -46.386  13.027  1.00  0.00     0.165 C 
HETATM   15  C   UNL     1     -41.860 -45.254  13.217  1.00  0.00     0.168 C 
HETATM   16  N   UNL     1     -42.086 -44.465  11.943  1.00  0.00     0.102 N 
HETATM   17  C   UNL     1     -43.203 -45.901  13.673  1.00  0.00     0.050 C 
HETATM   18  C   UNL     1     -41.414 -44.358  14.394  1.00  0.00     0.050 C 
HETATM   19  C   UNL     1     -42.450 -45.416  10.850  1.00  0.00     0.293 C 
HETATM   20  C   UNL     1     -41.468 -46.596  10.652  1.00  0.00     0.154 C 
BRANCH  16  21
HETATM   21  C   UNL     1     -40.902 -43.658  11.555  1.00  0.00     0.299 C 
BRANCH  21  22
HETATM   22  C   UNL     1     -41.137 -42.137  11.501  1.00  0.00     0.194 C 
BRANCH  22  23
HETATM   23  O   UNL     1     -41.638 -41.781  10.213  1.00  0.00    -0.399 OA
HETATM   24  H   UNL     1     -41.264 -40.909   9.999  1.00  0.00     0.209 HD
ENDBRANCH  22  23
ENDBRANCH  21  22
ENDBRANCH  16  21
ENDBRANCH   6  13
BRANCH   2  25
HETATM   25  C   UNL     1     -40.890 -53.256  12.416  1.00  0.00     0.147 C 
BRANCH  25  26
HETATM   26  C   UNL     1     -40.652 -53.705  13.850  1.00  0.00     0.040 C 
HETATM   27  C   UNL     1     -39.891 -52.731  14.773  1.00  0.00     0.183 C 
HETATM   28  O   UNL     1     -38.920 -53.753  15.101  1.00  0.00    -0.389 OA
HETATM   29  C   UNL     1     -39.378 -54.561  13.988  1.00  0.00     0.183 C 
BRANCH  26  30
HETATM   30  C   UNL     1     -41.882 -54.282  14.545  1.00  0.00     0.179 C 
BRANCH  30  31
HETATM   31  O   UNL     1     -41.478 -55.151  15.596  1.00  0.00    -0.400 OA
HETATM   32  H   UNL     1     -41.795 -54.753  16.433  1.00  0.00     0.209 HD
ENDBRANCH  30  31
ENDBRANCH  26  30
ENDBRANCH  25  26
ENDBRANCH   2  25
TORSDOF 8
ENDMDL
MODEL 7
REMARK VINA RESULT:      -5.8      2.420      2.915
REMARK  8 active torsions:
REMARK  status: ('A' for Active; 'I' for Inactive)
REMARK    1  A    between atoms: N_2  and  C_17 
REMARK    2  A    between atoms: C_6  and  N_7 
REMARK    3  A    between atoms: N_9  and  C_25 
REMARK    4  A    between atoms: C_16  and  C_17 
REMARK    5  A    between atoms: C_16  and  C_24 
REMARK    6  A    between atoms: C_24  and  O_28 
REMARK    7  A    between atoms: C_25  and  C_30 
REMARK    8  A    between atoms: O_29  and  C_30 
ROOT
HETATM    1  C   UNL     1     -41.753 -48.693  12.228  1.00  0.00     0.122 A 
HETATM    2  N   UNL     1     -42.253 -46.903  11.103  1.00  0.00    -0.326 N 
HETATM    3  C   UNL     1     -41.190 -47.682  11.466  1.00  0.00     0.140 A 
HETATM    4  N   UNL     1     -43.123 -48.524  12.339  1.00  0.00    -0.346 N 
ATOM      5  HN  UNL     1     -43.780 -49.101  12.862  1.00  0.00     0.167 HD
HETATM    6  C   UNL     1     -40.887 -49.694  12.704  1.00  0.00     0.135 A 
HETATM    7  C   UNL     1     -43.389 -47.457  11.624  1.00  0.00     0.185 A 
HETATM    8  N   UNL     1     -39.895 -47.513  11.156  1.00  0.00    -0.336 N 
ATOM      9  HN  UNL     1     -39.522 -46.730  10.619  1.00  0.00     0.168 HD
HETATM   10  N   UNL     1     -39.568 -49.590  12.382  1.00  0.00    -0.337 N 
ATOM     11  HN  UNL     1     -38.904 -50.302  12.684  1.00  0.00     0.168 HD
HETATM   12  C   UNL     1     -39.155 -48.529  11.657  1.00  0.00     0.183 A 
ENDROOT
BRANCH   6  13
HETATM   13  N   UNL     1     -41.380 -50.791  13.399  1.00  0.00    -0.361 N 
HETATM   14  C   UNL     1     -42.160 -51.744  12.612  1.00  0.00     0.165 C 
HETATM   15  C   UNL     1     -42.896 -52.732  13.579  1.00  0.00     0.168 C 
HETATM   16  N   UNL     1     -41.931 -53.452  14.501  1.00  0.00     0.102 N 
HETATM   17  C   UNL     1     -43.927 -51.930  14.428  1.00  0.00     0.050 C 
HETATM   18  C   UNL     1     -43.736 -53.711  12.728  1.00  0.00     0.050 C 
HETATM   19  C   UNL     1     -41.121 -52.432  15.233  1.00  0.00     0.293 C 
HETATM   20  C   UNL     1     -40.418 -51.384  14.337  1.00  0.00     0.154 C 
BRANCH  16  21
HETATM   21  C   UNL     1     -41.044 -54.394  13.775  1.00  0.00     0.299 C 
BRANCH  21  22
HETATM   22  C   UNL     1     -39.662 -54.617  14.416  1.00  0.00     0.194 C 
BRANCH  22  23
HETATM   23  O   UNL     1     -38.689 -54.804  13.390  1.00  0.00    -0.399 OA
HETATM   24  H   UNL     1     -38.510 -53.927  13.011  1.00  0.00     0.209 HD
ENDBRANCH  22  23
ENDBRANCH  21  22
ENDBRANCH  16  21
ENDBRANCH   6  13
BRANCH   2  25
HETATM   25  C   UNL     1     -42.218 -45.710  10.282  1.00  0.00     0.147 C 
BRANCH  25  26
HETATM   26  C   UNL     1     -41.756 -44.477  11.047  1.00  0.00     0.040 C 
HETATM   27  C   UNL     1     -42.028 -44.453  12.565  1.00  0.00     0.183 C 
HETATM   28  O   UNL     1     -42.714 -43.183  12.453  1.00  0.00    -0.389 OA
HETATM   29  C   UNL     1     -42.804 -43.348  11.015  1.00  0.00     0.183 C 
BRANCH  26  30
HETATM   30  C   UNL     1     -40.333 -44.032  10.729  1.00  0.00     0.179 C 
BRANCH  30  31
HETATM   31  O   UNL     1     -39.821 -44.791   9.640  1.00  0.00    -0.400 OA
HETATM   32  H   UNL     1     -40.388 -45.586   9.557  1.00  0.00     0.209 HD
ENDBRANCH  30  31
ENDBRANCH  26  30
ENDBRANCH  25  26
ENDBRANCH   2  25
TORSDOF 8
ENDMDL
MODEL 8
REMARK VINA RESULT:      -5.8      2.082      2.333
REMARK  8 active torsions:
REMARK  status: ('A' for Active; 'I' for Inactive)
REMARK    1  A    between atoms: N_2  and  C_17 
REMARK    2  A    between atoms: C_6  and  N_7 
REMARK    3  A    between atoms: N_9  and  C_25 
REMARK    4  A    between atoms: C_16  and  C_17 
REMARK    5  A    between atoms: C_16  and  C_24 
REMARK    6  A    between atoms: C_24  and  O_28 
REMARK    7  A    between atoms: C_25  and  C_30 
REMARK    8  A    between atoms: O_29  and  C_30 
ROOT
HETATM    1  C   UNL     1     -42.672 -47.374  13.373  1.00  0.00     0.122 A 
HETATM    2  N   UNL     1     -42.554 -45.207  13.495  1.00  0.00    -0.326 N 
HETATM    3  C   UNL     1     -42.806 -46.222  12.613  1.00  0.00     0.140 A 
HETATM    4  N   UNL     1     -42.332 -47.067  14.679  1.00  0.00    -0.346 N 
ATOM      5  HN  UNL     1     -42.146 -47.718  15.442  1.00  0.00     0.167 HD
HETATM    6  C   UNL     1     -42.931 -48.598  12.730  1.00  0.00     0.135 A 
HETATM    7  C   UNL     1     -42.302 -45.757  14.720  1.00  0.00     0.185 A 
HETATM    8  N   UNL     1     -43.114 -46.131  11.310  1.00  0.00    -0.336 N 
ATOM      9  HN  UNL     1     -43.166 -45.258  10.784  1.00  0.00     0.168 HD
HETATM   10  N   UNL     1     -43.288 -48.555  11.416  1.00  0.00    -0.337 N 
ATOM     11  HN  UNL     1     -43.507 -49.414  10.911  1.00  0.00     0.168 HD
HETATM   12  C   UNL     1     -43.346 -47.360  10.794  1.00  0.00     0.183 A 
ENDROOT
BRANCH   6  13
HETATM   13  N   UNL     1     -42.907 -49.793  13.437  1.00  0.00    -0.361 N 
HETATM   14  C   UNL     1     -44.038 -50.690  13.206  1.00  0.00     0.165 C 
HETATM   15  C   UNL     1     -44.028 -51.823  14.288  1.00  0.00     0.168 C 
HETATM   16  N   UNL     1     -42.721 -52.589  14.299  1.00  0.00     0.102 N 
HETATM   17  C   UNL     1     -44.267 -51.182  15.688  1.00  0.00     0.050 C 
HETATM   18  C   UNL     1     -45.247 -52.740  14.043  1.00  0.00     0.050 C 
HETATM   19  C   UNL     1     -41.600 -51.618  14.477  1.00  0.00     0.293 C 
HETATM   20  C   UNL     1     -41.588 -50.437  13.477  1.00  0.00     0.154 C 
BRANCH  16  21
HETATM   21  C   UNL     1     -42.520 -53.392  13.066  1.00  0.00     0.299 C 
BRANCH  21  22
HETATM   22  C   UNL     1     -41.098 -53.948  12.873  1.00  0.00     0.194 C 
BRANCH  22  23
HETATM   23  O   UNL     1     -40.588 -53.515  11.613  1.00  0.00    -0.399 OA
HETATM   24  H   UNL     1     -41.173 -52.802  11.304  1.00  0.00     0.209 HD
ENDBRANCH  22  23
ENDBRANCH  21  22
ENDBRANCH  16  21
ENDBRANCH   6  13
BRANCH   2  25
HETATM   25  C   UNL     1     -42.576 -43.786  13.215  1.00  0.00     0.147 C 
BRANCH  25  26
HETATM   26  C   UNL     1     -41.266 -43.277  12.629  1.00  0.00     0.040 C 
HETATM   27  C   UNL     1     -40.008 -44.135  12.876  1.00  0.00     0.183 C 
HETATM   28  O   UNL     1     -39.309 -43.001  13.442  1.00  0.00    -0.389 OA
HETATM   29  C   UNL     1     -40.560 -42.279  13.567  1.00  0.00     0.183 C 
BRANCH  26  30
HETATM   30  C   UNL     1     -41.356 -42.828  11.175  1.00  0.00     0.179 C 
BRANCH  30  31
HETATM   31  O   UNL     1     -42.608 -43.220  10.625  1.00  0.00    -0.400 OA
HETATM   32  H   UNL     1     -42.655 -44.196  10.693  1.00  0.00     0.209 HD
ENDBRANCH  30  31
ENDBRANCH  26  30
ENDBRANCH  25  26
ENDBRANCH   2  25
TORSDOF 8
ENDMDL
MODEL 9
REMARK VINA RESULT:      -5.7      1.715      8.405
REMARK  8 active torsions:
REMARK  status: ('A' for Active; 'I' for Inactive)
REMARK    1  A    between atoms: N_2  and  C_17 
REMARK    2  A    between atoms: C_6  and  N_7 
REMARK    3  A    between atoms: N_9  and  C_25 
REMARK    4  A    between atoms: C_16  and  C_17 
REMARK    5  A    between atoms: C_16  and  C_24 
REMARK    6  A    between atoms: C_24  and  O_28 
REMARK    7  A    between atoms: C_25  and  C_30 
REMARK    8  A    between atoms: O_29  and  C_30 
ROOT
HETATM    1  C   UNL     1     -42.759 -50.200  13.231  1.00  0.00     0.122 A 
HETATM    2  N   UNL     1     -43.354 -52.159  13.957  1.00  0.00    -0.326 N 
HETATM    3  C   UNL     1     -43.244 -50.855  14.351  1.00  0.00     0.140 A 
HETATM    4  N   UNL     1     -42.563 -51.086  12.186  1.00  0.00    -0.346 N 
ATOM      5  HN  UNL     1     -42.190 -50.883  11.259  1.00  0.00     0.167 HD
HETATM    6  C   UNL     1     -42.592 -48.806  13.326  1.00  0.00     0.135 A 
HETATM    7  C   UNL     1     -42.961 -52.246  12.650  1.00  0.00     0.185 A 
HETATM    8  N   UNL     1     -43.540 -50.323  15.548  1.00  0.00    -0.336 N 
ATOM      9  HN  UNL     1     -43.863 -50.854  16.357  1.00  0.00     0.168 HD
HETATM   10  N   UNL     1     -42.918 -48.213  14.508  1.00  0.00    -0.337 N 
ATOM     11  HN  UNL     1     -42.836 -47.203  14.620  1.00  0.00     0.168 HD
HETATM   12  C   UNL     1     -43.349 -48.983  15.528  1.00  0.00     0.183 A 
ENDROOT
BRANCH   6  13
HETATM   13  N   UNL     1     -42.195 -48.059  12.224  1.00  0.00    -0.361 N 
HETATM   14  C   UNL     1     -43.230 -47.224  11.618  1.00  0.00     0.165 C 
HETATM   15  C   UNL     1     -42.725 -46.702  10.230  1.00  0.00     0.168 C 
HETATM   16  N   UNL     1     -41.416 -45.945  10.348  1.00  0.00     0.102 N 
HETATM   17  C   UNL     1     -42.538 -47.918   9.274  1.00  0.00     0.050 C 
HETATM   18  C   UNL     1     -43.844 -45.847   9.594  1.00  0.00     0.050 C 
HETATM   19  C   UNL     1     -40.417 -46.823  11.028  1.00  0.00     0.293 C 
HETATM   20  C   UNL     1     -40.880 -47.424  12.376  1.00  0.00     0.154 C 
BRANCH  16  21
HETATM   21  C   UNL     1     -41.564 -44.663  11.081  1.00  0.00     0.299 C 
BRANCH  21  22
HETATM   22  C   UNL     1     -40.370 -43.699  10.957  1.00  0.00     0.194 C 
BRANCH  22  23
HETATM   23  O   UNL     1     -40.832 -42.430  10.495  1.00  0.00    -0.399 OA
HETATM   24  H   UNL     1     -40.236 -42.160   9.776  1.00  0.00     0.209 HD
ENDBRANCH  22  23
ENDBRANCH  21  22
ENDBRANCH  16  21
ENDBRANCH   6  13
BRANCH   2  25
HETATM   25  C   UNL     1     -43.832 -53.272  14.752  1.00  0.00     0.147 C 
BRANCH  25  26
HETATM   26  C   UNL     1     -45.307 -53.571  14.528  1.00  0.00     0.040 C 
HETATM   27  C   UNL     1     -46.171 -52.435  13.942  1.00  0.00     0.183 C 
HETATM   28  O   UNL     1     -47.105 -52.536  15.043  1.00  0.00    -0.389 OA
HETATM   29  C   UNL     1     -46.149 -53.325  15.795  1.00  0.00     0.183 C 
BRANCH  26  30
HETATM   30  C   UNL     1     -45.585 -54.897  13.829  1.00  0.00     0.179 C 
BRANCH  30  31
HETATM   31  O   UNL     1     -46.752 -55.497  14.379  1.00  0.00    -0.400 OA
HETATM   32  H   UNL     1     -46.549 -56.446  14.510  1.00  0.00     0.209 HD
ENDBRANCH  30  31
ENDBRANCH  26  30
ENDBRANCH  25  26
ENDBRANCH   2  25
TORSDOF 8
ENDMDL
