MODEL 1
REMARK VINA RESULT:      -5.2      0.000      0.000
REMARK  7 active torsions:
REMARK  status: ('A' for Active; 'I' for Inactive)
REMARK    1  A    between atoms: C_2  and  C_3 
REMARK    2  A    between atoms: C_2  and  N_10 
REMARK    3  A    between atoms: C_3  and  N_4 
REMARK    4  A    between atoms: N_10  and  C_11 
REMARK    5  A    between atoms: C_11  and  C_12 
REMARK       I    between atoms: C_12  and  N_14 
REMARK    6  A    between atoms: N_14  and  C_15 
REMARK    7  A    between atoms: C_15  and  C_16 
ROOT
HETATM    1  C   UNL     1     -45.058 -47.454   9.130  1.00  0.00     0.143 C 
HETATM    2  C   UNL     1     -45.954 -48.299   8.331  1.00  0.00     0.060 C 
HETATM    3  N   UNL     1     -46.641 -48.989   7.699  1.00  0.00    -0.197 NA
ENDROOT
BRANCH   1   4
HETATM    4  C   UNL     1     -43.651 -47.437   8.537  1.00  0.00     0.136 C 
BRANCH   4   5
HETATM    5  N   UNL     1     -42.681 -48.129   9.364  1.00  0.00    -0.359 N 
HETATM    6  C   UNL     1     -41.954 -47.504  10.352  1.00  0.00     0.245 C 
HETATM    7  O   UNL     1     -42.083 -46.321  10.653  1.00  0.00    -0.272 OA
HETATM    8  H   UNL     1     -42.404 -49.081   9.128  1.00  0.00     0.162 HD
BRANCH   6   9
HETATM    9  C   UNL     1     -40.963 -48.429  11.065  1.00  0.00     0.372 C 
BRANCH   9  10
HETATM   10  N   UNL     1     -41.374 -49.846  11.004  1.00  0.00     0.098 N 
HETATM   11  H   UNL     1     -42.176 -49.921  10.379  1.00  0.00     0.317 HD
BRANCH  10  12
HETATM   12  C   UNL     1     -41.715 -50.434  12.324  1.00  0.00     0.236 C 
HETATM   13  C   UNL     1     -43.020 -49.850  12.885  1.00  0.00     0.044 C 
BRANCH  12  14
HETATM   14  C   UNL     1     -41.880 -51.969  12.236  1.00  0.00     0.183 C 
BRANCH  14  15
HETATM   15  N   UNL     1     -40.837 -52.729  12.895  1.00  0.00    -0.302 N 
HETATM   16  C   UNL     1     -40.821 -54.083  13.086  1.00  0.00     0.111 A 
HETATM   17  C   UNL     1     -39.695 -54.352  13.826  1.00  0.00     0.037 A 
HETATM   18  C   UNL     1     -39.113 -53.093  14.058  1.00  0.00     0.108 A 
HETATM   19  N   UNL     1     -39.814 -52.095  13.508  1.00  0.00    -0.310 N 
ATOM     20  HN  UNL     1     -39.623 -51.094  13.543  1.00  0.00     0.186 HD
ENDBRANCH  14  15
ENDBRANCH  12  14
ENDBRANCH  10  12
ENDBRANCH   9  10
ENDBRANCH   6   9
ENDBRANCH   4   5
ENDBRANCH   1   4
TORSDOF 7
ENDMDL
MODEL 2
REMARK VINA RESULT:      -5.2      2.231      2.991
REMARK  7 active torsions:
REMARK  status: ('A' for Active; 'I' for Inactive)
REMARK    1  A    between atoms: C_2  and  C_3 
REMARK    2  A    between atoms: C_2  and  N_10 
REMARK    3  A    between atoms: C_3  and  N_4 
REMARK    4  A    between atoms: N_10  and  C_11 
REMARK    5  A    between atoms: C_11  and  C_12 
REMARK       I    between atoms: C_12  and  N_14 
REMARK    6  A    between atoms: N_14  and  C_15 
REMARK    7  A    between atoms: C_15  and  C_16 
ROOT
HETATM    1  C   UNL     1     -45.179 -47.651   8.915  1.00  0.00     0.143 C 
HETATM    2  C   UNL     1     -46.033 -48.500   8.076  1.00  0.00     0.060 C 
HETATM    3  N   UNL     1     -46.686 -49.193   7.411  1.00  0.00    -0.197 NA
ENDROOT
BRANCH   1   4
HETATM    4  C   UNL     1     -43.792 -47.494   8.297  1.00  0.00     0.136 C 
BRANCH   4   5
HETATM    5  N   UNL     1     -42.785 -47.093   9.262  1.00  0.00    -0.359 N 
HETATM    6  C   UNL     1     -42.662 -45.804   9.727  1.00  0.00     0.245 C 
HETATM    7  O   UNL     1     -43.409 -44.884   9.404  1.00  0.00    -0.272 OA
HETATM    8  H   UNL     1     -42.039 -47.740   9.510  1.00  0.00     0.162 HD
BRANCH   6   9
HETATM    9  C   UNL     1     -41.502 -45.612  10.708  1.00  0.00     0.372 C 
BRANCH   9  10
HETATM   10  N   UNL     1     -40.338 -46.459  10.375  1.00  0.00     0.098 N 
HETATM   11  H   UNL     1     -40.633 -47.152   9.688  1.00  0.00     0.317 HD
BRANCH  10  12
HETATM   12  C   UNL     1     -39.733 -47.143  11.544  1.00  0.00     0.236 C 
HETATM   13  C   UNL     1     -40.023 -46.394  12.853  1.00  0.00     0.044 C 
BRANCH  12  14
HETATM   14  C   UNL     1     -40.265 -48.588  11.695  1.00  0.00     0.183 C 
BRANCH  14  15
HETATM   15  N   UNL     1     -39.292 -49.544  12.182  1.00  0.00    -0.302 N 
HETATM   16  C   UNL     1     -37.993 -49.655  11.770  1.00  0.00     0.111 A 
HETATM   17  C   UNL     1     -37.474 -50.744  12.429  1.00  0.00     0.037 A 
HETATM   18  C   UNL     1     -38.545 -51.239  13.194  1.00  0.00     0.108 A 
HETATM   19  N   UNL     1     -39.664 -50.523  13.034  1.00  0.00    -0.310 N 
ATOM     20  HN  UNL     1     -40.579 -50.679  13.455  1.00  0.00     0.186 HD
ENDBRANCH  14  15
ENDBRANCH  12  14
ENDBRANCH  10  12
ENDBRANCH   9  10
ENDBRANCH   6   9
ENDBRANCH   4   5
ENDBRANCH   1   4
TORSDOF 7
ENDMDL
MODEL 3
REMARK VINA RESULT:      -5.0      2.076      4.246
REMARK  7 active torsions:
REMARK  status: ('A' for Active; 'I' for Inactive)
REMARK    1  A    between atoms: C_2  and  C_3 
REMARK    2  A    between atoms: C_2  and  N_10 
REMARK    3  A    between atoms: C_3  and  N_4 
REMARK    4  A    between atoms: N_10  and  C_11 
REMARK    5  A    between atoms: C_11  and  C_12 
REMARK       I    between atoms: C_12  and  N_14 
REMARK    6  A    between atoms: N_14  and  C_15 
REMARK    7  A    between atoms: C_15  and  C_16 
ROOT
HETATM    1  C   UNL     1     -45.130 -46.270   8.915  1.00  0.00     0.143 C 
HETATM    2  C   UNL     1     -46.081 -47.385   8.828  1.00  0.00     0.060 C 
HETATM    3  N   UNL     1     -46.820 -48.280   8.785  1.00  0.00    -0.197 NA
ENDROOT
BRANCH   1   4
HETATM    4  C   UNL     1     -43.704 -46.783   9.101  1.00  0.00     0.136 C 
BRANCH   4   5
HETATM    5  N   UNL     1     -43.615 -47.873  10.054  1.00  0.00    -0.359 N 
HETATM    6  C   UNL     1     -43.273 -47.689  11.375  1.00  0.00     0.245 C 
HETATM    7  O   UNL     1     -43.050 -46.592  11.878  1.00  0.00    -0.272 OA
HETATM    8  H   UNL     1     -43.662 -48.836   9.726  1.00  0.00     0.162 HD
BRANCH   6   9
HETATM    9  C   UNL     1     -43.205 -48.991  12.179  1.00  0.00     0.372 C 
BRANCH   9  10
HETATM   10  N   UNL     1     -42.118 -49.879  11.720  1.00  0.00     0.098 N 
HETATM   11  H   UNL     1     -42.444 -50.843  11.786  1.00  0.00     0.317 HD
BRANCH  10  12
HETATM   12  C   UNL     1     -40.852 -49.729  12.479  1.00  0.00     0.236 C 
HETATM   13  C   UNL     1     -40.309 -51.085  12.952  1.00  0.00     0.044 C 
BRANCH  12  14
HETATM   14  C   UNL     1     -39.756 -49.047  11.627  1.00  0.00     0.183 C 
BRANCH  14  15
HETATM   15  N   UNL     1     -39.732 -47.602  11.715  1.00  0.00    -0.302 N 
HETATM   16  C   UNL     1     -39.586 -46.864  12.857  1.00  0.00     0.111 A 
HETATM   17  C   UNL     1     -39.710 -45.547  12.481  1.00  0.00     0.037 A 
HETATM   18  C   UNL     1     -39.956 -45.596  11.097  1.00  0.00     0.108 A 
HETATM   19  N   UNL     1     -39.990 -46.847  10.625  1.00  0.00    -0.310 N 
ATOM     20  HN  UNL     1     -40.167 -47.158   9.670  1.00  0.00     0.186 HD
ENDBRANCH  14  15
ENDBRANCH  12  14
ENDBRANCH  10  12
ENDBRANCH   9  10
ENDBRANCH   6   9
ENDBRANCH   4   5
ENDBRANCH   1   4
TORSDOF 7
ENDMDL
MODEL 4
REMARK VINA RESULT:      -4.9      2.659      6.891
REMARK  7 active torsions:
REMARK  status: ('A' for Active; 'I' for Inactive)
REMARK    1  A    between atoms: C_2  and  C_3 
REMARK    2  A    between atoms: C_2  and  N_10 
REMARK    3  A    between atoms: C_3  and  N_4 
REMARK    4  A    between atoms: N_10  and  C_11 
REMARK    5  A    between atoms: C_11  and  C_12 
REMARK       I    between atoms: C_12  and  N_14 
REMARK    6  A    between atoms: N_14  and  C_15 
REMARK    7  A    between atoms: C_15  and  C_16 
ROOT
HETATM    1  C   UNL     1     -43.388 -54.523  14.807  1.00  0.00     0.143 C 
HETATM    2  C   UNL     1     -44.424 -54.474  13.768  1.00  0.00     0.060 C 
HETATM    3  N   UNL     1     -45.226 -54.453  12.929  1.00  0.00    -0.197 NA
ENDROOT
BRANCH   1   4
HETATM    4  C   UNL     1     -42.008 -54.246  14.214  1.00  0.00     0.136 C 
BRANCH   4   5
HETATM    5  N   UNL     1     -42.016 -53.164  13.248  1.00  0.00    -0.359 N 
HETATM    6  C   UNL     1     -40.866 -52.583  12.762  1.00  0.00     0.245 C 
HETATM    7  O   UNL     1     -39.734 -52.947  13.066  1.00  0.00    -0.272 OA
HETATM    8  H   UNL     1     -42.893 -52.702  13.014  1.00  0.00     0.162 HD
BRANCH   6   9
HETATM    9  C   UNL     1     -41.124 -51.434  11.783  1.00  0.00     0.372 C 
BRANCH   9  10
HETATM   10  N   UNL     1     -41.163 -50.120  12.457  1.00  0.00     0.098 N 
HETATM   11  H   UNL     1     -41.402 -50.269  13.437  1.00  0.00     0.317 HD
BRANCH  10  12
HETATM   12  C   UNL     1     -42.117 -49.158  11.852  1.00  0.00     0.236 C 
HETATM   13  C   UNL     1     -42.896 -48.382  12.924  1.00  0.00     0.044 C 
BRANCH  12  14
HETATM   14  C   UNL     1     -41.394 -48.130  10.951  1.00  0.00     0.183 C 
BRANCH  14  15
HETATM   15  N   UNL     1     -42.232 -47.511   9.945  1.00  0.00    -0.302 N 
HETATM   16  C   UNL     1     -42.675 -46.217   9.946  1.00  0.00     0.111 A 
HETATM   17  C   UNL     1     -43.504 -46.095   8.857  1.00  0.00     0.037 A 
HETATM   18  C   UNL     1     -43.521 -47.377   8.279  1.00  0.00     0.108 A 
HETATM   19  N   UNL     1     -42.761 -48.251   8.948  1.00  0.00    -0.310 N 
ATOM     20  HN  UNL     1     -42.616 -49.241   8.751  1.00  0.00     0.186 HD
ENDBRANCH  14  15
ENDBRANCH  12  14
ENDBRANCH  10  12
ENDBRANCH   9  10
ENDBRANCH   6   9
ENDBRANCH   4   5
ENDBRANCH   1   4
TORSDOF 7
ENDMDL
MODEL 5
REMARK VINA RESULT:      -4.8      2.982      3.501
REMARK  7 active torsions:
REMARK  status: ('A' for Active; 'I' for Inactive)
REMARK    1  A    between atoms: C_2  and  C_3 
REMARK    2  A    between atoms: C_2  and  N_10 
REMARK    3  A    between atoms: C_3  and  N_4 
REMARK    4  A    between atoms: N_10  and  C_11 
REMARK    5  A    between atoms: C_11  and  C_12 
REMARK       I    between atoms: C_12  and  N_14 
REMARK    6  A    between atoms: N_14  and  C_15 
REMARK    7  A    between atoms: C_15  and  C_16 
ROOT
HETATM    1  C   UNL     1     -44.803 -46.540   8.925  1.00  0.00     0.143 C 
HETATM    2  C   UNL     1     -46.166 -47.083   8.973  1.00  0.00     0.060 C 
HETATM    3  N   UNL     1     -47.242 -47.516   9.042  1.00  0.00    -0.197 NA
ENDROOT
BRANCH   1   4
HETATM    4  C   UNL     1     -43.840 -47.413   9.727  1.00  0.00     0.136 C 
BRANCH   4   5
HETATM    5  N   UNL     1     -42.711 -46.670  10.255  1.00  0.00    -0.359 N 
HETATM    6  C   UNL     1     -41.537 -47.270  10.651  1.00  0.00     0.245 C 
HETATM    7  O   UNL     1     -41.319 -48.475  10.560  1.00  0.00    -0.272 OA
HETATM    8  H   UNL     1     -42.819 -45.684  10.486  1.00  0.00     0.162 HD
BRANCH   6   9
HETATM    9  C   UNL     1     -40.504 -46.289  11.211  1.00  0.00     0.372 C 
BRANCH   9  10
HETATM   10  N   UNL     1     -40.499 -46.261  12.689  1.00  0.00     0.098 N 
HETATM   11  H   UNL     1     -40.615 -45.294  12.990  1.00  0.00     0.317 HD
BRANCH  10  12
HETATM   12  C   UNL     1     -39.273 -46.830  13.300  1.00  0.00     0.236 C 
HETATM   13  C   UNL     1     -38.871 -46.073  14.575  1.00  0.00     0.044 C 
BRANCH  12  14
HETATM   14  C   UNL     1     -39.461 -48.320  13.671  1.00  0.00     0.183 C 
BRANCH  14  15
HETATM   15  N   UNL     1     -38.663 -49.243  12.891  1.00  0.00    -0.302 N 
HETATM   16  C   UNL     1     -37.968 -50.318  13.374  1.00  0.00     0.111 A 
HETATM   17  C   UNL     1     -37.292 -50.849  12.302  1.00  0.00     0.037 A 
HETATM   18  C   UNL     1     -37.619 -50.008  11.223  1.00  0.00     0.108 A 
HETATM   19  N   UNL     1     -38.441 -49.015  11.579  1.00  0.00    -0.310 N 
ATOM     20  HN  UNL     1     -38.812 -48.263  10.998  1.00  0.00     0.186 HD
ENDBRANCH  14  15
ENDBRANCH  12  14
ENDBRANCH  10  12
ENDBRANCH   9  10
ENDBRANCH   6   9
ENDBRANCH   4   5
ENDBRANCH   1   4
TORSDOF 7
ENDMDL
MODEL 6
REMARK VINA RESULT:      -4.8      3.935      5.987
REMARK  7 active torsions:
REMARK  status: ('A' for Active; 'I' for Inactive)
REMARK    1  A    between atoms: C_2  and  C_3 
REMARK    2  A    between atoms: C_2  and  N_10 
REMARK    3  A    between atoms: C_3  and  N_4 
REMARK    4  A    between atoms: N_10  and  C_11 
REMARK    5  A    between atoms: C_11  and  C_12 
REMARK       I    between atoms: C_12  and  N_14 
REMARK    6  A    between atoms: N_14  and  C_15 
REMARK    7  A    between atoms: C_15  and  C_16 
ROOT
HETATM    1  C   UNL     1     -46.566 -51.458  14.316  1.00  0.00     0.143 C 
HETATM    2  C   UNL     1     -46.351 -52.075  13.001  1.00  0.00     0.060 C 
HETATM    3  N   UNL     1     -46.178 -52.590  11.975  1.00  0.00    -0.197 NA
ENDROOT
BRANCH   1   4
HETATM    4  C   UNL     1     -45.515 -51.930  15.318  1.00  0.00     0.136 C 
BRANCH   4   5
HETATM    5  N   UNL     1     -44.440 -52.682  14.697  1.00  0.00    -0.359 N 
HETATM    6  C   UNL     1     -44.124 -53.973  15.054  1.00  0.00     0.245 C 
HETATM    7  O   UNL     1     -44.739 -54.621  15.896  1.00  0.00    -0.272 OA
HETATM    8  H   UNL     1     -43.788 -52.209  14.073  1.00  0.00     0.162 HD
BRANCH   6   9
HETATM    9  C   UNL     1     -42.927 -54.547  14.290  1.00  0.00     0.372 C 
BRANCH   9  10
HETATM   10  N   UNL     1     -41.645 -54.283  14.974  1.00  0.00     0.098 N 
HETATM   11  H   UNL     1     -41.834 -53.724  15.805  1.00  0.00     0.317 HD
BRANCH  10  12
HETATM   12  C   UNL     1     -40.639 -53.593  14.129  1.00  0.00     0.236 C 
HETATM   13  C   UNL     1     -39.372 -54.441  13.948  1.00  0.00     0.044 C 
BRANCH  12  14
HETATM   14  C   UNL     1     -41.201 -53.273  12.724  1.00  0.00     0.183 C 
BRANCH  14  15
HETATM   15  N   UNL     1     -41.156 -51.871  12.359  1.00  0.00    -0.302 N 
HETATM   16  C   UNL     1     -42.153 -50.955  12.546  1.00  0.00     0.111 A 
HETATM   17  C   UNL     1     -41.711 -49.786  11.974  1.00  0.00     0.037 A 
HETATM   18  C   UNL     1     -40.449 -50.106  11.443  1.00  0.00     0.108 A 
HETATM   19  N   UNL     1     -40.111 -51.382  11.658  1.00  0.00    -0.310 N 
ATOM     20  HN  UNL     1     -39.265 -51.870  11.363  1.00  0.00     0.186 HD
ENDBRANCH  14  15
ENDBRANCH  12  14
ENDBRANCH  10  12
ENDBRANCH   9  10
ENDBRANCH   6   9
ENDBRANCH   4   5
ENDBRANCH   1   4
TORSDOF 7
ENDMDL
MODEL 7
REMARK VINA RESULT:      -4.8      4.475      6.509
REMARK  7 active torsions:
REMARK  status: ('A' for Active; 'I' for Inactive)
REMARK    1  A    between atoms: C_2  and  C_3 
REMARK    2  A    between atoms: C_2  and  N_10 
REMARK    3  A    between atoms: C_3  and  N_4 
REMARK    4  A    between atoms: N_10  and  C_11 
REMARK    5  A    between atoms: C_11  and  C_12 
REMARK       I    between atoms: C_12  and  N_14 
REMARK    6  A    between atoms: N_14  and  C_15 
REMARK    7  A    between atoms: C_15  and  C_16 
ROOT
HETATM    1  C   UNL     1     -46.645 -51.433  15.416  1.00  0.00     0.143 C 
HETATM    2  C   UNL     1     -47.609 -51.416  16.523  1.00  0.00     0.060 C 
HETATM    3  N   UNL     1     -48.366 -51.433  17.403  1.00  0.00    -0.197 NA
ENDROOT
BRANCH   1   4
HETATM    4  C   UNL     1     -46.897 -52.622  14.492  1.00  0.00     0.136 C 
BRANCH   4   5
HETATM    5  N   UNL     1     -45.731 -52.984  13.707  1.00  0.00    -0.359 N 
HETATM    6  C   UNL     1     -45.286 -54.280  13.580  1.00  0.00     0.245 C 
HETATM    7  O   UNL     1     -45.847 -55.250  14.081  1.00  0.00    -0.272 OA
HETATM    8  H   UNL     1     -45.120 -52.255  13.345  1.00  0.00     0.162 HD
BRANCH   6   9
HETATM    9  C   UNL     1     -44.015 -54.413  12.736  1.00  0.00     0.372 C 
BRANCH   9  10
HETATM   10  N   UNL     1     -43.551 -53.113  12.209  1.00  0.00     0.098 N 
HETATM   11  H   UNL     1     -43.466 -53.191  11.196  1.00  0.00     0.317 HD
BRANCH  10  12
HETATM   12  C   UNL     1     -42.263 -52.653  12.783  1.00  0.00     0.236 C 
HETATM   13  C   UNL     1     -41.563 -53.768  13.573  1.00  0.00     0.044 C 
BRANCH  12  14
HETATM   14  C   UNL     1     -41.291 -52.168  11.681  1.00  0.00     0.183 C 
BRANCH  14  15
HETATM   15  N   UNL     1     -40.847 -50.797  11.827  1.00  0.00    -0.302 N 
HETATM   16  C   UNL     1     -40.815 -50.076  12.989  1.00  0.00     0.111 A 
HETATM   17  C   UNL     1     -40.411 -48.809  12.642  1.00  0.00     0.037 A 
HETATM   18  C   UNL     1     -40.253 -48.856  11.246  1.00  0.00     0.108 A 
HETATM   19  N   UNL     1     -40.534 -50.062  10.738  1.00  0.00    -0.310 N 
ATOM     20  HN  UNL     1     -40.518 -50.356   9.762  1.00  0.00     0.186 HD
ENDBRANCH  14  15
ENDBRANCH  12  14
ENDBRANCH  10  12
ENDBRANCH   9  10
ENDBRANCH   6   9
ENDBRANCH   4   5
ENDBRANCH   1   4
TORSDOF 7
ENDMDL
MODEL 8
REMARK VINA RESULT:      -4.7      3.734      5.299
REMARK  7 active torsions:
REMARK  status: ('A' for Active; 'I' for Inactive)
REMARK    1  A    between atoms: C_2  and  C_3 
REMARK    2  A    between atoms: C_2  and  N_10 
REMARK    3  A    between atoms: C_3  and  N_4 
REMARK    4  A    between atoms: N_10  and  C_11 
REMARK    5  A    between atoms: C_11  and  C_12 
REMARK       I    between atoms: C_12  and  N_14 
REMARK    6  A    between atoms: N_14  and  C_15 
REMARK    7  A    between atoms: C_15  and  C_16 
ROOT
HETATM    1  C   UNL     1     -46.558 -51.526  13.189  1.00  0.00     0.143 C 
HETATM    2  C   UNL     1     -46.765 -51.466  14.641  1.00  0.00     0.060 C 
HETATM    3  N   UNL     1     -46.898 -51.423  15.794  1.00  0.00    -0.197 NA
ENDROOT
BRANCH   1   4
HETATM    4  C   UNL     1     -45.740 -52.757  12.806  1.00  0.00     0.136 C 
BRANCH   4   5
HETATM    5  N   UNL     1     -44.430 -52.423  12.278  1.00  0.00    -0.359 N 
HETATM    6  C   UNL     1     -43.256 -52.785  12.899  1.00  0.00     0.245 C 
HETATM    7  O   UNL     1     -43.203 -53.453  13.928  1.00  0.00    -0.272 OA
HETATM    8  H   UNL     1     -44.351 -51.773  11.498  1.00  0.00     0.162 HD
BRANCH   6   9
HETATM    9  C   UNL     1     -42.001 -52.287  12.178  1.00  0.00     0.372 C 
BRANCH   9  10
HETATM   10  N   UNL     1     -41.500 -51.014  12.736  1.00  0.00     0.098 N 
HETATM   11  H   UNL     1     -41.715 -50.995  13.732  1.00  0.00     0.317 HD
BRANCH  10  12
HETATM   12  C   UNL     1     -42.061 -49.805  12.083  1.00  0.00     0.236 C 
HETATM   13  C   UNL     1     -42.657 -48.831  13.109  1.00  0.00     0.044 C 
BRANCH  12  14
HETATM   14  C   UNL     1     -40.985 -49.045  11.274  1.00  0.00     0.183 C 
BRANCH  14  15
HETATM   15  N   UNL     1     -39.619 -49.339  11.657  1.00  0.00    -0.302 N 
HETATM   16  C   UNL     1     -38.954 -48.829  12.738  1.00  0.00     0.111 A 
HETATM   17  C   UNL     1     -37.669 -49.309  12.659  1.00  0.00     0.037 A 
HETATM   18  C   UNL     1     -37.649 -50.077  11.481  1.00  0.00     0.108 A 
HETATM   19  N   UNL     1     -38.831 -50.085  10.854  1.00  0.00    -0.310 N 
ATOM     20  HN  UNL     1     -39.078 -50.545   9.978  1.00  0.00     0.186 HD
ENDBRANCH  14  15
ENDBRANCH  12  14
ENDBRANCH  10  12
ENDBRANCH   9  10
ENDBRANCH   6   9
ENDBRANCH   4   5
ENDBRANCH   1   4
TORSDOF 7
ENDMDL
MODEL 9
REMARK VINA RESULT:      -4.6      3.185      5.741
REMARK  7 active torsions:
REMARK  status: ('A' for Active; 'I' for Inactive)
REMARK    1  A    between atoms: C_2  and  C_3 
REMARK    2  A    between atoms: C_2  and  N_10 
REMARK    3  A    between atoms: C_3  and  N_4 
REMARK    4  A    between atoms: N_10  and  C_11 
REMARK    5  A    between atoms: C_11  and  C_12 
REMARK       I    between atoms: C_12  and  N_14 
REMARK    6  A    between atoms: N_14  and  C_15 
REMARK    7  A    between atoms: C_15  and  C_16 
ROOT
HETATM    1  C   UNL     1     -45.701 -51.643  13.953  1.00  0.00     0.143 C 
HETATM    2  C   UNL     1     -45.512 -52.868  13.167  1.00  0.00     0.060 C 
HETATM    3  N   UNL     1     -45.334 -53.841  12.557  1.00  0.00    -0.197 NA
ENDROOT
BRANCH   1   4
HETATM    4  C   UNL     1     -44.478 -50.735  13.850  1.00  0.00     0.136 C 
BRANCH   4   5
HETATM    5  N   UNL     1     -43.513 -51.197  12.870  1.00  0.00    -0.359 N 
HETATM    6  C   UNL     1     -42.246 -51.619  13.205  1.00  0.00     0.245 C 
HETATM    7  O   UNL     1     -41.828 -51.682  14.357  1.00  0.00    -0.272 OA
HETATM    8  H   UNL     1     -43.705 -51.077  11.877  1.00  0.00     0.162 HD
BRANCH   6   9
HETATM    9  C   UNL     1     -41.393 -52.021  11.999  1.00  0.00     0.372 C 
BRANCH   9  10
HETATM   10  N   UNL     1     -40.011 -51.507  12.090  1.00  0.00     0.098 N 
HETATM   11  H   UNL     1     -39.609 -51.826  12.971  1.00  0.00     0.317 HD
BRANCH  10  12
HETATM   12  C   UNL     1     -39.909 -50.029  12.003  1.00  0.00     0.236 C 
HETATM   13  C   UNL     1     -38.447 -49.562  11.975  1.00  0.00     0.044 C 
BRANCH  12  14
HETATM   14  C   UNL     1     -40.607 -49.485  10.735  1.00  0.00     0.183 C 
BRANCH  14  15
HETATM   15  N   UNL     1     -41.330 -48.244  10.926  1.00  0.00    -0.302 N 
HETATM   16  C   UNL     1     -42.549 -48.104  11.530  1.00  0.00     0.111 A 
HETATM   17  C   UNL     1     -42.885 -46.777  11.409  1.00  0.00     0.037 A 
HETATM   18  C   UNL     1     -41.819 -46.204  10.692  1.00  0.00     0.108 A 
HETATM   19  N   UNL     1     -40.875 -47.098  10.377  1.00  0.00    -0.310 N 
ATOM     20  HN  UNL     1     -40.015 -46.949   9.849  1.00  0.00     0.186 HD
ENDBRANCH  14  15
ENDBRANCH  12  14
ENDBRANCH  10  12
ENDBRANCH   9  10
ENDBRANCH   6   9
ENDBRANCH   4   5
ENDBRANCH   1   4
TORSDOF 7
ENDMDL
