MODEL 1
REMARK VINA RESULT:      -6.9      0.000      0.000
REMARK  6 active torsions:
REMARK  status: ('A' for Active; 'I' for Inactive)
REMARK    1  A    between atoms: C_7  and  N_8 
REMARK       I    between atoms: N_8  and  C_9 
REMARK    2  A    between atoms: C_9  and  C_11 
REMARK    3  A    between atoms: C_11  and  N_12 
REMARK    4  A    between atoms: N_12  and  C_13 
REMARK    5  A    between atoms: N_16  and  C_17 
REMARK    6  A    between atoms: C_17  and  C_18 
REMARK       I    between atoms: C_18  and  N_20 
ROOT
HETATM    1  N   UNL     1     -40.396 -49.849  10.826  1.00  0.00    -0.366 N 
HETATM    2  H   UNL     1     -40.731 -50.583  10.207  1.00  0.00     0.161 HD
ENDROOT
BRANCH   1   3
HETATM    3  C   UNL     1     -39.924 -50.353  12.121  1.00  0.00     0.224 C 
BRANCH   3   4
HETATM    4  C   UNL     1     -40.471 -51.744  12.471  1.00  0.00     0.235 C 
HETATM    5  N   UNL     1     -41.838 -51.811  12.621  1.00  0.00    -0.355 N 
HETATM    6  H   UNL     1     -42.317 -50.912  12.630  1.00  0.00     0.162 HD
HETATM    7  O   UNL     1     -39.730 -52.717  12.591  1.00  0.00    -0.272 OA
BRANCH   5   8
HETATM    8  C   UNL     1     -42.549 -53.033  12.943  1.00  0.00     0.088 C 
HETATM    9  C   UNL     1     -44.054 -52.940  12.602  1.00  0.00     0.004 C 
HETATM   10  C   UNL     1     -44.788 -51.798  13.317  1.00  0.00     0.012 C 
HETATM   11  C   UNL     1     -44.727 -54.291  12.902  1.00  0.00     0.006 C 
HETATM   12  C   UNL     1     -44.494 -54.762  14.339  1.00  0.00     0.001 C 
HETATM   13  C   UNL     1     -43.012 -54.783  14.705  1.00  0.00     0.002 C 
HETATM   14  C   UNL     1     -42.312 -53.459  14.397  1.00  0.00     0.025 C 
ENDBRANCH   5   8
ENDBRANCH   3   4
ENDBRANCH   1   3
BRANCH   1  15
HETATM   15  C   UNL     1     -41.079 -48.692  10.707  1.00  0.00     0.117 A 
HETATM   16  C   UNL     1     -40.635 -47.412  11.106  1.00  0.00     0.068 A 
HETATM   17  C   UNL     1     -41.623 -46.546  10.701  1.00  0.00     0.114 A 
HETATM   18  N   UNL     1     -42.582 -47.323  10.122  1.00  0.00    -0.293 N 
HETATM   19  N   UNL     1     -42.276 -48.635  10.129  1.00  0.00    -0.283 N 
ATOM     20  HN  UNL     1     -42.835 -49.410   9.771  1.00  0.00     0.188 HD
BRANCH  18  21
HETATM   21  C   UNL     1     -43.791 -46.870   9.461  1.00  0.00     0.250 C 
BRANCH  21  22
HETATM   22  C   UNL     1     -44.115 -47.696   8.241  1.00  0.00     0.235 C 
HETATM   23  O   UNL     1     -43.284 -47.967   7.379  1.00  0.00    -0.272 OA
HETATM   24  N   UNL     1     -45.386 -48.189   8.156  1.00  0.00    -0.369 N 
HETATM   25  H   UNL     1     -46.131 -47.889   8.773  1.00  0.00     0.159 HD
HETATM   26  H   UNL     1     -45.630 -48.716   7.326  1.00  0.00     0.159 HD
ENDBRANCH  21  22
ENDBRANCH  18  21
ENDBRANCH   1  15
TORSDOF 6
ENDMDL
MODEL 2
REMARK VINA RESULT:      -6.4      1.571      2.310
REMARK  6 active torsions:
REMARK  status: ('A' for Active; 'I' for Inactive)
REMARK    1  A    between atoms: C_7  and  N_8 
REMARK       I    between atoms: N_8  and  C_9 
REMARK    2  A    between atoms: C_9  and  C_11 
REMARK    3  A    between atoms: C_11  and  N_12 
REMARK    4  A    between atoms: N_12  and  C_13 
REMARK    5  A    between atoms: N_16  and  C_17 
REMARK    6  A    between atoms: C_17  and  C_18 
REMARK       I    between atoms: C_18  and  N_20 
ROOT
HETATM    1  N   UNL     1     -40.341 -50.540  11.650  1.00  0.00    -0.366 N 
HETATM    2  H   UNL     1     -39.435 -50.689  11.212  1.00  0.00     0.161 HD
ENDROOT
BRANCH   1   3
HETATM    3  C   UNL     1     -41.140 -51.766  11.760  1.00  0.00     0.224 C 
BRANCH   3   4
HETATM    4  C   UNL     1     -42.048 -51.794  12.998  1.00  0.00     0.235 C 
HETATM    5  N   UNL     1     -43.391 -51.937  12.730  1.00  0.00    -0.355 N 
HETATM    6  H   UNL     1     -43.647 -51.862  11.747  1.00  0.00     0.162 HD
HETATM    7  O   UNL     1     -41.591 -51.706  14.135  1.00  0.00    -0.272 OA
BRANCH   5   8
HETATM    8  C   UNL     1     -44.411 -51.994  13.760  1.00  0.00     0.088 C 
HETATM    9  C   UNL     1     -44.570 -53.415  14.346  1.00  0.00     0.004 C 
HETATM   10  C   UNL     1     -44.930 -54.484  13.305  1.00  0.00     0.012 C 
HETATM   11  C   UNL     1     -45.614 -53.384  15.476  1.00  0.00     0.006 C 
HETATM   12  C   UNL     1     -46.954 -52.797  15.029  1.00  0.00     0.001 C 
HETATM   13  C   UNL     1     -46.792 -51.424  14.380  1.00  0.00     0.002 C 
HETATM   14  C   UNL     1     -45.745 -51.420  13.267  1.00  0.00     0.025 C 
ENDBRANCH   5   8
ENDBRANCH   3   4
ENDBRANCH   1   3
BRANCH   1  15
HETATM   15  C   UNL     1     -40.891 -49.345  11.354  1.00  0.00     0.117 A 
HETATM   16  C   UNL     1     -40.242 -48.091  11.389  1.00  0.00     0.068 A 
HETATM   17  C   UNL     1     -41.171 -47.191  10.923  1.00  0.00     0.114 A 
HETATM   18  N   UNL     1     -42.294 -47.919  10.663  1.00  0.00    -0.293 N 
HETATM   19  N   UNL     1     -42.148 -49.232  10.933  1.00  0.00    -0.283 N 
ATOM     20  HN  UNL     1     -42.844 -49.971  10.837  1.00  0.00     0.188 HD
BRANCH  18  21
HETATM   21  C   UNL     1     -43.528 -47.438  10.072  1.00  0.00     0.250 C 
BRANCH  21  22
HETATM   22  C   UNL     1     -43.321 -46.909   8.675  1.00  0.00     0.235 C 
HETATM   23  O   UNL     1     -43.251 -45.710   8.419  1.00  0.00    -0.272 OA
HETATM   24  N   UNL     1     -43.156 -47.838   7.687  1.00  0.00    -0.369 N 
HETATM   25  H   UNL     1     -43.331 -48.825   7.830  1.00  0.00     0.159 HD
HETATM   26  H   UNL     1     -43.051 -47.499   6.738  1.00  0.00     0.159 HD
ENDBRANCH  21  22
ENDBRANCH  18  21
ENDBRANCH   1  15
TORSDOF 6
ENDMDL
MODEL 3
REMARK VINA RESULT:      -6.4      1.297      2.185
REMARK  6 active torsions:
REMARK  status: ('A' for Active; 'I' for Inactive)
REMARK    1  A    between atoms: C_7  and  N_8 
REMARK       I    between atoms: N_8  and  C_9 
REMARK    2  A    between atoms: C_9  and  C_11 
REMARK    3  A    between atoms: C_11  and  N_12 
REMARK    4  A    between atoms: N_12  and  C_13 
REMARK    5  A    between atoms: N_16  and  C_17 
REMARK    6  A    between atoms: C_17  and  C_18 
REMARK       I    between atoms: C_18  and  N_20 
ROOT
HETATM    1  N   UNL     1     -40.340 -49.839  10.709  1.00  0.00    -0.366 N 
HETATM    2  H   UNL     1     -40.835 -50.636  10.315  1.00  0.00     0.161 HD
ENDROOT
BRANCH   1   3
HETATM    3  C   UNL     1     -39.495 -50.192  11.856  1.00  0.00     0.224 C 
BRANCH   3   4
HETATM    4  C   UNL     1     -40.281 -50.781  13.036  1.00  0.00     0.235 C 
HETATM    5  N   UNL     1     -40.621 -52.109  12.904  1.00  0.00    -0.355 N 
HETATM    6  H   UNL     1     -40.445 -52.511  11.985  1.00  0.00     0.162 HD
HETATM    7  O   UNL     1     -40.566 -50.105  14.023  1.00  0.00    -0.272 OA
BRANCH   5   8
HETATM    8  C   UNL     1     -41.356 -52.851  13.911  1.00  0.00     0.088 C 
HETATM    9  C   UNL     1     -40.418 -53.576  14.901  1.00  0.00     0.004 C 
HETATM   10  C   UNL     1     -39.451 -54.566  14.238  1.00  0.00     0.012 C 
HETATM   11  C   UNL     1     -41.263 -54.281  15.978  1.00  0.00     0.006 C 
HETATM   12  C   UNL     1     -42.309 -55.226  15.384  1.00  0.00     0.001 C 
HETATM   13  C   UNL     1     -43.189 -54.532  14.347  1.00  0.00     0.002 C 
HETATM   14  C   UNL     1     -42.376 -53.805  13.277  1.00  0.00     0.025 C 
ENDBRANCH   5   8
ENDBRANCH   3   4
ENDBRANCH   1   3
BRANCH   1  15
HETATM   15  C   UNL     1     -41.044 -48.690  10.659  1.00  0.00     0.117 A 
HETATM   16  C   UNL     1     -40.641 -47.437  11.171  1.00  0.00     0.068 A 
HETATM   17  C   UNL     1     -41.634 -46.561  10.803  1.00  0.00     0.114 A 
HETATM   18  N   UNL     1     -42.558 -47.308  10.134  1.00  0.00    -0.293 N 
HETATM   19  N   UNL     1     -42.223 -48.611  10.048  1.00  0.00    -0.283 N 
ATOM     20  HN  UNL     1     -42.754 -49.365   9.613  1.00  0.00     0.188 HD
BRANCH  18  21
HETATM   21  C   UNL     1     -43.754 -46.827   9.471  1.00  0.00     0.250 C 
BRANCH  21  22
HETATM   22  C   UNL     1     -44.115 -47.667   8.271  1.00  0.00     0.235 C 
HETATM   23  O   UNL     1     -43.308 -47.956   7.392  1.00  0.00    -0.272 OA
HETATM   24  N   UNL     1     -45.392 -48.149   8.223  1.00  0.00    -0.369 N 
HETATM   25  H   UNL     1     -46.120 -47.834   8.853  1.00  0.00     0.159 HD
HETATM   26  H   UNL     1     -45.660 -48.685   7.406  1.00  0.00     0.159 HD
ENDBRANCH  21  22
ENDBRANCH  18  21
ENDBRANCH   1  15
TORSDOF 6
ENDMDL
MODEL 4
REMARK VINA RESULT:      -6.2      2.208      6.642
REMARK  6 active torsions:
REMARK  status: ('A' for Active; 'I' for Inactive)
REMARK    1  A    between atoms: C_7  and  N_8 
REMARK       I    between atoms: N_8  and  C_9 
REMARK    2  A    between atoms: C_9  and  C_11 
REMARK    3  A    between atoms: C_11  and  N_12 
REMARK    4  A    between atoms: N_12  and  C_13 
REMARK    5  A    between atoms: N_16  and  C_17 
REMARK    6  A    between atoms: C_17  and  C_18 
REMARK       I    between atoms: C_18  and  N_20 
ROOT
HETATM    1  N   UNL     1     -40.584 -51.266  11.279  1.00  0.00    -0.366 N 
HETATM    2  H   UNL     1     -39.940 -52.013  11.031  1.00  0.00     0.161 HD
ENDROOT
BRANCH   1   3
HETATM    3  C   UNL     1     -39.994 -49.928  11.158  1.00  0.00     0.224 C 
BRANCH   3   4
HETATM    4  C   UNL     1     -41.015 -48.793  11.323  1.00  0.00     0.235 C 
HETATM    5  N   UNL     1     -41.742 -48.497  10.192  1.00  0.00    -0.355 N 
HETATM    6  H   UNL     1     -41.424 -48.956   9.340  1.00  0.00     0.162 HD
HETATM    7  O   UNL     1     -41.168 -48.213  12.395  1.00  0.00    -0.272 OA
BRANCH   5   8
HETATM    8  C   UNL     1     -42.761 -47.465  10.142  1.00  0.00     0.088 C 
HETATM    9  C   UNL     1     -43.824 -47.746   9.057  1.00  0.00     0.004 C 
HETATM   10  C   UNL     1     -43.253 -47.874   7.639  1.00  0.00     0.012 C 
HETATM   11  C   UNL     1     -44.906 -46.653   9.111  1.00  0.00     0.006 C 
HETATM   12  C   UNL     1     -44.327 -45.242   8.992  1.00  0.00     0.001 C 
HETATM   13  C   UNL     1     -43.222 -44.985  10.014  1.00  0.00     0.002 C 
HETATM   14  C   UNL     1     -42.144 -46.068   9.997  1.00  0.00     0.025 C 
ENDBRANCH   5   8
ENDBRANCH   3   4
ENDBRANCH   1   3
BRANCH   1  15
HETATM   15  C   UNL     1     -41.431 -51.594  12.276  1.00  0.00     0.117 A 
HETATM   16  C   UNL     1     -41.108 -51.706  13.647  1.00  0.00     0.068 A 
HETATM   17  C   UNL     1     -42.302 -51.965  14.277  1.00  0.00     0.114 A 
HETATM   18  N   UNL     1     -43.240 -52.015  13.289  1.00  0.00    -0.293 N 
HETATM   19  N   UNL     1     -42.726 -51.806  12.060  1.00  0.00    -0.283 N 
ATOM     20  HN  UNL     1     -43.219 -51.810  11.168  1.00  0.00     0.188 HD
BRANCH  18  21
HETATM   21  C   UNL     1     -44.672 -52.178  13.452  1.00  0.00     0.250 C 
BRANCH  21  22
HETATM   22  C   UNL     1     -45.130 -53.571  13.098  1.00  0.00     0.235 C 
HETATM   23  O   UNL     1     -44.491 -54.314  12.358  1.00  0.00    -0.272 OA
HETATM   24  N   UNL     1     -46.283 -54.004  13.686  1.00  0.00    -0.369 N 
HETATM   25  H   UNL     1     -46.902 -53.386  14.197  1.00  0.00     0.159 HD
HETATM   26  H   UNL     1     -46.623 -54.924  13.431  1.00  0.00     0.159 HD
ENDBRANCH  21  22
ENDBRANCH  18  21
ENDBRANCH   1  15
TORSDOF 6
ENDMDL
MODEL 5
REMARK VINA RESULT:      -6.2      2.185      2.755
REMARK  6 active torsions:
REMARK  status: ('A' for Active; 'I' for Inactive)
REMARK    1  A    between atoms: C_7  and  N_8 
REMARK       I    between atoms: N_8  and  C_9 
REMARK    2  A    between atoms: C_9  and  C_11 
REMARK    3  A    between atoms: C_11  and  N_12 
REMARK    4  A    between atoms: N_12  and  C_13 
REMARK    5  A    between atoms: N_16  and  C_17 
REMARK    6  A    between atoms: C_17  and  C_18 
REMARK       I    between atoms: C_18  and  N_20 
ROOT
HETATM    1  N   UNL     1     -40.712 -50.279  10.916  1.00  0.00    -0.366 N 
HETATM    2  H   UNL     1     -41.506 -50.831  10.602  1.00  0.00     0.161 HD
ENDROOT
BRANCH   1   3
HETATM    3  C   UNL     1     -39.948 -50.922  11.991  1.00  0.00     0.224 C 
BRANCH   3   4
HETATM    4  C   UNL     1     -40.579 -52.230  12.491  1.00  0.00     0.235 C 
HETATM    5  N   UNL     1     -41.956 -52.235  12.523  1.00  0.00    -0.355 N 
HETATM    6  H   UNL     1     -42.396 -51.333  12.354  1.00  0.00     0.162 HD
HETATM    7  O   UNL     1     -39.892 -53.193  12.823  1.00  0.00    -0.272 OA
BRANCH   5   8
HETATM    8  C   UNL     1     -42.742 -53.375  12.955  1.00  0.00     0.088 C 
HETATM    9  C   UNL     1     -44.238 -53.221  12.601  1.00  0.00     0.004 C 
HETATM   10  C   UNL     1     -44.897 -51.973  13.202  1.00  0.00     0.012 C 
HETATM   11  C   UNL     1     -44.994 -54.493  13.025  1.00  0.00     0.006 C 
HETATM   12  C   UNL     1     -44.789 -54.839  14.500  1.00  0.00     0.001 C 
HETATM   13  C   UNL     1     -43.310 -54.918  14.873  1.00  0.00     0.002 C 
HETATM   14  C   UNL     1     -42.529 -53.676  14.444  1.00  0.00     0.025 C 
ENDBRANCH   5   8
ENDBRANCH   3   4
ENDBRANCH   1   3
BRANCH   1  15
HETATM   15  C   UNL     1     -40.935 -48.949  10.884  1.00  0.00     0.117 A 
HETATM   16  C   UNL     1     -42.169 -48.312  10.629  1.00  0.00     0.068 A 
HETATM   17  C   UNL     1     -41.922 -46.970  10.795  1.00  0.00     0.114 A 
HETATM   18  N   UNL     1     -40.599 -46.872  11.108  1.00  0.00    -0.293 N 
HETATM   19  N   UNL     1     -39.976 -48.067  11.153  1.00  0.00    -0.283 N 
ATOM     20  HN  UNL     1     -38.992 -48.253  11.349  1.00  0.00     0.188 HD
BRANCH  18  21
HETATM   21  C   UNL     1     -39.872 -45.668  11.462  1.00  0.00     0.250 C 
BRANCH  21  22
HETATM   22  C   UNL     1     -39.732 -44.725  10.294  1.00  0.00     0.235 C 
HETATM   23  O   UNL     1     -40.268 -43.621  10.261  1.00  0.00    -0.272 OA
HETATM   24  N   UNL     1     -38.925 -45.132   9.271  1.00  0.00    -0.369 N 
HETATM   25  H   UNL     1     -38.568 -46.078   9.199  1.00  0.00     0.159 HD
HETATM   26  H   UNL     1     -38.849 -44.526   8.463  1.00  0.00     0.159 HD
ENDBRANCH  21  22
ENDBRANCH  18  21
ENDBRANCH   1  15
TORSDOF 6
ENDMDL
MODEL 6
REMARK VINA RESULT:      -6.2      1.837      2.763
REMARK  6 active torsions:
REMARK  status: ('A' for Active; 'I' for Inactive)
REMARK    1  A    between atoms: C_7  and  N_8 
REMARK       I    between atoms: N_8  and  C_9 
REMARK    2  A    between atoms: C_9  and  C_11 
REMARK    3  A    between atoms: C_11  and  N_12 
REMARK    4  A    between atoms: N_12  and  C_13 
REMARK    5  A    between atoms: N_16  and  C_17 
REMARK    6  A    between atoms: C_17  and  C_18 
REMARK       I    between atoms: C_18  and  N_20 
ROOT
HETATM    1  N   UNL     1     -40.300 -51.520  11.847  1.00  0.00    -0.366 N 
HETATM    2  H   UNL     1     -39.479 -51.793  11.312  1.00  0.00     0.161 HD
ENDROOT
BRANCH   1   3
HETATM    3  C   UNL     1     -41.446 -52.415  11.648  1.00  0.00     0.224 C 
BRANCH   3   4
HETATM    4  C   UNL     1     -42.313 -52.585  12.903  1.00  0.00     0.235 C 
HETATM    5  N   UNL     1     -43.592 -52.085  12.798  1.00  0.00    -0.355 N 
HETATM    6  H   UNL     1     -43.773 -51.532  11.962  1.00  0.00     0.162 HD
HETATM    7  O   UNL     1     -41.885 -53.140  13.913  1.00  0.00    -0.272 OA
BRANCH   5   8
HETATM    8  C   UNL     1     -44.568 -52.153  13.868  1.00  0.00     0.088 C 
HETATM    9  C   UNL     1     -45.958 -52.602  13.363  1.00  0.00     0.004 C 
HETATM   10  C   UNL     1     -46.552 -51.694  12.277  1.00  0.00     0.012 C 
HETATM   11  C   UNL     1     -46.920 -52.720  14.559  1.00  0.00     0.006 C 
HETATM   12  C   UNL     1     -46.999 -51.434  15.384  1.00  0.00     0.001 C 
HETATM   13  C   UNL     1     -45.621 -50.945  15.821  1.00  0.00     0.002 C 
HETATM   14  C   UNL     1     -44.637 -50.839  14.656  1.00  0.00     0.025 C 
ENDBRANCH   5   8
ENDBRANCH   3   4
ENDBRANCH   1   3
BRANCH   1  15
HETATM   15  C   UNL     1     -40.441 -50.184  11.972  1.00  0.00     0.117 A 
HETATM   16  C   UNL     1     -39.997 -49.392  13.054  1.00  0.00     0.068 A 
HETATM   17  C   UNL     1     -40.279 -48.097  12.691  1.00  0.00     0.114 A 
HETATM   18  N   UNL     1     -40.875 -48.176  11.467  1.00  0.00    -0.293 N 
HETATM   19  N   UNL     1     -40.996 -49.441  11.018  1.00  0.00    -0.283 N 
ATOM     20  HN  UNL     1     -41.417 -49.757  10.145  1.00  0.00     0.188 HD
BRANCH  18  21
HETATM   21  C   UNL     1     -41.283 -47.070  10.622  1.00  0.00     0.250 C 
BRANCH  21  22
HETATM   22  C   UNL     1     -42.686 -47.246  10.097  1.00  0.00     0.235 C 
HETATM   23  O   UNL     1     -42.947 -47.915   9.101  1.00  0.00    -0.272 OA
HETATM   24  N   UNL     1     -43.688 -46.660  10.817  1.00  0.00    -0.369 N 
HETATM   25  H   UNL     1     -43.510 -46.000  11.564  1.00  0.00     0.159 HD
HETATM   26  H   UNL     1     -44.632 -46.738  10.458  1.00  0.00     0.159 HD
ENDBRANCH  21  22
ENDBRANCH  18  21
ENDBRANCH   1  15
TORSDOF 6
ENDMDL
MODEL 7
REMARK VINA RESULT:      -5.8      1.387      1.744
REMARK  6 active torsions:
REMARK  status: ('A' for Active; 'I' for Inactive)
REMARK    1  A    between atoms: C_7  and  N_8 
REMARK       I    between atoms: N_8  and  C_9 
REMARK    2  A    between atoms: C_9  and  C_11 
REMARK    3  A    between atoms: C_11  and  N_12 
REMARK    4  A    between atoms: N_12  and  C_13 
REMARK    5  A    between atoms: N_16  and  C_17 
REMARK    6  A    between atoms: C_17  and  C_18 
REMARK       I    between atoms: C_18  and  N_20 
ROOT
HETATM    1  N   UNL     1     -41.597 -50.252  11.285  1.00  0.00    -0.366 N 
HETATM    2  H   UNL     1     -42.371 -50.734  10.836  1.00  0.00     0.161 HD
ENDROOT
BRANCH   1   3
HETATM    3  C   UNL     1     -41.229 -50.830  12.584  1.00  0.00     0.224 C 
BRANCH   3   4
HETATM    4  C   UNL     1     -42.277 -51.807  13.136  1.00  0.00     0.235 C 
HETATM    5  N   UNL     1     -43.522 -51.713  12.555  1.00  0.00    -0.355 N 
HETATM    6  H   UNL     1     -43.651 -50.916  11.933  1.00  0.00     0.162 HD
HETATM    7  O   UNL     1     -42.004 -52.613  14.022  1.00  0.00    -0.272 OA
BRANCH   5   8
HETATM    8  C   UNL     1     -44.645 -52.551  12.929  1.00  0.00     0.088 C 
HETATM    9  C   UNL     1     -45.597 -51.844  13.919  1.00  0.00     0.004 C 
HETATM   10  C   UNL     1     -44.924 -51.396  15.223  1.00  0.00     0.012 C 
HETATM   11  C   UNL     1     -46.796 -52.763  14.214  1.00  0.00     0.006 C 
HETATM   12  C   UNL     1     -46.374 -54.145  14.716  1.00  0.00     0.001 C 
HETATM   13  C   UNL     1     -45.373 -54.816  13.778  1.00  0.00     0.002 C 
HETATM   14  C   UNL     1     -44.181 -53.918  13.450  1.00  0.00     0.025 C 
ENDBRANCH   5   8
ENDBRANCH   3   4
ENDBRANCH   1   3
BRANCH   1  15
HETATM   15  C   UNL     1     -41.588 -48.922  11.059  1.00  0.00     0.117 A 
HETATM   16  C   UNL     1     -40.544 -48.025  11.376  1.00  0.00     0.068 A 
HETATM   17  C   UNL     1     -40.949 -46.810  10.877  1.00  0.00     0.114 A 
HETATM   18  N   UNL     1     -42.178 -47.027  10.327  1.00  0.00    -0.293 N 
HETATM   19  N   UNL     1     -42.591 -48.305  10.440  1.00  0.00    -0.283 N 
ATOM     20  HN  UNL     1     -43.473 -48.707  10.124  1.00  0.00     0.188 HD
BRANCH  18  21
HETATM   21  C   UNL     1     -42.987 -46.071   9.595  1.00  0.00     0.250 C 
BRANCH  21  22
HETATM   22  C   UNL     1     -44.009 -46.748   8.716  1.00  0.00     0.235 C 
HETATM   23  O   UNL     1     -43.720 -47.636   7.919  1.00  0.00    -0.272 OA
HETATM   24  N   UNL     1     -45.309 -46.364   8.882  1.00  0.00    -0.369 N 
HETATM   25  H   UNL     1     -45.575 -45.555   9.431  1.00  0.00     0.159 HD
HETATM   26  H   UNL     1     -46.003 -46.783   8.274  1.00  0.00     0.159 HD
ENDBRANCH  21  22
ENDBRANCH  18  21
ENDBRANCH   1  15
TORSDOF 6
ENDMDL
MODEL 8
REMARK VINA RESULT:      -5.6      4.277      5.484
REMARK  6 active torsions:
REMARK  status: ('A' for Active; 'I' for Inactive)
REMARK    1  A    between atoms: C_7  and  N_8 
REMARK       I    between atoms: N_8  and  C_9 
REMARK    2  A    between atoms: C_9  and  C_11 
REMARK    3  A    between atoms: C_11  and  N_12 
REMARK    4  A    between atoms: N_12  and  C_13 
REMARK    5  A    between atoms: N_16  and  C_17 
REMARK    6  A    between atoms: C_17  and  C_18 
REMARK       I    between atoms: C_18  and  N_20 
ROOT
HETATM    1  N   UNL     1     -40.039 -52.849  15.780  1.00  0.00    -0.366 N 
HETATM    2  H   UNL     1     -39.795 -53.225  16.693  1.00  0.00     0.161 HD
ENDROOT
BRANCH   1   3
HETATM    3  C   UNL     1     -40.495 -53.874  14.833  1.00  0.00     0.224 C 
BRANCH   3   4
HETATM    4  C   UNL     1     -42.024 -53.984  14.742  1.00  0.00     0.235 C 
HETATM    5  N   UNL     1     -42.686 -52.784  14.613  1.00  0.00    -0.355 N 
HETATM    6  H   UNL     1     -42.108 -51.955  14.738  1.00  0.00     0.162 HD
HETATM    7  O   UNL     1     -42.595 -55.072  14.772  1.00  0.00    -0.272 OA
BRANCH   5   8
HETATM    8  C   UNL     1     -44.128 -52.674  14.503  1.00  0.00     0.088 C 
HETATM    9  C   UNL     1     -44.557 -51.803  13.301  1.00  0.00     0.004 C 
HETATM   10  C   UNL     1     -44.004 -50.372  13.336  1.00  0.00     0.012 C 
HETATM   11  C   UNL     1     -46.093 -51.789  13.206  1.00  0.00     0.006 C 
HETATM   12  C   UNL     1     -46.763 -51.339  14.506  1.00  0.00     0.001 C 
HETATM   13  C   UNL     1     -46.284 -52.147  15.710  1.00  0.00     0.002 C 
HETATM   14  C   UNL     1     -44.760 -52.196  15.817  1.00  0.00     0.025 C 
ENDBRANCH   5   8
ENDBRANCH   3   4
ENDBRANCH   1   3
BRANCH   1  15
HETATM   15  C   UNL     1     -39.265 -51.811  15.401  1.00  0.00     0.117 A 
HETATM   16  C   UNL     1     -38.305 -51.147  16.197  1.00  0.00     0.068 A 
HETATM   17  C   UNL     1     -37.714 -50.232  15.359  1.00  0.00     0.114 A 
HETATM   18  N   UNL     1     -38.340 -50.372  14.156  1.00  0.00    -0.293 N 
HETATM   19  N   UNL     1     -39.299 -51.320  14.165  1.00  0.00    -0.283 N 
ATOM     20  HN  UNL     1     -39.911 -51.598  13.399  1.00  0.00     0.188 HD
BRANCH  18  21
HETATM   21  C   UNL     1     -38.017 -49.688  12.919  1.00  0.00     0.250 C 
BRANCH  21  22
HETATM   22  C   UNL     1     -37.398 -50.615  11.902  1.00  0.00     0.235 C 
HETATM   23  O   UNL     1     -36.908 -51.700  12.200  1.00  0.00    -0.272 OA
HETATM   24  N   UNL     1     -37.452 -50.216  10.597  1.00  0.00    -0.369 N 
HETATM   25  H   UNL     1     -37.730 -49.281  10.322  1.00  0.00     0.159 HD
HETATM   26  H   UNL     1     -37.010 -50.810   9.906  1.00  0.00     0.159 HD
ENDBRANCH  21  22
ENDBRANCH  18  21
ENDBRANCH   1  15
TORSDOF 6
ENDMDL
MODEL 9
REMARK VINA RESULT:      -5.6      3.338      5.230
REMARK  6 active torsions:
REMARK  status: ('A' for Active; 'I' for Inactive)
REMARK    1  A    between atoms: C_7  and  N_8 
REMARK       I    between atoms: N_8  and  C_9 
REMARK    2  A    between atoms: C_9  and  C_11 
REMARK    3  A    between atoms: C_11  and  N_12 
REMARK    4  A    between atoms: N_12  and  C_13 
REMARK    5  A    between atoms: N_16  and  C_17 
REMARK    6  A    between atoms: C_17  and  C_18 
REMARK       I    between atoms: C_18  and  N_20 
ROOT
HETATM    1  N   UNL     1     -40.218 -49.774  10.759  1.00  0.00    -0.366 N 
HETATM    2  H   UNL     1     -40.331 -50.356   9.933  1.00  0.00     0.161 HD
ENDROOT
BRANCH   1   3
HETATM    3  C   UNL     1     -39.869 -50.536  11.963  1.00  0.00     0.224 C 
BRANCH   3   4
HETATM    4  C   UNL     1     -38.550 -50.087  12.609  1.00  0.00     0.235 C 
HETATM    5  N   UNL     1     -38.544 -50.100  13.987  1.00  0.00    -0.355 N 
HETATM    6  H   UNL     1     -39.451 -50.262  14.422  1.00  0.00     0.162 HD
HETATM    7  O   UNL     1     -37.579 -49.756  11.932  1.00  0.00    -0.272 OA
BRANCH   5   8
HETATM    8  C   UNL     1     -37.395 -49.719  14.785  1.00  0.00     0.088 C 
HETATM    9  C   UNL     1     -37.268 -50.570  16.069  1.00  0.00     0.004 C 
HETATM   10  C   UNL     1     -38.493 -50.498  16.990  1.00  0.00     0.012 C 
HETATM   11  C   UNL     1     -35.993 -50.160  16.826  1.00  0.00     0.006 C 
HETATM   12  C   UNL     1     -35.939 -48.661  17.127  1.00  0.00     0.001 C 
HETATM   13  C   UNL     1     -36.140 -47.815  15.872  1.00  0.00     0.002 C 
HETATM   14  C   UNL     1     -37.389 -48.215  15.087  1.00  0.00     0.025 C 
ENDBRANCH   5   8
ENDBRANCH   3   4
ENDBRANCH   1   3
BRANCH   1  15
HETATM   15  C   UNL     1     -41.057 -48.718  10.791  1.00  0.00     0.117 A 
HETATM   16  C   UNL     1     -40.712 -47.382  11.091  1.00  0.00     0.068 A 
HETATM   17  C   UNL     1     -41.868 -46.661  10.909  1.00  0.00     0.114 A 
HETATM   18  N   UNL     1     -42.817 -47.570  10.544  1.00  0.00    -0.293 N 
HETATM   19  N   UNL     1     -42.346 -48.832  10.481  1.00  0.00    -0.283 N 
ATOM     20  HN  UNL     1     -42.860 -49.681  10.248  1.00  0.00     0.188 HD
BRANCH  18  21
HETATM   21  C   UNL     1     -44.187 -47.294  10.155  1.00  0.00     0.250 C 
BRANCH  21  22
HETATM   22  C   UNL     1     -44.427 -47.562   8.691  1.00  0.00     0.235 C 
HETATM   23  O   UNL     1     -43.527 -47.859   7.911  1.00  0.00    -0.272 OA
HETATM   24  N   UNL     1     -45.723 -47.512   8.264  1.00  0.00    -0.369 N 
HETATM   25  H   UNL     1     -46.475 -47.150   8.839  1.00  0.00     0.159 HD
HETATM   26  H   UNL     1     -45.898 -47.655   7.276  1.00  0.00     0.159 HD
ENDBRANCH  21  22
ENDBRANCH  18  21
ENDBRANCH   1  15
TORSDOF 6
ENDMDL
