MODEL 1
REMARK VINA RESULT:      -6.7      0.000      0.000
REMARK  3 active torsions:
REMARK  status: ('A' for Active; 'I' for Inactive)
REMARK       I    between atoms: C_2  and  N_3 
REMARK       I    between atoms: C_2  and  N_11 
REMARK    1  A    between atoms: N_3  and  C_4 
REMARK    2  A    between atoms: N_11  and  C_12 
REMARK    3  A    between atoms: C_18  and  N_19 
ROOT
HETATM    1  C   UNL     1     -41.093 -48.636  11.034  1.00  0.00     0.080 A 
HETATM    2  C   UNL     1     -41.947 -47.824  10.279  1.00  0.00     0.035 A 
HETATM    3  C   UNL     1     -41.772 -46.450  10.278  1.00  0.00     0.019 A 
HETATM    4  C   UNL     1     -40.741 -45.939  11.040  1.00  0.00     0.090 A 
HETATM    5  N   UNL     1     -39.878 -46.701  11.750  1.00  0.00    -0.351 N 
ATOM      6  HN  UNL     1     -39.132 -46.265  12.291  1.00  0.00     0.166 HD
HETATM    7  C   UNL     1     -40.014 -48.050  11.738  1.00  0.00     0.130 A 
ENDROOT
BRANCH   1   8
HETATM    8  N   UNL     1     -41.427 -50.006  11.174  1.00  0.00    -0.305 N 
HETATM    9  C   UNL     1     -42.137 -50.480  12.253  1.00  0.00     0.321 C 
HETATM   10  O   UNL     1     -42.548 -49.809  13.192  1.00  0.00    -0.247 OA
HETATM   11  N   UNL     1     -42.404 -51.830  12.119  1.00  0.00    -0.338 N 
HETATM   12  H   UNL     1     -41.719 -52.356  11.599  1.00  0.00     0.164 HD
HETATM   13  H   UNL     1     -41.560 -50.510  10.310  1.00  0.00     0.171 HD
BRANCH  11  14
HETATM   14  C   UNL     1     -43.148 -52.552  13.158  1.00  0.00     0.086 C 
HETATM   15  C   UNL     1     -42.436 -53.875  13.490  1.00  0.00     0.025 C 
HETATM   16  C   UNL     1     -42.947 -54.521  14.776  1.00  0.00     0.002 C 
HETATM   17  C   UNL     1     -44.152 -55.439  14.603  1.00  0.00     0.000 C 
HETATM   18  C   UNL     1     -45.237 -54.980  13.635  1.00  0.00     0.000 C 
HETATM   19  C   UNL     1     -45.516 -53.481  13.649  1.00  0.00     0.002 C 
HETATM   20  C   UNL     1     -44.603 -52.704  12.702  1.00  0.00     0.025 C 
ENDBRANCH  11  14
ENDBRANCH   1   8
BRANCH   7  21
HETATM   21  N   UNL     1     -39.025 -48.775  12.390  1.00  0.00    -0.361 N 
HETATM   22  C   UNL     1     -37.912 -49.341  11.605  1.00  0.00     0.150 C 
HETATM   23  C   UNL     1     -37.607 -50.794  12.003  1.00  0.00     0.187 C 
HETATM   24  O   UNL     1     -37.443 -50.935  13.422  1.00  0.00    -0.388 OA
HETATM   25  C   UNL     1     -38.666 -50.578  14.073  1.00  0.00     0.187 C 
HETATM   26  C   UNL     1     -39.035 -49.110  13.817  1.00  0.00     0.150 C 
ENDBRANCH   7  21
TORSDOF 3
ENDMDL
MODEL 2
REMARK VINA RESULT:      -6.6      1.747      3.906
REMARK  3 active torsions:
REMARK  status: ('A' for Active; 'I' for Inactive)
REMARK       I    between atoms: C_2  and  N_3 
REMARK       I    between atoms: C_2  and  N_11 
REMARK    1  A    between atoms: N_3  and  C_4 
REMARK    2  A    between atoms: N_11  and  C_12 
REMARK    3  A    between atoms: C_18  and  N_19 
ROOT
HETATM    1  C   UNL     1     -39.538 -50.114  12.910  1.00  0.00     0.080 A 
HETATM    2  C   UNL     1     -38.446 -50.950  13.169  1.00  0.00     0.035 A 
HETATM    3  C   UNL     1     -37.339 -50.922  12.337  1.00  0.00     0.019 A 
HETATM    4  C   UNL     1     -37.370 -50.049  11.269  1.00  0.00     0.090 A 
HETATM    5  N   UNL     1     -38.393 -49.204  11.014  1.00  0.00    -0.351 N 
ATOM      6  HN  UNL     1     -38.355 -48.578  10.209  1.00  0.00     0.166 HD
HETATM    7  C   UNL     1     -39.472 -49.195  11.835  1.00  0.00     0.130 A 
ENDROOT
BRANCH   1   8
HETATM    8  N   UNL     1     -40.726 -50.317  13.654  1.00  0.00    -0.305 N 
HETATM    9  C   UNL     1     -41.778 -51.058  13.167  1.00  0.00     0.321 C 
HETATM   10  O   UNL     1     -41.821 -51.609  12.074  1.00  0.00    -0.247 OA
HETATM   11  N   UNL     1     -42.783 -51.176  14.109  1.00  0.00    -0.338 N 
HETATM   12  H   UNL     1     -42.866 -50.401  14.749  1.00  0.00     0.164 HD
HETATM   13  H   UNL     1     -40.612 -50.329  14.656  1.00  0.00     0.171 HD
BRANCH  11  14
HETATM   14  C   UNL     1     -44.009 -51.923  13.806  1.00  0.00     0.086 C 
HETATM   15  C   UNL     1     -45.209 -51.273  14.516  1.00  0.00     0.025 C 
HETATM   16  C   UNL     1     -46.554 -51.775  13.995  1.00  0.00     0.002 C 
HETATM   17  C   UNL     1     -47.081 -53.034  14.676  1.00  0.00     0.000 C 
HETATM   18  C   UNL     1     -46.065 -54.123  14.997  1.00  0.00     0.000 C 
HETATM   19  C   UNL     1     -44.982 -54.320  13.941  1.00  0.00     0.002 C 
HETATM   20  C   UNL     1     -43.781 -53.398  14.151  1.00  0.00     0.025 C 
ENDBRANCH  11  14
ENDBRANCH   1   8
BRANCH   7  21
HETATM   21  N   UNL     1     -40.430 -48.221  11.584  1.00  0.00    -0.361 N 
HETATM   22  C   UNL     1     -40.412 -46.975  12.372  1.00  0.00     0.150 C 
HETATM   23  C   UNL     1     -41.818 -46.576  12.850  1.00  0.00     0.187 C 
HETATM   24  O   UNL     1     -42.765 -46.564  11.772  1.00  0.00    -0.388 OA
HETATM   25  C   UNL     1     -42.874 -47.883  11.229  1.00  0.00     0.187 C 
HETATM   26  C   UNL     1     -41.541 -48.363  10.638  1.00  0.00     0.150 C 
ENDBRANCH   7  21
TORSDOF 3
ENDMDL
MODEL 3
REMARK VINA RESULT:      -6.3      2.365      6.940
REMARK  3 active torsions:
REMARK  status: ('A' for Active; 'I' for Inactive)
REMARK       I    between atoms: C_2  and  N_3 
REMARK       I    between atoms: C_2  and  N_11 
REMARK    1  A    between atoms: N_3  and  C_4 
REMARK    2  A    between atoms: N_11  and  C_12 
REMARK    3  A    between atoms: C_18  and  N_19 
ROOT
HETATM    1  C   UNL     1     -44.856 -51.817  13.770  1.00  0.00     0.080 A 
HETATM    2  C   UNL     1     -46.204 -51.560  14.047  1.00  0.00     0.035 A 
HETATM    3  C   UNL     1     -46.935 -52.449  14.816  1.00  0.00     0.019 A 
HETATM    4  C   UNL     1     -46.281 -53.572  15.283  1.00  0.00     0.090 A 
HETATM    5  N   UNL     1     -44.972 -53.829  15.063  1.00  0.00    -0.351 N 
ATOM      6  HN  UNL     1     -44.544 -54.675  15.439  1.00  0.00     0.166 HD
HETATM    7  C   UNL     1     -44.233 -52.953  14.339  1.00  0.00     0.130 A 
ENDROOT
BRANCH   1   8
HETATM    8  N   UNL     1     -44.203 -50.998  12.817  1.00  0.00    -0.305 N 
HETATM    9  C   UNL     1     -43.515 -49.862  13.176  1.00  0.00     0.321 C 
HETATM   10  O   UNL     1     -43.389 -49.430  14.315  1.00  0.00    -0.247 OA
HETATM   11  N   UNL     1     -42.901 -49.284  12.080  1.00  0.00    -0.338 N 
HETATM   12  H   UNL     1     -43.373 -49.423  11.199  1.00  0.00     0.164 HD
HETATM   13  H   UNL     1     -43.856 -51.477  12.000  1.00  0.00     0.171 HD
BRANCH  11  14
HETATM   14  C   UNL     1     -42.113 -48.055  12.225  1.00  0.00     0.086 C 
HETATM   15  C   UNL     1     -43.003 -46.826  11.966  1.00  0.00     0.025 C 
HETATM   16  C   UNL     1     -42.359 -45.518  12.418  1.00  0.00     0.002 C 
HETATM   17  C   UNL     1     -41.465 -44.846  11.381  1.00  0.00     0.000 C 
HETATM   18  C   UNL     1     -40.566 -45.755  10.551  1.00  0.00     0.000 C 
HETATM   19  C   UNL     1     -39.965 -46.931  11.312  1.00  0.00     0.002 C 
HETATM   20  C   UNL     1     -40.880 -48.155  11.322  1.00  0.00     0.025 C 
ENDBRANCH  11  14
ENDBRANCH   1   8
BRANCH   7  21
HETATM   21  N   UNL     1     -42.872 -53.218  14.253  1.00  0.00    -0.361 N 
HETATM   22  C   UNL     1     -41.956 -52.598  15.228  1.00  0.00     0.150 C 
HETATM   23  C   UNL     1     -40.700 -52.024  14.553  1.00  0.00     0.187 C 
HETATM   24  O   UNL     1     -40.066 -52.987  13.697  1.00  0.00    -0.388 OA
HETATM   25  C   UNL     1     -40.970 -53.346  12.648  1.00  0.00     0.187 C 
HETATM   26  C   UNL     1     -42.238 -54.014  13.197  1.00  0.00     0.150 C 
ENDBRANCH   7  21
TORSDOF 3
ENDMDL
MODEL 4
REMARK VINA RESULT:      -5.8      2.272      3.386
REMARK  3 active torsions:
REMARK  status: ('A' for Active; 'I' for Inactive)
REMARK       I    between atoms: C_2  and  N_3 
REMARK       I    between atoms: C_2  and  N_11 
REMARK    1  A    between atoms: N_3  and  C_4 
REMARK    2  A    between atoms: N_11  and  C_12 
REMARK    3  A    between atoms: C_18  and  N_19 
ROOT
HETATM    1  C   UNL     1     -40.126 -50.931  12.210  1.00  0.00     0.080 A 
HETATM    2  C   UNL     1     -39.934 -49.823  11.376  1.00  0.00     0.035 A 
HETATM    3  C   UNL     1     -39.122 -48.779  11.788  1.00  0.00     0.019 A 
HETATM    4  C   UNL     1     -38.529 -48.887  13.030  1.00  0.00     0.090 A 
HETATM    5  N   UNL     1     -38.667 -49.960  13.841  1.00  0.00    -0.351 N 
ATOM      6  HN  UNL     1     -38.199 -49.983  14.748  1.00  0.00     0.166 HD
HETATM    7  C   UNL     1     -39.432 -51.005  13.441  1.00  0.00     0.130 A 
ENDROOT
BRANCH   1   8
HETATM    8  N   UNL     1     -41.118 -51.874  11.846  1.00  0.00    -0.305 N 
HETATM    9  C   UNL     1     -42.324 -51.958  12.502  1.00  0.00     0.321 C 
HETATM   10  O   UNL     1     -42.677 -51.261  13.445  1.00  0.00    -0.247 OA
HETATM   11  N   UNL     1     -43.148 -52.898  11.911  1.00  0.00    -0.338 N 
HETATM   12  H   UNL     1     -42.673 -53.670  11.469  1.00  0.00     0.164 HD
HETATM   13  H   UNL     1     -41.134 -52.132  10.871  1.00  0.00     0.171 HD
BRANCH  11  14
HETATM   14  C   UNL     1     -44.488 -53.162  12.448  1.00  0.00     0.086 C 
HETATM   15  C   UNL     1     -45.074 -51.874  13.054  1.00  0.00     0.025 C 
HETATM   16  C   UNL     1     -46.572 -51.972  13.329  1.00  0.00     0.002 C 
HETATM   17  C   UNL     1     -46.943 -52.549  14.691  1.00  0.00     0.000 C 
HETATM   18  C   UNL     1     -46.116 -53.728  15.190  1.00  0.00     0.000 C 
HETATM   19  C   UNL     1     -45.710 -54.728  14.112  1.00  0.00     0.002 C 
HETATM   20  C   UNL     1     -44.403 -54.345  13.418  1.00  0.00     0.025 C 
ENDBRANCH  11  14
ENDBRANCH   1   8
BRANCH   7  21
HETATM   21  N   UNL     1     -39.434 -52.121  14.269  1.00  0.00    -0.361 N 
HETATM   22  C   UNL     1     -38.725 -53.339  13.834  1.00  0.00     0.150 C 
HETATM   23  C   UNL     1     -39.559 -54.607  14.075  1.00  0.00     0.187 C 
HETATM   24  O   UNL     1     -40.052 -54.675  15.421  1.00  0.00    -0.388 OA
HETATM   25  C   UNL     1     -40.917 -53.561  15.660  1.00  0.00     0.187 C 
HETATM   26  C   UNL     1     -40.170 -52.226  15.532  1.00  0.00     0.150 C 
ENDBRANCH   7  21
TORSDOF 3
ENDMDL
MODEL 5
REMARK VINA RESULT:      -5.7      2.168      7.465
REMARK  3 active torsions:
REMARK  status: ('A' for Active; 'I' for Inactive)
REMARK       I    between atoms: C_2  and  N_3 
REMARK       I    between atoms: C_2  and  N_11 
REMARK    1  A    between atoms: N_3  and  C_4 
REMARK    2  A    between atoms: N_11  and  C_12 
REMARK    3  A    between atoms: C_18  and  N_19 
ROOT
HETATM    1  C   UNL     1     -40.833 -53.354  13.487  1.00  0.00     0.080 A 
HETATM    2  C   UNL     1     -39.530 -53.807  13.731  1.00  0.00     0.035 A 
HETATM    3  C   UNL     1     -39.276 -54.635  14.812  1.00  0.00     0.019 A 
HETATM    4  C   UNL     1     -40.346 -54.980  15.613  1.00  0.00     0.090 A 
HETATM    5  N   UNL     1     -41.619 -54.589  15.382  1.00  0.00    -0.351 N 
ATOM      6  HN  UNL     1     -42.368 -54.881  16.010  1.00  0.00     0.166 HD
HETATM    7  C   UNL     1     -41.892 -53.804  14.311  1.00  0.00     0.130 A 
ENDROOT
BRANCH   1   8
HETATM    8  N   UNL     1     -41.017 -52.352  12.504  1.00  0.00    -0.305 N 
HETATM    9  C   UNL     1     -41.127 -51.019  12.828  1.00  0.00     0.321 C 
HETATM   10  O   UNL     1     -41.086 -50.551  13.959  1.00  0.00    -0.247 OA
HETATM   11  N   UNL     1     -41.220 -50.236  11.692  1.00  0.00    -0.338 N 
HETATM   12  H   UNL     1     -41.658 -50.679  10.898  1.00  0.00     0.164 HD
HETATM   13  H   UNL     1     -40.608 -52.548  11.603  1.00  0.00     0.171 HD
BRANCH  11  14
HETATM   14  C   UNL     1     -41.351 -48.779  11.797  1.00  0.00     0.086 C 
HETATM   15  C   UNL     1     -42.197 -48.242  10.628  1.00  0.00     0.025 C 
HETATM   16  C   UNL     1     -42.659 -46.802  10.839  1.00  0.00     0.002 C 
HETATM   17  C   UNL     1     -41.680 -45.733  10.365  1.00  0.00     0.000 C 
HETATM   18  C   UNL     1     -40.201 -45.983  10.635  1.00  0.00     0.000 C 
HETATM   19  C   UNL     1     -39.896 -46.642  11.976  1.00  0.00     0.002 C 
HETATM   20  C   UNL     1     -39.950 -48.168  11.907  1.00  0.00     0.025 C 
ENDBRANCH  11  14
ENDBRANCH   1   8
BRANCH   7  21
HETATM   21  N   UNL     1     -43.234 -53.539  14.067  1.00  0.00    -0.361 N 
HETATM   22  C   UNL     1     -43.932 -52.541  14.897  1.00  0.00     0.150 C 
HETATM   23  C   UNL     1     -45.316 -53.034  15.348  1.00  0.00     0.187 C 
HETATM   24  O   UNL     1     -46.097 -53.515  14.244  1.00  0.00    -0.388 OA
HETATM   25  C   UNL     1     -45.433 -54.636  13.653  1.00  0.00     0.187 C 
HETATM   26  C   UNL     1     -44.062 -54.245  13.085  1.00  0.00     0.150 C 
ENDBRANCH   7  21
TORSDOF 3
ENDMDL
MODEL 6
REMARK VINA RESULT:      -5.7      2.466      4.272
REMARK  3 active torsions:
REMARK  status: ('A' for Active; 'I' for Inactive)
REMARK       I    between atoms: C_2  and  N_3 
REMARK       I    between atoms: C_2  and  N_11 
REMARK    1  A    between atoms: N_3  and  C_4 
REMARK    2  A    between atoms: N_11  and  C_12 
REMARK    3  A    between atoms: C_18  and  N_19 
ROOT
HETATM    1  C   UNL     1     -42.348 -47.465   9.675  1.00  0.00     0.080 A 
HETATM    2  C   UNL     1     -43.355 -47.802   8.763  1.00  0.00     0.035 A 
HETATM    3  C   UNL     1     -44.432 -46.952   8.575  1.00  0.00     0.019 A 
HETATM    4  C   UNL     1     -44.459 -45.787   9.315  1.00  0.00     0.090 A 
HETATM    5  N   UNL     1     -43.484 -45.417  10.175  1.00  0.00    -0.351 N 
ATOM      6  HN  UNL     1     -43.558 -44.540  10.691  1.00  0.00     0.166 HD
HETATM    7  C   UNL     1     -42.406 -46.221  10.349  1.00  0.00     0.130 A 
ENDROOT
BRANCH   1   8
HETATM    8  N   UNL     1     -41.377 -48.447   9.990  1.00  0.00    -0.305 N 
HETATM    9  C   UNL     1     -41.509 -49.288  11.071  1.00  0.00     0.321 C 
HETATM   10  O   UNL     1     -42.440 -49.291  11.867  1.00  0.00    -0.247 OA
HETATM   11  N   UNL     1     -40.477 -50.206  11.117  1.00  0.00    -0.338 N 
HETATM   12  H   UNL     1     -39.600 -49.887  10.733  1.00  0.00     0.164 HD
HETATM   13  H   UNL     1     -40.874 -48.827   9.202  1.00  0.00     0.171 HD
BRANCH  11  14
HETATM   14  C   UNL     1     -40.409 -51.202  12.192  1.00  0.00     0.086 C 
HETATM   15  C   UNL     1     -41.459 -52.302  11.956  1.00  0.00     0.025 C 
HETATM   16  C   UNL     1     -41.237 -53.535  12.827  1.00  0.00     0.002 C 
HETATM   17  C   UNL     1     -41.891 -53.480  14.204  1.00  0.00     0.000 C 
HETATM   18  C   UNL     1     -41.834 -52.148  14.942  1.00  0.00     0.000 C 
HETATM   19  C   UNL     1     -40.529 -51.377  14.775  1.00  0.00     0.002 C 
HETATM   20  C   UNL     1     -40.531 -50.479  13.538  1.00  0.00     0.025 C 
ENDBRANCH  11  14
ENDBRANCH   1   8
BRANCH   7  21
HETATM   21  N   UNL     1     -41.389 -45.725  11.155  1.00  0.00    -0.361 N 
HETATM   22  C   UNL     1     -41.499 -45.864  12.618  1.00  0.00     0.150 C 
HETATM   23  C   UNL     1     -41.123 -44.565  13.350  1.00  0.00     0.187 C 
HETATM   24  O   UNL     1     -39.856 -44.054  12.911  1.00  0.00    -0.388 OA
HETATM   25  C   UNL     1     -39.936 -43.734  11.519  1.00  0.00     0.187 C 
HETATM   26  C   UNL     1     -40.225 -44.979  10.669  1.00  0.00     0.150 C 
ENDBRANCH   7  21
TORSDOF 3
ENDMDL
MODEL 7
REMARK VINA RESULT:      -5.5      1.841      2.432
REMARK  3 active torsions:
REMARK  status: ('A' for Active; 'I' for Inactive)
REMARK       I    between atoms: C_2  and  N_3 
REMARK       I    between atoms: C_2  and  N_11 
REMARK    1  A    between atoms: N_3  and  C_4 
REMARK    2  A    between atoms: N_11  and  C_12 
REMARK    3  A    between atoms: C_18  and  N_19 
ROOT
HETATM    1  C   UNL     1     -41.426 -47.272  13.183  1.00  0.00     0.080 A 
HETATM    2  C   UNL     1     -41.990 -45.991  13.176  1.00  0.00     0.035 A 
HETATM    3  C   UNL     1     -41.278 -44.925  12.651  1.00  0.00     0.019 A 
HETATM    4  C   UNL     1     -40.019 -45.186  12.150  1.00  0.00     0.090 A 
HETATM    5  N   UNL     1     -39.463 -46.418  12.111  1.00  0.00    -0.351 N 
ATOM      6  HN  UNL     1     -38.528 -46.549  11.723  1.00  0.00     0.166 HD
HETATM    7  C   UNL     1     -40.157 -47.479  12.591  1.00  0.00     0.130 A 
ENDROOT
BRANCH   1   8
HETATM    8  N   UNL     1     -42.093 -48.290  13.909  1.00  0.00    -0.305 N 
HETATM    9  C   UNL     1     -43.095 -49.050  13.352  1.00  0.00     0.321 C 
HETATM   10  O   UNL     1     -43.524 -48.945  12.209  1.00  0.00    -0.247 OA
HETATM   11  N   UNL     1     -43.529 -50.024  14.232  1.00  0.00    -0.338 N 
HETATM   12  H   UNL     1     -43.456 -49.786  15.209  1.00  0.00     0.164 HD
HETATM   13  H   UNL     1     -41.541 -48.749  14.617  1.00  0.00     0.171 HD
BRANCH  11  14
HETATM   14  C   UNL     1     -44.600 -50.952  13.852  1.00  0.00     0.086 C 
HETATM   15  C   UNL     1     -45.554 -51.169  15.040  1.00  0.00     0.025 C 
HETATM   16  C   UNL     1     -46.863 -51.843  14.638  1.00  0.00     0.002 C 
HETATM   17  C   UNL     1     -46.831 -53.368  14.638  1.00  0.00     0.000 C 
HETATM   18  C   UNL     1     -45.570 -54.032  14.098  1.00  0.00     0.000 C 
HETATM   19  C   UNL     1     -44.943 -53.335  12.895  1.00  0.00     0.002 C 
HETATM   20  C   UNL     1     -43.966 -52.232  13.298  1.00  0.00     0.025 C 
ENDBRANCH  11  14
ENDBRANCH   1   8
BRANCH   7  21
HETATM   21  N   UNL     1     -39.578 -48.729  12.410  1.00  0.00    -0.361 N 
HETATM   22  C   UNL     1     -40.120 -49.630  11.378  1.00  0.00     0.150 C 
HETATM   23  C   UNL     1     -40.275 -51.070  11.894  1.00  0.00     0.187 C 
HETATM   24  O   UNL     1     -39.068 -51.551  12.505  1.00  0.00    -0.388 OA
HETATM   25  C   UNL     1     -38.762 -50.736  13.640  1.00  0.00     0.187 C 
HETATM   26  C   UNL     1     -38.499 -49.279  13.237  1.00  0.00     0.150 C 
ENDBRANCH   7  21
TORSDOF 3
ENDMDL
MODEL 8
REMARK VINA RESULT:      -5.5      4.334      6.776
REMARK  3 active torsions:
REMARK  status: ('A' for Active; 'I' for Inactive)
REMARK       I    between atoms: C_2  and  N_3 
REMARK       I    between atoms: C_2  and  N_11 
REMARK    1  A    between atoms: N_3  and  C_4 
REMARK    2  A    between atoms: N_11  and  C_12 
REMARK    3  A    between atoms: C_18  and  N_19 
ROOT
HETATM    1  C   UNL     1     -40.168 -55.477  16.521  1.00  0.00     0.080 A 
HETATM    2  C   UNL     1     -39.883 -56.142  17.719  1.00  0.00     0.035 A 
HETATM    3  C   UNL     1     -38.583 -56.525  18.006  1.00  0.00     0.019 A 
HETATM    4  C   UNL     1     -37.611 -56.224  17.073  1.00  0.00     0.090 A 
HETATM    5  N   UNL     1     -37.850 -55.551  15.925  1.00  0.00    -0.351 N 
ATOM      6  HN  UNL     1     -37.088 -55.355  15.276  1.00  0.00     0.166 HD
HETATM    7  C   UNL     1     -39.111 -55.140  15.642  1.00  0.00     0.130 A 
ENDROOT
BRANCH   1   8
HETATM    8  N   UNL     1     -41.527 -55.286  16.172  1.00  0.00    -0.305 N 
HETATM    9  C   UNL     1     -42.160 -54.074  16.324  1.00  0.00     0.321 C 
HETATM   10  O   UNL     1     -41.652 -53.051  16.766  1.00  0.00    -0.247 OA
HETATM   11  N   UNL     1     -43.454 -54.123  15.838  1.00  0.00    -0.338 N 
HETATM   12  H   UNL     1     -43.903 -55.024  15.899  1.00  0.00     0.164 HD
HETATM   13  H   UNL     1     -41.864 -55.861  15.414  1.00  0.00     0.171 HD
BRANCH  11  14
HETATM   14  C   UNL     1     -44.321 -52.942  15.901  1.00  0.00     0.086 C 
HETATM   15  C   UNL     1     -45.679 -53.319  16.520  1.00  0.00     0.025 C 
HETATM   16  C   UNL     1     -46.508 -52.104  16.927  1.00  0.00     0.002 C 
HETATM   17  C   UNL     1     -47.391 -51.525  15.826  1.00  0.00     0.000 C 
HETATM   18  C   UNL     1     -46.794 -51.461  14.425  1.00  0.00     0.000 C 
HETATM   19  C   UNL     1     -45.314 -51.098  14.374  1.00  0.00     0.002 C 
HETATM   20  C   UNL     1     -44.405 -52.320  14.503  1.00  0.00     0.025 C 
ENDBRANCH  11  14
ENDBRANCH   1   8
BRANCH   7  21
HETATM   21  N   UNL     1     -39.263 -54.353  14.508  1.00  0.00    -0.361 N 
HETATM   22  C   UNL     1     -38.792 -52.956  14.534  1.00  0.00     0.150 C 
HETATM   23  C   UNL     1     -39.817 -51.991  13.918  1.00  0.00     0.187 C 
HETATM   24  O   UNL     1     -40.251 -52.430  12.622  1.00  0.00    -0.388 OA
HETATM   25  C   UNL     1     -40.904 -53.696  12.751  1.00  0.00     0.187 C 
HETATM   26  C   UNL     1     -39.948 -54.774  13.282  1.00  0.00     0.150 C 
ENDBRANCH   7  21
TORSDOF 3
ENDMDL
MODEL 9
REMARK VINA RESULT:      -5.5      3.222      7.494
REMARK  3 active torsions:
REMARK  status: ('A' for Active; 'I' for Inactive)
REMARK       I    between atoms: C_2  and  N_3 
REMARK       I    between atoms: C_2  and  N_11 
REMARK    1  A    between atoms: N_3  and  C_4 
REMARK    2  A    between atoms: N_11  and  C_12 
REMARK    3  A    between atoms: C_18  and  N_19 
ROOT
HETATM    1  C   UNL     1     -45.152 -51.442  16.377  1.00  0.00     0.080 A 
HETATM    2  C   UNL     1     -45.404 -50.709  17.543  1.00  0.00     0.035 A 
HETATM    3  C   UNL     1     -46.706 -50.398  17.898  1.00  0.00     0.019 A 
HETATM    4  C   UNL     1     -47.714 -50.837  17.063  1.00  0.00     0.090 A 
HETATM    5  N   UNL     1     -47.505 -51.577  15.951  1.00  0.00    -0.351 N 
ATOM      6  HN  UNL     1     -48.292 -51.876  15.376  1.00  0.00     0.166 HD
HETATM    7  C   UNL     1     -46.239 -51.918  15.605  1.00  0.00     0.130 A 
ENDROOT
BRANCH   1   8
HETATM    8  N   UNL     1     -43.810 -51.561  15.942  1.00  0.00    -0.305 N 
HETATM    9  C   UNL     1     -43.242 -50.667  15.063  1.00  0.00     0.321 C 
HETATM   10  O   UNL     1     -43.802 -49.699  14.565  1.00  0.00    -0.247 OA
HETATM   11  N   UNL     1     -41.905 -50.951  14.857  1.00  0.00    -0.338 N 
HETATM   12  H   UNL     1     -41.655 -51.925  14.936  1.00  0.00     0.164 HD
HETATM   13  H   UNL     1     -43.176 -51.983  16.603  1.00  0.00     0.171 HD
BRANCH  11  14
HETATM   14  C   UNL     1     -41.097 -50.129  13.950  1.00  0.00     0.086 C 
HETATM   15  C   UNL     1     -40.717 -50.942  12.700  1.00  0.00     0.025 C 
HETATM   16  C   UNL     1     -40.170 -50.076  11.568  1.00  0.00     0.002 C 
HETATM   17  C   UNL     1     -38.667 -49.820  11.619  1.00  0.00     0.000 C 
HETATM   18  C   UNL     1     -38.058 -49.552  12.990  1.00  0.00     0.000 C 
HETATM   19  C   UNL     1     -38.925 -48.715  13.925  1.00  0.00     0.002 C 
HETATM   20  C   UNL     1     -39.906 -49.564  14.732  1.00  0.00     0.025 C 
ENDBRANCH  11  14
ENDBRANCH   1   8
BRANCH   7  21
HETATM   21  N   UNL     1     -46.106 -52.776  14.521  1.00  0.00    -0.361 N 
HETATM   22  C   UNL     1     -46.137 -54.232  14.750  1.00  0.00     0.150 C 
HETATM   23  C   UNL     1     -45.029 -54.961  13.972  1.00  0.00     0.187 C 
HETATM   24  O   UNL     1     -45.020 -54.594  12.584  1.00  0.00    -0.388 OA
HETATM   25  C   UNL     1     -44.750 -53.193  12.472  1.00  0.00     0.187 C 
HETATM   26  C   UNL     1     -45.843 -52.350  13.143  1.00  0.00     0.150 C 
ENDBRANCH   7  21
TORSDOF 3
ENDMDL
