MODEL 1
REMARK VINA RESULT:      -6.0      0.000      0.000
REMARK  2 active torsions:
REMARK  status: ('A' for Active; 'I' for Inactive)
REMARK    1  A    between atoms: C_6  and  N_7 
REMARK    2  A    between atoms: N_7  and  C_8 
ROOT
HETATM    1  N   UNL     1     -45.774 -55.187  14.219  1.00  0.00    -0.190 NA
HETATM    2  C   UNL     1     -44.785 -54.715  13.830  1.00  0.00     0.117 C 
HETATM    3  C   UNL     1     -43.529 -54.156  13.401  1.00  0.00     0.113 A 
HETATM    4  C   UNL     1     -42.353 -54.486  14.053  1.00  0.00     0.043 A 
HETATM    5  C   UNL     1     -41.169 -53.868  13.641  1.00  0.00     0.028 A 
HETATM    6  C   UNL     1     -41.158 -52.956  12.577  1.00  0.00     0.024 A 
HETATM    7  C   UNL     1     -42.398 -52.704  11.990  1.00  0.00     0.112 A 
HETATM    8  N   UNL     1     -43.576 -53.282  12.366  1.00  0.00    -0.356 N 
ATOM      9  HN  UNL     1     -44.452 -53.067  11.890  1.00  0.00     0.166 HD
ENDROOT
BRANCH   6  10
HETATM   10  N   UNL     1     -39.964 -52.282  12.289  1.00  0.00    -0.285 NA
HETATM   11  H   UNL     1     -39.728 -52.372  11.304  1.00  0.00     0.128 HD
BRANCH  10  12
HETATM   12  C   UNL     1     -39.731 -50.926  12.794  1.00  0.00     0.091 C 
HETATM   13  C   UNL     1     -39.846 -49.885  11.659  1.00  0.00     0.054 C 
HETATM   14  C   UNL     1     -38.541 -49.098  11.793  1.00  0.00     0.123 C 
HETATM   15  C   UNL     1     -37.370 -49.897  11.232  1.00  0.00     0.034 C 
HETATM   16  O   UNL     1     -38.281 -49.187  13.211  1.00  0.00    -0.379 OA
HETATM   17  C   UNL     1     -37.219 -51.001  12.278  1.00  0.00     0.036 C 
HETATM   18  C   UNL     1     -38.304 -50.640  13.297  1.00  0.00     0.140 C 
ENDBRANCH  10  12
ENDBRANCH   6  10
TORSDOF 2
ENDMDL
MODEL 2
REMARK VINA RESULT:      -5.6      6.533      7.491
REMARK  2 active torsions:
REMARK  status: ('A' for Active; 'I' for Inactive)
REMARK    1  A    between atoms: C_6  and  N_7 
REMARK    2  A    between atoms: N_7  and  C_8 
ROOT
HETATM    1  N   UNL     1     -46.697 -48.861   8.014  1.00  0.00    -0.190 NA
HETATM    2  C   UNL     1     -45.821 -48.238   8.459  1.00  0.00     0.117 C 
HETATM    3  C   UNL     1     -44.763 -47.413   8.982  1.00  0.00     0.113 A 
HETATM    4  C   UNL     1     -44.846 -46.032   8.908  1.00  0.00     0.043 A 
HETATM    5  C   UNL     1     -43.766 -45.276   9.371  1.00  0.00     0.028 A 
HETATM    6  C   UNL     1     -42.634 -45.890   9.924  1.00  0.00     0.024 A 
HETATM    7  C   UNL     1     -42.662 -47.284   9.954  1.00  0.00     0.112 A 
HETATM    8  N   UNL     1     -43.694 -48.058   9.507  1.00  0.00    -0.356 N 
ATOM      9  HN  UNL     1     -43.662 -49.076   9.566  1.00  0.00     0.166 HD
ENDROOT
BRANCH   6  10
HETATM   10  N   UNL     1     -41.537 -45.086  10.262  1.00  0.00    -0.285 NA
HETATM   11  H   UNL     1     -41.143 -44.646   9.433  1.00  0.00     0.128 HD
BRANCH  10  12
HETATM   12  C   UNL     1     -41.610 -44.163  11.398  1.00  0.00     0.091 C 
HETATM   13  C   UNL     1     -40.501 -43.091  11.313  1.00  0.00     0.054 C 
HETATM   14  C   UNL     1     -39.844 -43.179  12.692  1.00  0.00     0.123 C 
HETATM   15  C   UNL     1     -38.947 -44.408  12.785  1.00  0.00     0.034 C 
HETATM   16  O   UNL     1     -40.952 -43.583  13.526  1.00  0.00    -0.379 OA
HETATM   17  C   UNL     1     -39.975 -45.539  12.816  1.00  0.00     0.036 C 
HETATM   18  C   UNL     1     -41.304 -44.779  12.775  1.00  0.00     0.140 C 
ENDBRANCH  10  12
ENDBRANCH   6  10
TORSDOF 2
ENDMDL
MODEL 3
REMARK VINA RESULT:      -5.3      5.025      7.288
REMARK  2 active torsions:
REMARK  status: ('A' for Active; 'I' for Inactive)
REMARK    1  A    between atoms: C_6  and  N_7 
REMARK    2  A    between atoms: N_7  and  C_8 
ROOT
HETATM    1  N   UNL     1     -37.359 -48.412  15.054  1.00  0.00    -0.190 NA
HETATM    2  C   UNL     1     -38.076 -48.416  14.139  1.00  0.00     0.117 C 
HETATM    3  C   UNL     1     -38.982 -48.358  13.021  1.00  0.00     0.113 A 
HETATM    4  C   UNL     1     -39.592 -47.164  12.671  1.00  0.00     0.043 A 
HETATM    5  C   UNL     1     -40.513 -47.173  11.619  1.00  0.00     0.028 A 
HETATM    6  C   UNL     1     -40.798 -48.349  10.913  1.00  0.00     0.024 A 
HETATM    7  C   UNL     1     -40.122 -49.489  11.348  1.00  0.00     0.112 A 
HETATM    8  N   UNL     1     -39.220 -49.523  12.373  1.00  0.00    -0.356 N 
ATOM      9  HN  UNL     1     -38.747 -50.387  12.638  1.00  0.00     0.166 HD
ENDROOT
BRANCH   6  10
HETATM   10  N   UNL     1     -41.815 -48.317   9.950  1.00  0.00    -0.285 NA
HETATM   11  H   UNL     1     -42.312 -49.204   9.921  1.00  0.00     0.128 HD
BRANCH  10  12
HETATM   12  C   UNL     1     -42.721 -47.169   9.857  1.00  0.00     0.091 C 
HETATM   13  C   UNL     1     -44.105 -47.507  10.454  1.00  0.00     0.054 C 
HETATM   14  C   UNL     1     -45.062 -47.099   9.332  1.00  0.00     0.123 C 
HETATM   15  C   UNL     1     -45.052 -48.134   8.212  1.00  0.00     0.034 C 
HETATM   16  O   UNL     1     -44.344 -46.012   8.707  1.00  0.00    -0.379 OA
HETATM   17  C   UNL     1     -43.673 -47.908   7.593  1.00  0.00     0.036 C 
HETATM   18  C   UNL     1     -43.121 -46.751   8.431  1.00  0.00     0.140 C 
ENDBRANCH  10  12
ENDBRANCH   6  10
TORSDOF 2
ENDMDL
MODEL 4
REMARK VINA RESULT:      -5.3      1.583      1.872
REMARK  2 active torsions:
REMARK  status: ('A' for Active; 'I' for Inactive)
REMARK    1  A    between atoms: C_6  and  N_7 
REMARK    2  A    between atoms: N_7  and  C_8 
ROOT
HETATM    1  N   UNL     1     -42.638 -56.312  17.029  1.00  0.00    -0.190 NA
HETATM    2  C   UNL     1     -42.212 -55.655  16.169  1.00  0.00     0.117 C 
HETATM    3  C   UNL     1     -41.624 -54.845  15.133  1.00  0.00     0.113 A 
HETATM    4  C   UNL     1     -40.253 -54.657  15.080  1.00  0.00     0.043 A 
HETATM    5  C   UNL     1     -39.736 -53.811  14.095  1.00  0.00     0.028 A 
HETATM    6  C   UNL     1     -40.574 -53.185  13.163  1.00  0.00     0.024 A 
HETATM    7  C   UNL     1     -41.936 -53.451  13.307  1.00  0.00     0.112 A 
HETATM    8  N   UNL     1     -42.480 -54.266  14.257  1.00  0.00    -0.356 N 
ATOM      9  HN  UNL     1     -43.485 -54.432  14.306  1.00  0.00     0.166 HD
ENDROOT
BRANCH   6  10
HETATM   10  N   UNL     1     -40.010 -52.257  12.277  1.00  0.00    -0.285 NA
HETATM   11  H   UNL     1     -40.423 -52.345  11.352  1.00  0.00     0.128 HD
BRANCH  10  12
HETATM   12  C   UNL     1     -39.832 -50.858  12.675  1.00  0.00     0.091 C 
HETATM   13  C   UNL     1     -39.874 -49.923  11.446  1.00  0.00     0.054 C 
HETATM   14  C   UNL     1     -38.592 -49.104  11.604  1.00  0.00     0.123 C 
HETATM   15  C   UNL     1     -37.373 -49.928  11.205  1.00  0.00     0.034 C 
HETATM   16  O   UNL     1     -38.438 -49.063  13.040  1.00  0.00    -0.379 OA
HETATM   17  C   UNL     1     -37.288 -50.932  12.353  1.00  0.00     0.036 C 
HETATM   18  C   UNL     1     -38.450 -50.503  13.254  1.00  0.00     0.140 C 
ENDBRANCH  10  12
ENDBRANCH   6  10
TORSDOF 2
ENDMDL
MODEL 5
REMARK VINA RESULT:      -5.2      4.793      6.637
REMARK  2 active torsions:
REMARK  status: ('A' for Active; 'I' for Inactive)
REMARK    1  A    between atoms: C_6  and  N_7 
REMARK    2  A    between atoms: N_7  and  C_8 
ROOT
HETATM    1  N   UNL     1     -36.886 -51.584  12.182  1.00  0.00    -0.190 NA
HETATM    2  C   UNL     1     -37.707 -50.771  12.049  1.00  0.00     0.117 C 
HETATM    3  C   UNL     1     -38.702 -49.736  11.941  1.00  0.00     0.113 A 
HETATM    4  C   UNL     1     -38.671 -48.639  12.786  1.00  0.00     0.043 A 
HETATM    5  C   UNL     1     -39.695 -47.693  12.685  1.00  0.00     0.028 A 
HETATM    6  C   UNL     1     -40.718 -47.829  11.737  1.00  0.00     0.024 A 
HETATM    7  C   UNL     1     -40.646 -48.969  10.936  1.00  0.00     0.112 A 
HETATM    8  N   UNL     1     -39.667 -49.917  11.007  1.00  0.00    -0.356 N 
ATOM      9  HN  UNL     1     -39.660 -50.725  10.385  1.00  0.00     0.166 HD
ENDROOT
BRANCH   6  10
HETATM   10  N   UNL     1     -41.778 -46.913  11.764  1.00  0.00    -0.285 NA
HETATM   11  H   UNL     1     -42.052 -46.707  12.721  1.00  0.00     0.128 HD
BRANCH  10  12
HETATM   12  C   UNL     1     -41.747 -45.712  10.924  1.00  0.00     0.091 C 
HETATM   13  C   UNL     1     -40.318 -45.430  10.411  1.00  0.00     0.054 C 
HETATM   14  C   UNL     1     -40.105 -43.966  10.800  1.00  0.00     0.123 C 
HETATM   15  C   UNL     1     -39.826 -43.840  12.293  1.00  0.00     0.034 C 
HETATM   16  O   UNL     1     -41.448 -43.438  10.726  1.00  0.00    -0.379 OA
HETATM   17  C   UNL     1     -41.194 -44.164  12.893  1.00  0.00     0.036 C 
HETATM   18  C   UNL     1     -42.056 -44.388  11.646  1.00  0.00     0.140 C 
ENDBRANCH  10  12
ENDBRANCH   6  10
TORSDOF 2
ENDMDL
MODEL 6
REMARK VINA RESULT:      -5.2      3.319      4.352
REMARK  2 active torsions:
REMARK  status: ('A' for Active; 'I' for Inactive)
REMARK    1  A    between atoms: C_6  and  N_7 
REMARK    2  A    between atoms: N_7  and  C_8 
ROOT
HETATM    1  N   UNL     1     -48.340 -51.552  17.136  1.00  0.00    -0.190 NA
HETATM    2  C   UNL     1     -47.455 -51.395  16.397  1.00  0.00     0.117 C 
HETATM    3  C   UNL     1     -46.395 -51.232  15.436  1.00  0.00     0.113 A 
HETATM    4  C   UNL     1     -46.596 -51.560  14.105  1.00  0.00     0.043 A 
HETATM    5  C   UNL     1     -45.518 -51.446  13.223  1.00  0.00     0.028 A 
HETATM    6  C   UNL     1     -44.268 -50.986  13.659  1.00  0.00     0.024 A 
HETATM    7  C   UNL     1     -44.182 -50.680  15.017  1.00  0.00     0.112 A 
HETATM    8  N   UNL     1     -45.209 -50.783  15.911  1.00  0.00    -0.356 N 
ATOM      9  HN  UNL     1     -45.089 -50.532  16.892  1.00  0.00     0.166 HD
ENDROOT
BRANCH   6  10
HETATM   10  N   UNL     1     -43.198 -51.006  12.755  1.00  0.00    -0.285 NA
HETATM   11  H   UNL     1     -42.565 -50.229  12.928  1.00  0.00     0.128 HD
BRANCH  10  12
HETATM   12  C   UNL     1     -42.481 -52.253  12.474  1.00  0.00     0.091 C 
HETATM   13  C   UNL     1     -42.040 -52.946  13.782  1.00  0.00     0.054 C 
HETATM   14  C   UNL     1     -40.548 -53.189  13.546  1.00  0.00     0.123 C 
HETATM   15  C   UNL     1     -39.759 -51.895  13.712  1.00  0.00     0.034 C 
HETATM   16  O   UNL     1     -40.496 -53.361  12.113  1.00  0.00    -0.379 OA
HETATM   17  C   UNL     1     -40.184 -51.112  12.471  1.00  0.00     0.036 C 
HETATM   18  C   UNL     1     -41.123 -52.095  11.765  1.00  0.00     0.140 C 
ENDBRANCH  10  12
ENDBRANCH   6  10
TORSDOF 2
ENDMDL
MODEL 7
REMARK VINA RESULT:      -5.2      2.935      6.779
REMARK  2 active torsions:
REMARK  status: ('A' for Active; 'I' for Inactive)
REMARK    1  A    between atoms: C_6  and  N_7 
REMARK    2  A    between atoms: N_7  and  C_8 
ROOT
HETATM    1  N   UNL     1     -37.512 -50.997  13.304  1.00  0.00    -0.190 NA
HETATM    2  C   UNL     1     -38.579 -51.461  13.313  1.00  0.00     0.117 C 
HETATM    3  C   UNL     1     -39.871 -52.096  13.329  1.00  0.00     0.113 A 
HETATM    4  C   UNL     1     -39.986 -53.451  13.591  1.00  0.00     0.043 A 
HETATM    5  C   UNL     1     -41.255 -54.034  13.532  1.00  0.00     0.028 A 
HETATM    6  C   UNL     1     -42.392 -53.269  13.241  1.00  0.00     0.024 A 
HETATM    7  C   UNL     1     -42.159 -51.915  12.999  1.00  0.00     0.112 A 
HETATM    8  N   UNL     1     -40.936 -51.309  13.043  1.00  0.00    -0.356 N 
ATOM      9  HN  UNL     1     -40.829 -50.310  12.869  1.00  0.00     0.166 HD
ENDROOT
BRANCH   6  10
HETATM   10  N   UNL     1     -43.617 -53.930  13.079  1.00  0.00    -0.285 NA
HETATM   11  H   UNL     1     -43.603 -54.519  12.250  1.00  0.00     0.128 HD
BRANCH  10  12
HETATM   12  C   UNL     1     -44.265 -54.589  14.216  1.00  0.00     0.091 C 
HETATM   13  C   UNL     1     -45.628 -55.190  13.806  1.00  0.00     0.054 C 
HETATM   14  C   UNL     1     -46.577 -54.618  14.861  1.00  0.00     0.123 C 
HETATM   15  C   UNL     1     -46.891 -53.155  14.567  1.00  0.00     0.034 C 
HETATM   16  O   UNL     1     -45.708 -54.488  16.007  1.00  0.00    -0.379 OA
HETATM   17  C   UNL     1     -45.559 -52.481  14.896  1.00  0.00     0.036 C 
HETATM   18  C   UNL     1     -44.699 -53.659  15.364  1.00  0.00     0.140 C 
ENDBRANCH  10  12
ENDBRANCH   6  10
TORSDOF 2
ENDMDL
MODEL 8
REMARK VINA RESULT:      -5.1      4.424      6.622
REMARK  2 active torsions:
REMARK  status: ('A' for Active; 'I' for Inactive)
REMARK    1  A    between atoms: C_6  and  N_7 
REMARK    2  A    between atoms: N_7  and  C_8 
ROOT
HETATM    1  N   UNL     1     -43.246 -42.764  10.594  1.00  0.00    -0.190 NA
HETATM    2  C   UNL     1     -42.884 -43.868  10.642  1.00  0.00     0.117 C 
HETATM    3  C   UNL     1     -42.373 -45.213  10.697  1.00  0.00     0.113 A 
HETATM    4  C   UNL     1     -41.015 -45.445  10.841  1.00  0.00     0.043 A 
HETATM    5  C   UNL     1     -40.561 -46.766  10.825  1.00  0.00     0.028 A 
HETATM    6  C   UNL     1     -41.453 -47.839  10.694  1.00  0.00     0.024 A 
HETATM    7  C   UNL     1     -42.797 -47.489  10.563  1.00  0.00     0.112 A 
HETATM    8  N   UNL     1     -43.280 -46.212  10.568  1.00  0.00    -0.356 N 
ATOM      9  HN  UNL     1     -44.277 -46.019  10.480  1.00  0.00     0.166 HD
ENDROOT
BRANCH   6  10
HETATM   10  N   UNL     1     -40.927 -49.132  10.566  1.00  0.00    -0.285 NA
HETATM   11  H   UNL     1     -40.119 -49.133   9.949  1.00  0.00     0.128 HD
BRANCH  10  12
HETATM   12  C   UNL     1     -40.726 -49.975  11.748  1.00  0.00     0.091 C 
HETATM   13  C   UNL     1     -40.905 -49.161  13.048  1.00  0.00     0.054 C 
HETATM   14  C   UNL     1     -39.623 -49.476  13.821  1.00  0.00     0.123 C 
HETATM   15  C   UNL     1     -38.442 -48.704  13.245  1.00  0.00     0.034 C 
HETATM   16  O   UNL     1     -39.323 -50.815  13.368  1.00  0.00    -0.379 OA
HETATM   17  C   UNL     1     -38.228 -49.416  11.909  1.00  0.00     0.036 C 
HETATM   18  C   UNL     1     -39.296 -50.512  11.945  1.00  0.00     0.140 C 
ENDBRANCH  10  12
ENDBRANCH   6  10
TORSDOF 2
ENDMDL
MODEL 9
REMARK VINA RESULT:      -5.0      3.805      5.799
REMARK  2 active torsions:
REMARK  status: ('A' for Active; 'I' for Inactive)
REMARK    1  A    between atoms: C_6  and  N_7 
REMARK    2  A    between atoms: N_7  and  C_8 
ROOT
HETATM    1  N   UNL     1     -44.078 -45.107   8.769  1.00  0.00    -0.190 NA
HETATM    2  C   UNL     1     -43.449 -45.859   9.396  1.00  0.00     0.117 C 
HETATM    3  C   UNL     1     -42.727 -46.810  10.200  1.00  0.00     0.113 A 
HETATM    4  C   UNL     1     -43.407 -47.763  10.943  1.00  0.00     0.043 A 
HETATM    5  C   UNL     1     -42.665 -48.623  11.757  1.00  0.00     0.028 A 
HETATM    6  C   UNL     1     -41.267 -48.549  11.807  1.00  0.00     0.024 A 
HETATM    7  C   UNL     1     -40.689 -47.558  11.014  1.00  0.00     0.112 A 
HETATM    8  N   UNL     1     -41.377 -46.696  10.210  1.00  0.00    -0.356 N 
ATOM      9  HN  UNL     1     -40.898 -45.997   9.643  1.00  0.00     0.166 HD
ENDROOT
BRANCH   6  10
HETATM   10  N   UNL     1     -40.589 -49.358  12.730  1.00  0.00    -0.285 NA
HETATM   11  H   UNL     1     -41.228 -49.708  13.440  1.00  0.00     0.128 HD
BRANCH  10  12
HETATM   12  C   UNL     1     -39.649 -50.385  12.273  1.00  0.00     0.091 C 
HETATM   13  C   UNL     1     -39.487 -51.498  13.332  1.00  0.00     0.054 C 
HETATM   14  C   UNL     1     -37.968 -51.582  13.499  1.00  0.00     0.123 C 
HETATM   15  C   UNL     1     -37.452 -50.415  14.333  1.00  0.00     0.034 C 
HETATM   16  O   UNL     1     -37.501 -51.208  12.184  1.00  0.00    -0.379 OA
HETATM   17  C   UNL     1     -37.631 -49.242  13.370  1.00  0.00     0.036 C 
HETATM   18  C   UNL     1     -38.187 -49.926  12.117  1.00  0.00     0.140 C 
ENDBRANCH  10  12
ENDBRANCH   6  10
TORSDOF 2
ENDMDL
