MODEL 1
REMARK VINA RESULT:      -4.9      0.000      0.000
REMARK  3 active torsions:
REMARK  status: ('A' for Active; 'I' for Inactive)
REMARK    1  A    between atoms: O_2  and  C_3 
REMARK    2  A    between atoms: C_6  and  N_7 
REMARK    3  A    between atoms: N_7  and  C_8 
ROOT
HETATM    1  C   UNL     1     -44.867 -47.375   9.642  1.00  0.00     0.141 A 
HETATM    2  C   UNL     1     -44.222 -46.405   8.910  1.00  0.00     0.058 A 
HETATM    3  C   UNL     1     -42.869 -46.200   9.159  1.00  0.00     0.035 A 
HETATM    4  C   UNL     1     -42.178 -46.938  10.134  1.00  0.00     0.051 A 
HETATM    5  C   UNL     1     -42.924 -47.922  10.798  1.00  0.00     0.034 A 
HETATM    6  C   UNL     1     -42.327 -48.918  11.745  1.00  0.00     0.070 C 
HETATM    7  N   UNL     1     -44.254 -48.130  10.575  1.00  0.00    -0.339 N 
ATOM      8  HN  UNL     1     -44.770 -48.837  11.099  1.00  0.00     0.168 HD
ENDROOT
BRANCH   4   9
HETATM    9  N   UNL     1     -40.854 -46.587  10.323  1.00  0.00    -0.382 N 
HETATM   10  H   UNL     1     -40.201 -47.282   9.971  1.00  0.00     0.160 HD
BRANCH   9  11
HETATM   11  C   UNL     1     -40.299 -45.640  11.281  1.00  0.00     0.107 C 
HETATM   12  C   UNL     1     -41.296 -45.213  12.345  1.00  0.00     0.053 C 
HETATM   13  C   UNL     1     -41.062 -43.723  12.538  1.00  0.00     0.169 C 
HETATM   14  O   UNL     1     -40.067 -43.302  11.603  1.00  0.00    -0.389 OA
HETATM   15  C   UNL     1     -39.988 -44.310  10.594  1.00  0.00     0.192 C 
ENDBRANCH   9  11
ENDBRANCH   4   9
BRANCH   1  16
HETATM   16  O   UNL     1     -46.209 -47.560   9.383  1.00  0.00    -0.341 OA
HETATM   17  C   UNL     1     -46.436 -48.547   8.381  1.00  0.00     0.211 C 
ENDBRANCH   1  16
TORSDOF 3
ENDMDL
MODEL 2
REMARK VINA RESULT:      -4.9      6.862      7.889
REMARK  3 active torsions:
REMARK  status: ('A' for Active; 'I' for Inactive)
REMARK    1  A    between atoms: O_2  and  C_3 
REMARK    2  A    between atoms: C_6  and  N_7 
REMARK    3  A    between atoms: N_7  and  C_8 
ROOT
HETATM    1  C   UNL     1     -46.886 -52.274  15.060  1.00  0.00     0.141 A 
HETATM    2  C   UNL     1     -46.330 -51.198  14.410  1.00  0.00     0.058 A 
HETATM    3  C   UNL     1     -45.308 -51.449  13.500  1.00  0.00     0.035 A 
HETATM    4  C   UNL     1     -44.841 -52.752  13.256  1.00  0.00     0.051 A 
HETATM    5  C   UNL     1     -45.501 -53.777  13.949  1.00  0.00     0.034 A 
HETATM    6  C   UNL     1     -45.261 -55.235  13.699  1.00  0.00     0.070 C 
HETATM    7  N   UNL     1     -46.496 -53.547  14.853  1.00  0.00    -0.339 N 
ATOM      8  HN  UNL     1     -46.933 -54.318  15.359  1.00  0.00     0.168 HD
ENDROOT
BRANCH   4   9
HETATM    9  N   UNL     1     -43.779 -52.851  12.377  1.00  0.00    -0.382 N 
HETATM   10  H   UNL     1     -44.069 -52.943  11.406  1.00  0.00     0.160 HD
BRANCH   9  11
HETATM   11  C   UNL     1     -42.409 -53.259  12.658  1.00  0.00     0.107 C 
HETATM   12  C   UNL     1     -41.973 -52.947  14.079  1.00  0.00     0.053 C 
HETATM   13  C   UNL     1     -40.541 -52.451  13.959  1.00  0.00     0.169 C 
HETATM   14  O   UNL     1     -40.200 -52.400  12.571  1.00  0.00    -0.389 OA
HETATM   15  C   UNL     1     -41.427 -52.422  11.840  1.00  0.00     0.192 C 
ENDBRANCH   9  11
ENDBRANCH   4   9
BRANCH   1  16
HETATM   16  O   UNL     1     -47.894 -52.003  15.962  1.00  0.00    -0.341 OA
HETATM   17  C   UNL     1     -47.461 -51.149  17.017  1.00  0.00     0.211 C 
ENDBRANCH   1  16
TORSDOF 3
ENDMDL
MODEL 3
REMARK VINA RESULT:      -4.8      6.088      7.392
REMARK  3 active torsions:
REMARK  status: ('A' for Active; 'I' for Inactive)
REMARK    1  A    between atoms: O_2  and  C_3 
REMARK    2  A    between atoms: C_6  and  N_7 
REMARK    3  A    between atoms: N_7  and  C_8 
ROOT
HETATM    1  C   UNL     1     -45.850 -52.877  14.091  1.00  0.00     0.141 A 
HETATM    2  C   UNL     1     -45.388 -53.966  13.390  1.00  0.00     0.058 A 
HETATM    3  C   UNL     1     -44.229 -53.808  12.638  1.00  0.00     0.035 A 
HETATM    4  C   UNL     1     -43.552 -52.579  12.576  1.00  0.00     0.051 A 
HETATM    5  C   UNL     1     -44.091 -51.544  13.355  1.00  0.00     0.034 A 
HETATM    6  C   UNL     1     -43.421 -50.218  13.551  1.00  0.00     0.070 C 
HETATM    7  N   UNL     1     -45.233 -51.679  14.089  1.00  0.00    -0.339 N 
ATOM      8  HN  UNL     1     -45.610 -50.894  14.620  1.00  0.00     0.168 HD
ENDROOT
BRANCH   4   9
HETATM    9  N   UNL     1     -42.451 -52.543  11.741  1.00  0.00    -0.382 N 
HETATM   10  H   UNL     1     -42.697 -52.558  10.754  1.00  0.00     0.160 HD
BRANCH   9  11
HETATM   11  C   UNL     1     -41.073 -52.907  12.045  1.00  0.00     0.107 C 
HETATM   12  C   UNL     1     -40.939 -53.722  13.319  1.00  0.00     0.053 C 
HETATM   13  C   UNL     1     -39.696 -53.183  14.010  1.00  0.00     0.169 C 
HETATM   14  O   UNL     1     -39.196 -52.087  13.239  1.00  0.00    -0.389 OA
HETATM   15  C   UNL     1     -40.258 -51.660  12.384  1.00  0.00     0.192 C 
ENDBRANCH   9  11
ENDBRANCH   4   9
BRANCH   1  16
HETATM   16  O   UNL     1     -47.003 -53.053  14.826  1.00  0.00    -0.341 OA
HETATM   17  C   UNL     1     -47.256 -51.962  15.708  1.00  0.00     0.211 C 
ENDBRANCH   1  16
TORSDOF 3
ENDMDL
MODEL 4
REMARK VINA RESULT:      -4.8      5.650      8.292
REMARK  3 active torsions:
REMARK  status: ('A' for Active; 'I' for Inactive)
REMARK    1  A    between atoms: O_2  and  C_3 
REMARK    2  A    between atoms: C_6  and  N_7 
REMARK    3  A    between atoms: N_7  and  C_8 
ROOT
HETATM    1  C   UNL     1     -40.275 -53.283  13.317  1.00  0.00     0.141 A 
HETATM    2  C   UNL     1     -41.322 -54.166  13.440  1.00  0.00     0.058 A 
HETATM    3  C   UNL     1     -42.599 -53.701  13.142  1.00  0.00     0.035 A 
HETATM    4  C   UNL     1     -42.826 -52.374  12.743  1.00  0.00     0.051 A 
HETATM    5  C   UNL     1     -41.685 -51.569  12.620  1.00  0.00     0.034 A 
HETATM    6  C   UNL     1     -41.705 -50.183  12.051  1.00  0.00     0.070 C 
HETATM    7  N   UNL     1     -40.427 -52.004  12.920  1.00  0.00    -0.339 N 
ATOM      8  HN  UNL     1     -39.624 -51.379  12.845  1.00  0.00     0.168 HD
ENDROOT
BRANCH   4   9
HETATM    9  N   UNL     1     -44.150 -52.028  12.541  1.00  0.00    -0.382 N 
HETATM   10  H   UNL     1     -44.453 -52.150  11.578  1.00  0.00     0.160 HD
BRANCH   9  11
HETATM   11  C   UNL     1     -44.991 -51.160  13.354  1.00  0.00     0.107 C 
HETATM   12  C   UNL     1     -44.657 -51.221  14.835  1.00  0.00     0.053 C 
HETATM   13  C   UNL     1     -45.999 -51.203  15.549  1.00  0.00     0.169 C 
HETATM   14  O   UNL     1     -47.032 -51.214  14.560  1.00  0.00    -0.389 OA
HETATM   15  C   UNL     1     -46.436 -51.657  13.340  1.00  0.00     0.192 C 
ENDBRANCH   9  11
ENDBRANCH   4   9
BRANCH   1  16
HETATM   16  O   UNL     1     -39.018 -53.761  13.622  1.00  0.00    -0.341 OA
HETATM   17  C   UNL     1     -39.057 -54.815  14.581  1.00  0.00     0.211 C 
ENDBRANCH   1  16
TORSDOF 3
ENDMDL
MODEL 5
REMARK VINA RESULT:      -4.8      3.306      4.477
REMARK  3 active torsions:
REMARK  status: ('A' for Active; 'I' for Inactive)
REMARK    1  A    between atoms: O_2  and  C_3 
REMARK    2  A    between atoms: C_6  and  N_7 
REMARK    3  A    between atoms: N_7  and  C_8 
ROOT
HETATM    1  C   UNL     1     -42.767 -46.472   9.872  1.00  0.00     0.141 A 
HETATM    2  C   UNL     1     -42.681 -47.837  10.012  1.00  0.00     0.058 A 
HETATM    3  C   UNL     1     -41.533 -48.355  10.602  1.00  0.00     0.035 A 
HETATM    4  C   UNL     1     -40.484 -47.525  11.029  1.00  0.00     0.051 A 
HETATM    5  C   UNL     1     -40.690 -46.147  10.868  1.00  0.00     0.034 A 
HETATM    6  C   UNL     1     -39.765 -45.101  11.411  1.00  0.00     0.070 C 
HETATM    7  N   UNL     1     -41.804 -45.622  10.281  1.00  0.00    -0.339 N 
ATOM      8  HN  UNL     1     -41.905 -44.615  10.156  1.00  0.00     0.168 HD
ENDROOT
BRANCH   4   9
HETATM    9  N   UNL     1     -39.375 -48.176  11.538  1.00  0.00    -0.382 N 
HETATM   10  H   UNL     1     -38.539 -47.596  11.546  1.00  0.00     0.160 HD
BRANCH   9  11
HETATM   11  C   UNL     1     -39.139 -49.610  11.646  1.00  0.00     0.107 C 
HETATM   12  C   UNL     1     -39.291 -50.134  13.064  1.00  0.00     0.053 C 
HETATM   13  C   UNL     1     -38.165 -51.139  13.242  1.00  0.00     0.169 C 
HETATM   14  O   UNL     1     -37.372 -51.137  12.052  1.00  0.00    -0.389 OA
HETATM   15  C   UNL     1     -37.675 -49.931  11.351  1.00  0.00     0.192 C 
ENDBRANCH   9  11
ENDBRANCH   4   9
BRANCH   1  16
HETATM   16  O   UNL     1     -43.911 -45.978   9.281  1.00  0.00    -0.341 OA
HETATM   17  C   UNL     1     -44.848 -47.006   8.971  1.00  0.00     0.211 C 
ENDBRANCH   1  16
TORSDOF 3
ENDMDL
MODEL 6
REMARK VINA RESULT:      -4.7      6.570      7.603
REMARK  3 active torsions:
REMARK  status: ('A' for Active; 'I' for Inactive)
REMARK    1  A    between atoms: O_2  and  C_3 
REMARK    2  A    between atoms: C_6  and  N_7 
REMARK    3  A    between atoms: N_7  and  C_8 
ROOT
HETATM    1  C   UNL     1     -46.544 -51.272  15.379  1.00  0.00     0.141 A 
HETATM    2  C   UNL     1     -46.756 -51.582  14.056  1.00  0.00     0.058 A 
HETATM    3  C   UNL     1     -45.651 -51.600  13.211  1.00  0.00     0.035 A 
HETATM    4  C   UNL     1     -44.361 -51.299  13.677  1.00  0.00     0.051 A 
HETATM    5  C   UNL     1     -44.255 -51.028  15.049  1.00  0.00     0.034 A 
HETATM    6  C   UNL     1     -42.948 -50.850  15.761  1.00  0.00     0.070 C 
HETATM    7  N   UNL     1     -45.329 -50.994  15.890  1.00  0.00    -0.339 N 
ATOM      8  HN  UNL     1     -45.215 -50.765  16.877  1.00  0.00     0.168 HD
ENDROOT
BRANCH   4   9
HETATM    9  N   UNL     1     -43.365 -51.290  12.718  1.00  0.00    -0.382 N 
HETATM   10  H   UNL     1     -43.418 -50.489  12.093  1.00  0.00     0.160 HD
BRANCH   9  11
HETATM   11  C   UNL     1     -42.571 -52.409  12.230  1.00  0.00     0.107 C 
HETATM   12  C   UNL     1     -42.519 -53.574  13.204  1.00  0.00     0.053 C 
HETATM   13  C   UNL     1     -41.085 -54.076  13.152  1.00  0.00     0.169 C 
HETATM   14  O   UNL     1     -40.343 -53.219  12.280  1.00  0.00    -0.389 OA
HETATM   15  C   UNL     1     -41.098 -52.015  12.137  1.00  0.00     0.192 C 
ENDBRANCH   9  11
ENDBRANCH   4   9
BRANCH   1  16
HETATM   16  O   UNL     1     -47.653 -51.254  16.199  1.00  0.00    -0.341 OA
HETATM   17  C   UNL     1     -47.340 -50.834  17.524  1.00  0.00     0.211 C 
ENDBRANCH   1  16
TORSDOF 3
ENDMDL
MODEL 7
REMARK VINA RESULT:      -4.7      3.106      4.972
REMARK  3 active torsions:
REMARK  status: ('A' for Active; 'I' for Inactive)
REMARK    1  A    between atoms: O_2  and  C_3 
REMARK    2  A    between atoms: C_6  and  N_7 
REMARK    3  A    between atoms: N_7  and  C_8 
ROOT
HETATM    1  C   UNL     1     -41.612 -44.441  10.922  1.00  0.00     0.141 A 
HETATM    2  C   UNL     1     -40.296 -44.823  10.810  1.00  0.00     0.058 A 
HETATM    3  C   UNL     1     -40.019 -46.186  10.768  1.00  0.00     0.035 A 
HETATM    4  C   UNL     1     -41.038 -47.149  10.852  1.00  0.00     0.051 A 
HETATM    5  C   UNL     1     -42.346 -46.649  10.931  1.00  0.00     0.034 A 
HETATM    6  C   UNL     1     -43.569 -47.511  10.860  1.00  0.00     0.070 C 
HETATM    7  N   UNL     1     -42.635 -45.317  10.986  1.00  0.00    -0.339 N 
ATOM      8  HN  UNL     1     -43.598 -44.992  11.072  1.00  0.00     0.168 HD
ENDROOT
BRANCH   4   9
HETATM    9  N   UNL     1     -40.618 -48.466  10.863  1.00  0.00    -0.382 N 
HETATM   10  H   UNL     1     -41.101 -49.046  10.181  1.00  0.00     0.160 HD
BRANCH   9  11
HETATM   11  C   UNL     1     -39.945 -49.191  11.933  1.00  0.00     0.107 C 
HETATM   12  C   UNL     1     -38.436 -49.238  11.765  1.00  0.00     0.053 C 
HETATM   13  C   UNL     1     -38.032 -50.647  12.170  1.00  0.00     0.169 C 
HETATM   14  O   UNL     1     -39.220 -51.384  12.469  1.00  0.00    -0.389 OA
HETATM   15  C   UNL     1     -40.311 -50.674  11.882  1.00  0.00     0.192 C 
ENDBRANCH   9  11
ENDBRANCH   4   9
BRANCH   1  16
HETATM   16  O   UNL     1     -41.865 -43.086  10.968  1.00  0.00    -0.341 OA
HETATM   17  C   UNL     1     -43.257 -42.792  10.880  1.00  0.00     0.211 C 
ENDBRANCH   1  16
TORSDOF 3
ENDMDL
MODEL 8
REMARK VINA RESULT:      -4.6      4.381      7.194
REMARK  3 active torsions:
REMARK  status: ('A' for Active; 'I' for Inactive)
REMARK    1  A    between atoms: O_2  and  C_3 
REMARK    2  A    between atoms: C_6  and  N_7 
REMARK    3  A    between atoms: N_7  and  C_8 
ROOT
HETATM    1  C   UNL     1     -41.925 -48.890  11.323  1.00  0.00     0.141 A 
HETATM    2  C   UNL     1     -42.965 -48.647  12.190  1.00  0.00     0.058 A 
HETATM    3  C   UNL     1     -43.329 -49.665  13.065  1.00  0.00     0.035 A 
HETATM    4  C   UNL     1     -42.675 -50.908  13.064  1.00  0.00     0.051 A 
HETATM    5  C   UNL     1     -41.609 -51.037  12.163  1.00  0.00     0.034 A 
HETATM    6  C   UNL     1     -40.689 -52.219  12.129  1.00  0.00     0.070 C 
HETATM    7  N   UNL     1     -41.246 -50.054  11.289  1.00  0.00    -0.339 N 
ATOM      8  HN  UNL     1     -40.482 -50.196  10.628  1.00  0.00     0.168 HD
ENDROOT
BRANCH   4   9
HETATM    9  N   UNL     1     -43.181 -51.850  13.940  1.00  0.00    -0.382 N 
HETATM   10  H   UNL     1     -42.481 -52.215  14.583  1.00  0.00     0.160 HD
BRANCH   9  11
HETATM   11  C   UNL     1     -44.381 -52.663  13.800  1.00  0.00     0.107 C 
HETATM   12  C   UNL     1     -44.460 -53.792  14.813  1.00  0.00     0.053 C 
HETATM   13  C   UNL     1     -44.998 -54.986  14.042  1.00  0.00     0.169 C 
HETATM   14  O   UNL     1     -45.142 -54.605  12.671  1.00  0.00    -0.389 OA
HETATM   15  C   UNL     1     -44.351 -53.432  12.479  1.00  0.00     0.192 C 
ENDBRANCH   9  11
ENDBRANCH   4   9
BRANCH   1  16
HETATM   16  O   UNL     1     -41.583 -47.870  10.460  1.00  0.00    -0.341 OA
HETATM   17  C   UNL     1     -42.690 -47.426   9.681  1.00  0.00     0.211 C 
ENDBRANCH   1  16
TORSDOF 3
ENDMDL
MODEL 9
REMARK VINA RESULT:      -4.6      4.236      5.914
REMARK  3 active torsions:
REMARK  status: ('A' for Active; 'I' for Inactive)
REMARK    1  A    between atoms: O_2  and  C_3 
REMARK    2  A    between atoms: C_6  and  N_7 
REMARK    3  A    between atoms: N_7  and  C_8 
ROOT
HETATM    1  C   UNL     1     -39.778 -52.206  13.308  1.00  0.00     0.141 A 
HETATM    2  C   UNL     1     -41.057 -52.176  12.803  1.00  0.00     0.058 A 
HETATM    3  C   UNL     1     -41.363 -51.185  11.876  1.00  0.00     0.035 A 
HETATM    4  C   UNL     1     -40.412 -50.233  11.473  1.00  0.00     0.051 A 
HETATM    5  C   UNL     1     -39.131 -50.376  12.026  1.00  0.00     0.034 A 
HETATM    6  C   UNL     1     -37.947 -49.565  11.596  1.00  0.00     0.070 C 
HETATM    7  N   UNL     1     -38.817 -51.334  12.945  1.00  0.00    -0.339 N 
ATOM      8  HN  UNL     1     -37.880 -51.388  13.347  1.00  0.00     0.168 HD
ENDROOT
BRANCH   4   9
HETATM    9  N   UNL     1     -40.868 -49.266  10.596  1.00  0.00    -0.382 N 
HETATM   10  H   UNL     1     -40.329 -49.221   9.734  1.00  0.00     0.160 HD
BRANCH   9  11
HETATM   11  C   UNL     1     -41.674 -48.089  10.889  1.00  0.00     0.107 C 
HETATM   12  C   UNL     1     -42.702 -47.786   9.812  1.00  0.00     0.053 C 
HETATM   13  C   UNL     1     -42.689 -46.274   9.658  1.00  0.00     0.169 C 
HETATM   14  O   UNL     1     -41.675 -45.746  10.518  1.00  0.00    -0.389 OA
HETATM   15  C   UNL     1     -40.808 -46.830  10.854  1.00  0.00     0.192 C 
ENDBRANCH   9  11
ENDBRANCH   4   9
BRANCH   1  16
HETATM   16  O   UNL     1     -39.496 -53.193  14.230  1.00  0.00    -0.341 OA
HETATM   17  C   UNL     1     -40.599 -54.072  14.436  1.00  0.00     0.211 C 
ENDBRANCH   1  16
TORSDOF 3
ENDMDL
