MODEL 1
REMARK VINA RESULT:      -6.0      0.000      0.000
REMARK  5 active torsions:
REMARK  status: ('A' for Active; 'I' for Inactive)
REMARK    1  A    between atoms: C_2  and  N_3 
REMARK    2  A    between atoms: C_2  and  C_13 
REMARK    3  A    between atoms: N_3  and  C_4 
REMARK    4  A    between atoms: C_4  and  C_5 
REMARK       I    between atoms: C_5  and  N_7 
REMARK    5  A    between atoms: C_13  and  N_15 
ROOT
HETATM    1  N   UNL     1     -39.666 -47.460  11.382  1.00  0.00     0.098 N 
HETATM    2  H   UNL     1     -39.849 -47.807  10.439  1.00  0.00     0.317 HD
ENDROOT
BRANCH   1   3
HETATM    3  C   UNL     1     -39.414 -48.577  12.324  1.00  0.00     0.241 C 
HETATM    4  C   UNL     1     -38.380 -48.151  13.379  1.00  0.00     0.045 C 
BRANCH   3   5
HETATM    5  C   UNL     1     -39.036 -49.930  11.636  1.00  0.00     0.136 C 
HETATM    6  C   UNL     1     -37.582 -50.357  11.869  1.00  0.00     0.036 C 
BRANCH   5   7
HETATM    7  N   UNL     1     -39.936 -51.016  12.034  1.00  0.00    -0.297 N 
HETATM    8  C   UNL     1     -39.804 -51.818  13.135  1.00  0.00     0.118 A 
HETATM    9  C   UNL     1     -40.874 -52.686  13.119  1.00  0.00    -0.028 A 
HETATM   10  C   UNL     1     -41.194 -53.769  14.073  1.00  0.00     0.051 C 
HETATM   11  C   UNL     1     -41.606 -52.302  11.972  1.00  0.00     0.115 A 
HETATM   12  N   UNL     1     -41.064 -51.263  11.335  1.00  0.00    -0.309 N 
ATOM     13  HN  UNL     1     -41.419 -50.771  10.515  1.00  0.00     0.186 HD
ENDBRANCH   5   7
ENDBRANCH   3   5
ENDBRANCH   1   3
BRANCH   1  14
HETATM   14  C   UNL     1     -40.748 -46.558  11.792  1.00  0.00     0.372 C 
BRANCH  14  15
HETATM   15  C   UNL     1     -41.443 -45.908  10.591  1.00  0.00     0.256 C 
HETATM   16  O   UNL     1     -40.933 -45.006   9.922  1.00  0.00    -0.271 OA
HETATM   17  N   UNL     1     -42.669 -46.474  10.252  1.00  0.00    -0.267 N 
HETATM   18  C   UNL     1     -43.467 -45.939   9.170  1.00  0.00     0.156 A 
HETATM   19  C   UNL     1     -43.178 -47.718  10.661  1.00  0.00     0.325 A 
HETATM   20  C   UNL     1     -44.593 -46.942   8.975  1.00  0.00     0.145 A 
HETATM   21  N   UNL     1     -44.312 -47.982   9.916  1.00  0.00    -0.341 N 
HETATM   22  H   UNL     1     -44.834 -48.839  10.050  1.00  0.00     0.164 HD
HETATM   23  O   UNL     1     -42.753 -48.474  11.515  1.00  0.00    -0.247 OA
ENDBRANCH  14  15
ENDBRANCH   1  14
TORSDOF 5
ENDMDL
MODEL 2
REMARK VINA RESULT:      -5.9      2.306      5.781
REMARK  5 active torsions:
REMARK  status: ('A' for Active; 'I' for Inactive)
REMARK    1  A    between atoms: C_2  and  N_3 
REMARK    2  A    between atoms: C_2  and  C_13 
REMARK    3  A    between atoms: N_3  and  C_4 
REMARK    4  A    between atoms: C_4  and  C_5 
REMARK       I    between atoms: C_5  and  N_7 
REMARK    5  A    between atoms: C_13  and  N_15 
ROOT
HETATM    1  N   UNL     1     -41.320 -49.505  11.072  1.00  0.00     0.098 N 
HETATM    2  H   UNL     1     -40.795 -50.190  10.526  1.00  0.00     0.317 HD
ENDROOT
BRANCH   1   3
HETATM    3  C   UNL     1     -40.797 -48.134  10.858  1.00  0.00     0.241 C 
HETATM    4  C   UNL     1     -39.659 -47.845  11.851  1.00  0.00     0.045 C 
BRANCH   3   5
HETATM    5  C   UNL     1     -41.892 -47.016  10.870  1.00  0.00     0.136 C 
HETATM    6  C   UNL     1     -41.345 -45.613  10.586  1.00  0.00     0.036 C 
BRANCH   5   7
HETATM    7  N   UNL     1     -42.986 -47.313   9.943  1.00  0.00    -0.297 N 
HETATM    8  C   UNL     1     -44.310 -47.446  10.265  1.00  0.00     0.118 A 
HETATM    9  C   UNL     1     -44.976 -47.712   9.088  1.00  0.00    -0.028 A 
HETATM   10  C   UNL     1     -46.419 -47.960   8.883  1.00  0.00     0.051 C 
HETATM   11  C   UNL     1     -43.956 -47.691   8.109  1.00  0.00     0.115 A 
HETATM   12  N   UNL     1     -42.756 -47.408   8.616  1.00  0.00    -0.309 N 
ATOM     13  HN  UNL     1     -41.872 -47.291   8.120  1.00  0.00     0.186 HD
ENDBRANCH   5   7
ENDBRANCH   3   5
ENDBRANCH   1   3
BRANCH   1  14
HETATM   14  C   UNL     1     -41.356 -49.923  12.479  1.00  0.00     0.372 C 
BRANCH  14  15
HETATM   15  C   UNL     1     -42.780 -50.237  12.949  1.00  0.00     0.256 C 
HETATM   16  O   UNL     1     -43.595 -49.366  13.263  1.00  0.00    -0.271 OA
HETATM   17  N   UNL     1     -43.119 -51.586  12.916  1.00  0.00    -0.267 N 
HETATM   18  C   UNL     1     -44.413 -52.045  13.375  1.00  0.00     0.156 A 
HETATM   19  C   UNL     1     -42.454 -52.618  12.233  1.00  0.00     0.325 A 
HETATM   20  C   UNL     1     -44.478 -53.511  12.976  1.00  0.00     0.145 A 
HETATM   21  N   UNL     1     -43.251 -53.747  12.281  1.00  0.00    -0.341 N 
HETATM   22  H   UNL     1     -42.956 -54.610  11.840  1.00  0.00     0.164 HD
HETATM   23  O   UNL     1     -41.368 -52.594  11.683  1.00  0.00    -0.247 OA
ENDBRANCH  14  15
ENDBRANCH   1  14
TORSDOF 5
ENDMDL
MODEL 3
REMARK VINA RESULT:      -5.8      2.534      6.043
REMARK  5 active torsions:
REMARK  status: ('A' for Active; 'I' for Inactive)
REMARK    1  A    between atoms: C_2  and  N_3 
REMARK    2  A    between atoms: C_2  and  C_13 
REMARK    3  A    between atoms: N_3  and  C_4 
REMARK    4  A    between atoms: C_4  and  C_5 
REMARK       I    between atoms: C_5  and  N_7 
REMARK    5  A    between atoms: C_13  and  N_15 
ROOT
HETATM    1  N   UNL     1     -41.868 -50.111  11.355  1.00  0.00     0.098 N 
HETATM    2  H   UNL     1     -41.884 -50.770  10.575  1.00  0.00     0.317 HD
ENDROOT
BRANCH   1   3
HETATM    3  C   UNL     1     -40.982 -48.959  11.065  1.00  0.00     0.241 C 
HETATM    4  C   UNL     1     -39.784 -48.961  12.029  1.00  0.00     0.045 C 
BRANCH   3   5
HETATM    5  C   UNL     1     -41.712 -47.575  11.031  1.00  0.00     0.136 C 
HETATM    6  C   UNL     1     -40.786 -46.396  10.712  1.00  0.00     0.036 C 
BRANCH   5   7
HETATM    7  N   UNL     1     -42.843 -47.576  10.100  1.00  0.00    -0.297 N 
HETATM    8  C   UNL     1     -44.163 -47.419  10.426  1.00  0.00     0.118 A 
HETATM    9  C   UNL     1     -44.869 -47.477   9.244  1.00  0.00    -0.028 A 
HETATM   10  C   UNL     1     -46.331 -47.382   9.040  1.00  0.00     0.051 C 
HETATM   11  C   UNL     1     -43.869 -47.647   8.259  1.00  0.00     0.115 A 
HETATM   12  N   UNL     1     -42.637 -47.665   8.769  1.00  0.00    -0.309 N 
ATOM     13  HN  UNL     1     -41.749 -47.731   8.271  1.00  0.00     0.186 HD
ENDBRANCH   5   7
ENDBRANCH   3   5
ENDBRANCH   1   3
BRANCH   1  14
HETATM   14  C   UNL     1     -41.541 -50.826  12.594  1.00  0.00     0.372 C 
BRANCH  14  15
HETATM   15  C   UNL     1     -41.983 -52.292  12.548  1.00  0.00     0.256 C 
HETATM   16  O   UNL     1     -41.197 -53.230  12.393  1.00  0.00    -0.271 OA
HETATM   17  N   UNL     1     -43.340 -52.497  12.780  1.00  0.00    -0.267 N 
HETATM   18  C   UNL     1     -43.918 -53.823  12.722  1.00  0.00     0.156 A 
HETATM   19  C   UNL     1     -44.257 -51.593  13.342  1.00  0.00     0.325 A 
HETATM   20  C   UNL     1     -45.338 -53.659  13.241  1.00  0.00     0.145 A 
HETATM   21  N   UNL     1     -45.430 -52.278  13.600  1.00  0.00    -0.341 N 
HETATM   22  H   UNL     1     -46.226 -51.808  14.015  1.00  0.00     0.164 HD
HETATM   23  O   UNL     1     -44.114 -50.408  13.579  1.00  0.00    -0.247 OA
ENDBRANCH  14  15
ENDBRANCH   1  14
TORSDOF 5
ENDMDL
MODEL 4
REMARK VINA RESULT:      -5.8      0.809      1.717
REMARK  5 active torsions:
REMARK  status: ('A' for Active; 'I' for Inactive)
REMARK    1  A    between atoms: C_2  and  N_3 
REMARK    2  A    between atoms: C_2  and  C_13 
REMARK    3  A    between atoms: N_3  and  C_4 
REMARK    4  A    between atoms: C_4  and  C_5 
REMARK       I    between atoms: C_5  and  N_7 
REMARK    5  A    between atoms: C_13  and  N_15 
ROOT
HETATM    1  N   UNL     1     -39.647 -47.992  11.230  1.00  0.00     0.098 N 
HETATM    2  H   UNL     1     -39.738 -48.548  10.378  1.00  0.00     0.317 HD
ENDROOT
BRANCH   1   3
HETATM    3  C   UNL     1     -39.384 -48.854  12.407  1.00  0.00     0.241 C 
HETATM    4  C   UNL     1     -38.479 -48.115  13.407  1.00  0.00     0.045 C 
BRANCH   3   5
HETATM    5  C   UNL     1     -38.840 -50.278  12.056  1.00  0.00     0.136 C 
HETATM    6  C   UNL     1     -37.562 -50.656  12.815  1.00  0.00     0.036 C 
BRANCH   5   7
HETATM    7  N   UNL     1     -39.854 -51.316  12.258  1.00  0.00    -0.297 N 
HETATM    8  C   UNL     1     -39.926 -52.188  13.310  1.00  0.00     0.118 A 
HETATM    9  C   UNL     1     -41.038 -52.973  13.094  1.00  0.00    -0.028 A 
HETATM   10  C   UNL     1     -41.555 -54.083  13.923  1.00  0.00     0.051 C 
HETATM   11  C   UNL     1     -41.581 -52.469  11.890  1.00  0.00     0.115 A 
HETATM   12  N   UNL     1     -40.891 -51.438  11.402  1.00  0.00    -0.309 N 
ATOM     13  HN  UNL     1     -41.097 -50.875  10.577  1.00  0.00     0.186 HD
ENDBRANCH   5   7
ENDBRANCH   3   5
ENDBRANCH   1   3
BRANCH   1  14
HETATM   14  C   UNL     1     -40.817 -47.118  11.373  1.00  0.00     0.372 C 
BRANCH  14  15
HETATM   15  C   UNL     1     -42.111 -47.810  10.931  1.00  0.00     0.256 C 
HETATM   16  O   UNL     1     -42.437 -48.938  11.310  1.00  0.00    -0.271 OA
HETATM   17  N   UNL     1     -42.941 -47.032  10.128  1.00  0.00    -0.267 N 
HETATM   18  C   UNL     1     -44.176 -47.564   9.593  1.00  0.00     0.156 A 
HETATM   19  C   UNL     1     -42.892 -45.641   9.943  1.00  0.00     0.325 A 
HETATM   20  C   UNL     1     -44.886 -46.370   8.974  1.00  0.00     0.145 A 
HETATM   21  N   UNL     1     -44.030 -45.260   9.256  1.00  0.00    -0.341 N 
HETATM   22  H   UNL     1     -44.195 -44.288   9.023  1.00  0.00     0.164 HD
HETATM   23  O   UNL     1     -42.031 -44.855  10.291  1.00  0.00    -0.247 OA
ENDBRANCH  14  15
ENDBRANCH   1  14
TORSDOF 5
ENDMDL
MODEL 5
REMARK VINA RESULT:      -5.7      2.985      4.424
REMARK  5 active torsions:
REMARK  status: ('A' for Active; 'I' for Inactive)
REMARK    1  A    between atoms: C_2  and  N_3 
REMARK    2  A    between atoms: C_2  and  C_13 
REMARK    3  A    between atoms: N_3  and  C_4 
REMARK    4  A    between atoms: C_4  and  C_5 
REMARK       I    between atoms: C_5  and  N_7 
REMARK    5  A    between atoms: C_13  and  N_15 
ROOT
HETATM    1  N   UNL     1     -42.188 -50.503  11.828  1.00  0.00     0.098 N 
HETATM    2  H   UNL     1     -42.883 -50.744  11.120  1.00  0.00     0.317 HD
ENDROOT
BRANCH   1   3
HETATM    3  C   UNL     1     -41.963 -51.631  12.763  1.00  0.00     0.241 C 
HETATM    4  C   UNL     1     -40.498 -52.091  12.690  1.00  0.00     0.045 C 
BRANCH   3   5
HETATM    5  C   UNL     1     -42.966 -52.821  12.593  1.00  0.00     0.136 C 
HETATM    6  C   UNL     1     -42.548 -54.093  13.340  1.00  0.00     0.036 C 
BRANCH   5   7
HETATM    7  N   UNL     1     -44.328 -52.448  12.984  1.00  0.00    -0.297 N 
HETATM    8  C   UNL     1     -44.736 -52.049  14.228  1.00  0.00     0.118 A 
HETATM    9  C   UNL     1     -46.086 -51.791  14.135  1.00  0.00    -0.028 A 
HETATM   10  C   UNL     1     -47.013 -51.349  15.199  1.00  0.00     0.051 C 
HETATM   11  C   UNL     1     -46.387 -52.042  12.777  1.00  0.00     0.115 A 
HETATM   12  N   UNL     1     -45.316 -52.400  12.066  1.00  0.00    -0.309 N 
ATOM     13  HN  UNL     1     -45.258 -52.592  11.066  1.00  0.00     0.186 HD
ENDBRANCH   5   7
ENDBRANCH   3   5
ENDBRANCH   1   3
BRANCH   1  14
HETATM   14  C   UNL     1     -42.569 -49.246  12.483  1.00  0.00     0.372 C 
BRANCH  14  15
HETATM   15  C   UNL     1     -41.363 -48.331  12.718  1.00  0.00     0.256 C 
HETATM   16  O   UNL     1     -40.528 -48.529  13.604  1.00  0.00    -0.271 OA
HETATM   17  N   UNL     1     -41.229 -47.296  11.796  1.00  0.00    -0.267 N 
HETATM   18  C   UNL     1     -40.166 -46.321  11.915  1.00  0.00     0.156 A 
HETATM   19  C   UNL     1     -41.856 -47.181  10.544  1.00  0.00     0.325 A 
HETATM   20  C   UNL     1     -40.225 -45.514  10.627  1.00  0.00     0.145 A 
HETATM   21  N   UNL     1     -41.270 -46.127   9.868  1.00  0.00    -0.341 N 
HETATM   22  H   UNL     1     -41.573 -45.875   8.935  1.00  0.00     0.164 HD
HETATM   23  O   UNL     1     -42.761 -47.848  10.079  1.00  0.00    -0.247 OA
ENDBRANCH  14  15
ENDBRANCH   1  14
TORSDOF 5
ENDMDL
MODEL 6
REMARK VINA RESULT:      -5.7      2.086      3.603
REMARK  5 active torsions:
REMARK  status: ('A' for Active; 'I' for Inactive)
REMARK    1  A    between atoms: C_2  and  N_3 
REMARK    2  A    between atoms: C_2  and  C_13 
REMARK    3  A    between atoms: N_3  and  C_4 
REMARK    4  A    between atoms: C_4  and  C_5 
REMARK       I    between atoms: C_5  and  N_7 
REMARK    5  A    between atoms: C_13  and  N_15 
ROOT
HETATM    1  N   UNL     1     -39.895 -51.080  11.778  1.00  0.00     0.098 N 
HETATM    2  H   UNL     1     -39.871 -51.722  10.984  1.00  0.00     0.317 HD
ENDROOT
BRANCH   1   3
HETATM    3  C   UNL     1     -40.383 -51.759  13.002  1.00  0.00     0.241 C 
HETATM    4  C   UNL     1     -39.385 -51.550  14.153  1.00  0.00     0.045 C 
BRANCH   3   5
HETATM    5  C   UNL     1     -40.748 -53.268  12.802  1.00  0.00     0.136 C 
HETATM    6  C   UNL     1     -40.055 -54.208  13.794  1.00  0.00     0.036 C 
BRANCH   5   7
HETATM    7  N   UNL     1     -42.196 -53.490  12.845  1.00  0.00    -0.297 N 
HETATM    8  C   UNL     1     -42.869 -54.286  13.731  1.00  0.00     0.118 A 
HETATM    9  C   UNL     1     -44.206 -54.189  13.409  1.00  0.00    -0.028 A 
HETATM   10  C   UNL     1     -45.357 -54.866  14.045  1.00  0.00     0.051 C 
HETATM   11  C   UNL     1     -44.229 -53.284  12.324  1.00  0.00     0.115 A 
HETATM   12  N   UNL     1     -43.018 -52.825  12.006  1.00  0.00    -0.309 N 
ATOM     13  HN  UNL     1     -42.771 -52.135  11.296  1.00  0.00     0.186 HD
ENDBRANCH   5   7
ENDBRANCH   3   5
ENDBRANCH   1   3
BRANCH   1  14
HETATM   14  C   UNL     1     -40.654 -49.878  11.414  1.00  0.00     0.372 C 
BRANCH  14  15
HETATM   15  C   UNL     1     -39.866 -48.593  11.691  1.00  0.00     0.256 C 
HETATM   16  O   UNL     1     -38.732 -48.588  12.177  1.00  0.00    -0.271 OA
HETATM   17  N   UNL     1     -40.494 -47.424  11.272  1.00  0.00    -0.267 N 
HETATM   18  C   UNL     1     -39.896 -46.127  11.508  1.00  0.00     0.156 A 
HETATM   19  C   UNL     1     -41.572 -47.305  10.379  1.00  0.00     0.325 A 
HETATM   20  C   UNL     1     -40.755 -45.147  10.724  1.00  0.00     0.145 A 
HETATM   21  N   UNL     1     -41.726 -45.967  10.070  1.00  0.00    -0.341 N 
HETATM   22  H   UNL     1     -42.451 -45.661   9.431  1.00  0.00     0.164 HD
HETATM   23  O   UNL     1     -42.287 -48.179   9.926  1.00  0.00    -0.247 OA
ENDBRANCH  14  15
ENDBRANCH   1  14
TORSDOF 5
ENDMDL
MODEL 7
REMARK VINA RESULT:      -5.5      1.970      5.541
REMARK  5 active torsions:
REMARK  status: ('A' for Active; 'I' for Inactive)
REMARK    1  A    between atoms: C_2  and  N_3 
REMARK    2  A    between atoms: C_2  and  C_13 
REMARK    3  A    between atoms: N_3  and  C_4 
REMARK    4  A    between atoms: C_4  and  C_5 
REMARK       I    between atoms: C_5  and  N_7 
REMARK    5  A    between atoms: C_13  and  N_15 
ROOT
HETATM    1  N   UNL     1     -39.893 -47.680  11.039  1.00  0.00     0.098 N 
HETATM    2  H   UNL     1     -38.920 -47.506  11.292  1.00  0.00     0.317 HD
ENDROOT
BRANCH   1   3
HETATM    3  C   UNL     1     -40.587 -46.421  10.676  1.00  0.00     0.241 C 
HETATM    4  C   UNL     1     -39.780 -45.213  11.179  1.00  0.00     0.045 C 
BRANCH   3   5
HETATM    5  C   UNL     1     -42.086 -46.358  11.120  1.00  0.00     0.136 C 
HETATM    6  C   UNL     1     -42.530 -44.972  11.600  1.00  0.00     0.036 C 
BRANCH   5   7
HETATM    7  N   UNL     1     -42.989 -46.824  10.064  1.00  0.00    -0.297 N 
HETATM    8  C   UNL     1     -44.264 -47.291  10.234  1.00  0.00     0.118 A 
HETATM    9  C   UNL     1     -44.737 -47.604   8.978  1.00  0.00    -0.028 A 
HETATM   10  C   UNL     1     -46.054 -48.166   8.605  1.00  0.00     0.051 C 
HETATM   11  C   UNL     1     -43.670 -47.262   8.117  1.00  0.00     0.115 A 
HETATM   12  N   UNL     1     -42.624 -46.749   8.767  1.00  0.00    -0.309 N 
ATOM     13  HN  UNL     1     -41.755 -46.386   8.376  1.00  0.00     0.186 HD
ENDBRANCH   5   7
ENDBRANCH   3   5
ENDBRANCH   1   3
BRANCH   1  14
HETATM   14  C   UNL     1     -40.549 -48.442  12.109  1.00  0.00     0.372 C 
BRANCH  14  15
HETATM   15  C   UNL     1     -40.297 -49.947  11.982  1.00  0.00     0.256 C 
HETATM   16  O   UNL     1     -39.171 -50.435  11.852  1.00  0.00    -0.271 OA
HETATM   17  N   UNL     1     -41.433 -50.741  12.112  1.00  0.00    -0.267 N 
HETATM   18  C   UNL     1     -41.363 -52.179  11.969  1.00  0.00     0.156 A 
HETATM   19  C   UNL     1     -42.681 -50.367  12.638  1.00  0.00     0.325 A 
HETATM   20  C   UNL     1     -42.732 -52.687  12.392  1.00  0.00     0.145 A 
HETATM   21  N   UNL     1     -43.442 -51.511  12.790  1.00  0.00    -0.341 N 
HETATM   22  H   UNL     1     -44.382 -51.464  13.164  1.00  0.00     0.164 HD
HETATM   23  O   UNL     1     -43.087 -49.256  12.924  1.00  0.00    -0.247 OA
ENDBRANCH  14  15
ENDBRANCH   1  14
TORSDOF 5
ENDMDL
MODEL 8
REMARK VINA RESULT:      -5.4      3.632      6.248
REMARK  5 active torsions:
REMARK  status: ('A' for Active; 'I' for Inactive)
REMARK    1  A    between atoms: C_2  and  N_3 
REMARK    2  A    between atoms: C_2  and  C_13 
REMARK    3  A    between atoms: N_3  and  C_4 
REMARK    4  A    between atoms: C_4  and  C_5 
REMARK       I    between atoms: C_5  and  N_7 
REMARK    5  A    between atoms: C_13  and  N_15 
ROOT
HETATM    1  N   UNL     1     -42.917 -52.912  11.660  1.00  0.00     0.098 N 
HETATM    2  H   UNL     1     -42.946 -53.372  10.749  1.00  0.00     0.317 HD
ENDROOT
BRANCH   1   3
HETATM    3  C   UNL     1     -41.524 -52.785  12.152  1.00  0.00     0.241 C 
HETATM    4  C   UNL     1     -41.124 -54.049  12.931  1.00  0.00     0.045 C 
BRANCH   3   5
HETATM    5  C   UNL     1     -41.243 -51.476  12.963  1.00  0.00     0.136 C 
HETATM    6  C   UNL     1     -39.807 -51.372  13.490  1.00  0.00     0.036 C 
BRANCH   5   7
HETATM    7  N   UNL     1     -41.570 -50.274  12.192  1.00  0.00    -0.297 N 
HETATM    8  C   UNL     1     -42.563 -49.375  12.472  1.00  0.00     0.118 A 
HETATM    9  C   UNL     1     -42.501 -48.405  11.495  1.00  0.00    -0.028 A 
HETATM   10  C   UNL     1     -43.364 -47.216  11.323  1.00  0.00     0.051 C 
HETATM   11  C   UNL     1     -41.412 -48.805  10.687  1.00  0.00     0.115 A 
HETATM   12  N   UNL     1     -40.818 -49.914  11.130  1.00  0.00    -0.309 N 
ATOM     13  HN  UNL     1     -39.992 -50.380  10.755  1.00  0.00     0.186 HD
ENDBRANCH   5   7
ENDBRANCH   3   5
ENDBRANCH   1   3
BRANCH   1  14
HETATM   14  C   UNL     1     -43.822 -53.602  12.587  1.00  0.00     0.372 C 
BRANCH  14  15
HETATM   15  C   UNL     1     -45.145 -52.850  12.765  1.00  0.00     0.256 C 
HETATM   16  O   UNL     1     -46.029 -52.824  11.905  1.00  0.00    -0.271 OA
HETATM   17  N   UNL     1     -45.316 -52.263  14.016  1.00  0.00    -0.267 N 
HETATM   18  C   UNL     1     -46.494 -51.479  14.320  1.00  0.00     0.156 A 
HETATM   19  C   UNL     1     -44.595 -52.531  15.191  1.00  0.00     0.325 A 
HETATM   20  C   UNL     1     -46.413 -51.208  15.814  1.00  0.00     0.145 A 
HETATM   21  N   UNL     1     -45.237 -51.900  16.240  1.00  0.00    -0.341 N 
HETATM   22  H   UNL     1     -44.881 -51.971  17.186  1.00  0.00     0.164 HD
HETATM   23  O   UNL     1     -43.578 -53.184  15.331  1.00  0.00    -0.247 OA
ENDBRANCH  14  15
ENDBRANCH   1  14
TORSDOF 5
ENDMDL
MODEL 9
REMARK VINA RESULT:      -5.3      2.643      6.380
REMARK  5 active torsions:
REMARK  status: ('A' for Active; 'I' for Inactive)
REMARK    1  A    between atoms: C_2  and  N_3 
REMARK    2  A    between atoms: C_2  and  C_13 
REMARK    3  A    between atoms: N_3  and  C_4 
REMARK    4  A    between atoms: C_4  and  C_5 
REMARK       I    between atoms: C_5  and  N_7 
REMARK    5  A    between atoms: C_13  and  N_15 
ROOT
HETATM    1  N   UNL     1     -41.643 -49.946  11.355  1.00  0.00     0.098 N 
HETATM    2  H   UNL     1     -41.356 -50.463  10.522  1.00  0.00     0.317 HD
ENDROOT
BRANCH   1   3
HETATM    3  C   UNL     1     -41.029 -48.597  11.386  1.00  0.00     0.241 C 
HETATM    4  C   UNL     1     -40.756 -48.177  12.840  1.00  0.00     0.045 C 
BRANCH   3   5
HETATM    5  C   UNL     1     -41.825 -47.506  10.595  1.00  0.00     0.136 C 
HETATM    6  C   UNL     1     -43.285 -47.362  11.041  1.00  0.00     0.036 C 
BRANCH   5   7
HETATM    7  N   UNL     1     -41.164 -46.200  10.649  1.00  0.00    -0.297 N 
HETATM    8  C   UNL     1     -41.671 -45.055  11.202  1.00  0.00     0.118 A 
HETATM    9  C   UNL     1     -40.711 -44.081  11.038  1.00  0.00    -0.028 A 
HETATM   10  C   UNL     1     -40.765 -42.659  11.440  1.00  0.00     0.051 C 
HETATM   11  C   UNL     1     -39.649 -44.756  10.393  1.00  0.00     0.115 A 
HETATM   12  N   UNL     1     -39.902 -46.050  10.194  1.00  0.00    -0.309 N 
ATOM     13  HN  UNL     1     -39.288 -46.758   9.792  1.00  0.00     0.186 HD
ENDBRANCH   5   7
ENDBRANCH   3   5
ENDBRANCH   1   3
BRANCH   1  14
HETATM   14  C   UNL     1     -41.379 -50.756  12.550  1.00  0.00     0.372 C 
BRANCH  14  15
HETATM   15  C   UNL     1     -41.977 -52.161  12.437  1.00  0.00     0.256 C 
HETATM   16  O   UNL     1     -41.298 -53.171  12.230  1.00  0.00    -0.271 OA
HETATM   17  N   UNL     1     -43.348 -52.230  12.672  1.00  0.00    -0.267 N 
HETATM   18  C   UNL     1     -44.065 -53.482  12.555  1.00  0.00     0.156 A 
HETATM   19  C   UNL     1     -44.159 -51.261  13.284  1.00  0.00     0.325 A 
HETATM   20  C   UNL     1     -45.457 -53.192  13.094  1.00  0.00     0.145 A 
HETATM   21  N   UNL     1     -45.398 -51.828  13.520  1.00  0.00    -0.341 N 
HETATM   22  H   UNL     1     -46.137 -51.296  13.965  1.00  0.00     0.164 HD
HETATM   23  O   UNL     1     -43.888 -50.112  13.576  1.00  0.00    -0.247 OA
ENDBRANCH  14  15
ENDBRANCH   1  14
TORSDOF 5
ENDMDL
