MODEL 1
REMARK VINA RESULT:      -6.8      0.000      0.000
REMARK  5 active torsions:
REMARK  status: ('A' for Active; 'I' for Inactive)
REMARK       I    between atoms: C_2  and  N_3 
REMARK       I    between atoms: C_2  and  N_12 
REMARK    1  A    between atoms: N_3  and  C_4 
REMARK    2  A    between atoms: C_4  and  C_5 
REMARK    3  A    between atoms: C_5  and  C_6 
REMARK    4  A    between atoms: N_12  and  C_13 
REMARK    5  A    between atoms: C_16  and  N_20 
ROOT
HETATM    1  C   UNL     1     -41.752 -48.263  11.228  1.00  0.00     0.051 A 
HETATM    2  C   UNL     1     -40.571 -47.542  11.180  1.00  0.00     0.035 A 
HETATM    3  C   UNL     1     -40.617 -46.151  11.242  1.00  0.00     0.051 A 
HETATM    4  C   UNL     1     -41.835 -45.479  11.353  1.00  0.00     0.103 A 
HETATM    5  N   UNL     1     -42.997 -46.163  11.382  1.00  0.00    -0.350 N 
ATOM      6  HN  UNL     1     -43.894 -45.681  11.437  1.00  0.00     0.166 HD
HETATM    7  C   UNL     1     -42.928 -47.521  11.333  1.00  0.00     0.119 A 
ENDROOT
BRANCH   1   8
HETATM    8  N   UNL     1     -41.817 -49.669  11.177  1.00  0.00    -0.308 N 
HETATM    9  C   UNL     1     -41.812 -50.544  12.245  1.00  0.00     0.320 C 
HETATM   10  O   UNL     1     -41.682 -50.262  13.429  1.00  0.00    -0.247 OA
HETATM   11  N   UNL     1     -41.977 -51.843  11.805  1.00  0.00    -0.343 N 
HETATM   12  H   UNL     1     -42.564 -51.933  10.989  1.00  0.00     0.164 HD
HETATM   13  H   UNL     1     -41.760 -50.097  10.265  1.00  0.00     0.170 HD
BRANCH  11  14
HETATM   14  C   UNL     1     -42.080 -52.919  12.779  1.00  0.00     0.128 C 
BRANCH  14  15
HETATM   15  C   UNL     1     -43.439 -53.614  12.681  1.00  0.00     0.053 C 
BRANCH  15  16
HETATM   16  C   UNL     1     -44.548 -52.851  13.368  1.00  0.00    -0.082 A 
HETATM   17  C   UNL     1     -44.447 -52.498  14.656  1.00  0.00    -0.024 A 
HETATM   18  C   UNL     1     -45.480 -51.744  15.417  1.00  0.00     0.027 A 
HETATM   19  C   UNL     1     -46.734 -51.324  14.657  1.00  0.00     0.004 A 
HETATM   20  C   UNL     1     -46.848 -51.681  13.177  1.00  0.00     0.005 A 
HETATM   21  C   UNL     1     -45.734 -52.497  12.523  1.00  0.00     0.034 A 
ENDBRANCH  15  16
ENDBRANCH  14  15
ENDBRANCH  11  14
ENDBRANCH   1   8
BRANCH   4  22
HETATM   22  N   UNL     1     -41.837 -44.097  11.338  1.00  0.00    -0.357 N 
HETATM   23  C   UNL     1     -40.588 -43.378  11.104  1.00  0.00     0.144 C 
HETATM   24  C   UNL     1     -40.707 -42.046  11.868  1.00  0.00     0.142 C 
HETATM   25  N   UNL     1     -41.938 -41.318  11.579  1.00  0.00    -0.358 N 
HETATM   26  C   UNL     1     -43.122 -41.982  11.336  1.00  0.00     0.235 C 
HETATM   27  H   UNL     1     -42.075 -40.413  12.010  1.00  0.00     0.162 HD
HETATM   28  O   UNL     1     -44.196 -41.401  11.483  1.00  0.00    -0.272 OA
HETATM   29  C   UNL     1     -43.021 -43.414  10.785  1.00  0.00     0.227 C 
ENDBRANCH   4  22
TORSDOF 5
ENDMDL
MODEL 2
REMARK VINA RESULT:      -6.7      1.251      1.545
REMARK  5 active torsions:
REMARK  status: ('A' for Active; 'I' for Inactive)
REMARK       I    between atoms: C_2  and  N_3 
REMARK       I    between atoms: C_2  and  N_12 
REMARK    1  A    between atoms: N_3  and  C_4 
REMARK    2  A    between atoms: C_4  and  C_5 
REMARK    3  A    between atoms: C_5  and  C_6 
REMARK    4  A    between atoms: N_12  and  C_13 
REMARK    5  A    between atoms: C_16  and  N_20 
ROOT
HETATM    1  C   UNL     1     -41.893 -48.146  11.542  1.00  0.00     0.051 A 
HETATM    2  C   UNL     1     -40.690 -47.526  11.251  1.00  0.00     0.035 A 
HETATM    3  C   UNL     1     -40.575 -46.148  11.417  1.00  0.00     0.051 A 
HETATM    4  C   UNL     1     -41.653 -45.389  11.875  1.00  0.00     0.103 A 
HETATM    5  N   UNL     1     -42.839 -45.973  12.146  1.00  0.00    -0.350 N 
ATOM      6  HN  UNL     1     -43.640 -45.425  12.456  1.00  0.00     0.166 HD
HETATM    7  C   UNL     1     -42.925 -47.322  11.988  1.00  0.00     0.119 A 
ENDROOT
BRANCH   1   8
HETATM    8  N   UNL     1     -42.114 -49.532  11.414  1.00  0.00    -0.308 N 
HETATM    9  C   UNL     1     -41.781 -50.518  12.320  1.00  0.00     0.320 C 
HETATM   10  O   UNL     1     -41.171 -50.378  13.372  1.00  0.00    -0.247 OA
HETATM   11  N   UNL     1     -42.234 -51.748  11.884  1.00  0.00    -0.343 N 
HETATM   12  H   UNL     1     -43.099 -51.710  11.364  1.00  0.00     0.164 HD
HETATM   13  H   UNL     1     -42.460 -49.858  10.524  1.00  0.00     0.170 HD
BRANCH  11  14
HETATM   14  C   UNL     1     -42.058 -52.917  12.731  1.00  0.00     0.128 C 
BRANCH  14  15
HETATM   15  C   UNL     1     -43.359 -53.713  12.840  1.00  0.00     0.053 C 
BRANCH  15  16
HETATM   16  C   UNL     1     -44.495 -52.916  13.439  1.00  0.00    -0.082 A 
HETATM   17  C   UNL     1     -44.459 -52.518  14.717  1.00  0.00    -0.024 A 
HETATM   18  C   UNL     1     -45.524 -51.729  15.394  1.00  0.00     0.027 A 
HETATM   19  C   UNL     1     -46.730 -51.324  14.553  1.00  0.00     0.004 A 
HETATM   20  C   UNL     1     -46.768 -51.733  13.082  1.00  0.00     0.005 A 
HETATM   21  C   UNL     1     -45.630 -52.582  12.519  1.00  0.00     0.034 A 
ENDBRANCH  15  16
ENDBRANCH  14  15
ENDBRANCH  11  14
ENDBRANCH   1   8
BRANCH   4  22
HETATM   22  N   UNL     1     -41.516 -44.016  11.956  1.00  0.00    -0.357 N 
HETATM   23  C   UNL     1     -42.623 -43.157  11.545  1.00  0.00     0.144 C 
HETATM   24  C   UNL     1     -41.987 -41.857  11.018  1.00  0.00     0.142 C 
HETATM   25  N   UNL     1     -41.017 -41.269  11.935  1.00  0.00    -0.358 N 
HETATM   26  C   UNL     1     -40.207 -42.060  12.724  1.00  0.00     0.235 C 
HETATM   27  H   UNL     1     -40.583 -40.391  11.681  1.00  0.00     0.162 HD
HETATM   28  O   UNL     1     -39.160 -41.607  13.181  1.00  0.00    -0.272 OA
HETATM   29  C   UNL     1     -40.727 -43.465  13.073  1.00  0.00     0.227 C 
ENDBRANCH   4  22
TORSDOF 5
ENDMDL
MODEL 3
REMARK VINA RESULT:      -6.7      1.580      2.024
REMARK  5 active torsions:
REMARK  status: ('A' for Active; 'I' for Inactive)
REMARK       I    between atoms: C_2  and  N_3 
REMARK       I    between atoms: C_2  and  N_12 
REMARK    1  A    between atoms: N_3  and  C_4 
REMARK    2  A    between atoms: C_4  and  C_5 
REMARK    3  A    between atoms: C_5  and  C_6 
REMARK    4  A    between atoms: N_12  and  C_13 
REMARK    5  A    between atoms: C_16  and  N_20 
ROOT
HETATM    1  C   UNL     1     -41.668 -49.567  11.775  1.00  0.00     0.051 A 
HETATM    2  C   UNL     1     -42.574 -48.624  12.228  1.00  0.00     0.035 A 
HETATM    3  C   UNL     1     -42.208 -47.281  12.250  1.00  0.00     0.051 A 
HETATM    4  C   UNL     1     -40.943 -46.877  11.821  1.00  0.00     0.103 A 
HETATM    5  N   UNL     1     -40.040 -47.783  11.395  1.00  0.00    -0.350 N 
ATOM      6  HN  UNL     1     -39.104 -47.502  11.104  1.00  0.00     0.166 HD
HETATM    7  C   UNL     1     -40.423 -49.088  11.370  1.00  0.00     0.119 A 
ENDROOT
BRANCH   1   8
HETATM    8  N   UNL     1     -41.939 -50.949  11.707  1.00  0.00    -0.308 N 
HETATM    9  C   UNL     1     -42.270 -51.786  12.753  1.00  0.00     0.320 C 
HETATM   10  O   UNL     1     -42.325 -51.498  13.941  1.00  0.00    -0.247 OA
HETATM   11  N   UNL     1     -42.548 -53.056  12.284  1.00  0.00    -0.343 N 
HETATM   12  H   UNL     1     -42.976 -53.076  11.371  1.00  0.00     0.164 HD
HETATM   13  H   UNL     1     -41.776 -51.403  10.821  1.00  0.00     0.170 HD
BRANCH  11  14
HETATM   14  C   UNL     1     -42.998 -54.079  13.216  1.00  0.00     0.128 C 
BRANCH  14  15
HETATM   15  C   UNL     1     -44.497 -54.339  13.057  1.00  0.00     0.053 C 
BRANCH  15  16
HETATM   16  C   UNL     1     -45.350 -53.458  13.940  1.00  0.00    -0.082 A 
HETATM   17  C   UNL     1     -45.495 -53.723  15.245  1.00  0.00    -0.024 A 
HETATM   18  C   UNL     1     -46.308 -52.914  16.194  1.00  0.00     0.027 A 
HETATM   19  C   UNL     1     -47.002 -51.677  15.634  1.00  0.00     0.004 A 
HETATM   20  C   UNL     1     -46.814 -51.335  14.158  1.00  0.00     0.005 A 
HETATM   21  C   UNL     1     -45.988 -52.273  13.280  1.00  0.00     0.034 A 
ENDBRANCH  15  16
ENDBRANCH  14  15
ENDBRANCH  11  14
ENDBRANCH   1   8
BRANCH   4  22
HETATM   22  N   UNL     1     -40.597 -45.542  11.929  1.00  0.00    -0.357 N 
HETATM   23  C   UNL     1     -39.425 -45.165  12.713  1.00  0.00     0.144 C 
HETATM   24  C   UNL     1     -39.717 -43.763  13.279  1.00  0.00     0.142 C 
HETATM   25  N   UNL     1     -40.156 -42.807  12.269  1.00  0.00    -0.358 N 
HETATM   26  C   UNL     1     -40.936 -43.201  11.201  1.00  0.00     0.235 C 
HETATM   27  H   UNL     1     -40.331 -41.852  12.552  1.00  0.00     0.162 HD
HETATM   28  O   UNL     1     -41.614 -42.374  10.594  1.00  0.00    -0.272 OA
HETATM   29  C   UNL     1     -40.830 -44.672  10.762  1.00  0.00     0.227 C 
ENDBRANCH   4  22
TORSDOF 5
ENDMDL
MODEL 4
REMARK VINA RESULT:      -6.4      1.833      2.488
REMARK  5 active torsions:
REMARK  status: ('A' for Active; 'I' for Inactive)
REMARK       I    between atoms: C_2  and  N_3 
REMARK       I    between atoms: C_2  and  N_12 
REMARK    1  A    between atoms: N_3  and  C_4 
REMARK    2  A    between atoms: C_4  and  C_5 
REMARK    3  A    between atoms: C_5  and  C_6 
REMARK    4  A    between atoms: N_12  and  C_13 
REMARK    5  A    between atoms: C_16  and  N_20 
ROOT
HETATM    1  C   UNL     1     -41.166 -47.205  10.934  1.00  0.00     0.051 A 
HETATM    2  C   UNL     1     -40.128 -46.292  11.004  1.00  0.00     0.035 A 
HETATM    3  C   UNL     1     -40.415 -44.945  11.212  1.00  0.00     0.051 A 
HETATM    4  C   UNL     1     -41.733 -44.509  11.351  1.00  0.00     0.103 A 
HETATM    5  N   UNL     1     -42.759 -45.380  11.267  1.00  0.00    -0.350 N 
ATOM      6  HN  UNL     1     -43.727 -45.068  11.342  1.00  0.00     0.166 HD
HETATM    7  C   UNL     1     -42.454 -46.693  11.076  1.00  0.00     0.119 A 
ENDROOT
BRANCH   1   8
HETATM    8  N   UNL     1     -40.984 -48.588  10.733  1.00  0.00    -0.308 N 
HETATM    9  C   UNL     1     -40.895 -49.568  11.700  1.00  0.00     0.320 C 
HETATM   10  O   UNL     1     -40.891 -49.408  12.914  1.00  0.00    -0.247 OA
HETATM   11  N   UNL     1     -40.807 -50.816  11.116  1.00  0.00    -0.343 N 
HETATM   12  H   UNL     1     -41.316 -50.906  10.250  1.00  0.00     0.164 HD
HETATM   13  H   UNL     1     -40.797 -48.891   9.789  1.00  0.00     0.170 HD
BRANCH  11  14
HETATM   14  C   UNL     1     -40.784 -52.001  11.961  1.00  0.00     0.128 C 
BRANCH  14  15
HETATM   15  C   UNL     1     -42.152 -52.684  11.978  1.00  0.00     0.053 C 
BRANCH  15  16
HETATM   16  C   UNL     1     -42.366 -53.555  13.195  1.00  0.00    -0.082 A 
HETATM   17  C   UNL     1     -43.575 -54.053  13.483  1.00  0.00    -0.024 A 
HETATM   18  C   UNL     1     -43.883 -54.921  14.653  1.00  0.00     0.027 A 
HETATM   19  C   UNL     1     -42.722 -55.287  15.571  1.00  0.00     0.004 A 
HETATM   20  C   UNL     1     -41.328 -54.763  15.235  1.00  0.00     0.005 A 
HETATM   21  C   UNL     1     -41.153 -53.842  14.027  1.00  0.00     0.034 A 
ENDBRANCH  15  16
ENDBRANCH  14  15
ENDBRANCH  11  14
ENDBRANCH   1   8
BRANCH   4  22
HETATM   22  N   UNL     1     -41.976 -43.154  11.483  1.00  0.00    -0.357 N 
HETATM   23  C   UNL     1     -40.857 -42.217  11.450  1.00  0.00     0.144 C 
HETATM   24  C   UNL     1     -41.267 -41.024  12.335  1.00  0.00     0.142 C 
HETATM   25  N   UNL     1     -42.579 -40.479  12.007  1.00  0.00    -0.358 N 
HETATM   26  C   UNL     1     -43.606 -41.294  11.579  1.00  0.00     0.235 C 
HETATM   27  H   UNL     1     -42.905 -39.668  12.516  1.00  0.00     0.162 HD
HETATM   28  O   UNL     1     -44.773 -40.920  11.682  1.00  0.00    -0.272 OA
HETATM   29  C   UNL     1     -43.214 -42.613  10.892  1.00  0.00     0.227 C 
ENDBRANCH   4  22
TORSDOF 5
ENDMDL
MODEL 5
REMARK VINA RESULT:      -6.3      3.955      9.248
REMARK  5 active torsions:
REMARK  status: ('A' for Active; 'I' for Inactive)
REMARK       I    between atoms: C_2  and  N_3 
REMARK       I    between atoms: C_2  and  N_12 
REMARK    1  A    between atoms: N_3  and  C_4 
REMARK    2  A    between atoms: C_4  and  C_5 
REMARK    3  A    between atoms: C_5  and  C_6 
REMARK    4  A    between atoms: N_12  and  C_13 
REMARK    5  A    between atoms: C_16  and  N_20 
ROOT
HETATM    1  C   UNL     1     -41.459 -51.517  12.638  1.00  0.00     0.051 A 
HETATM    2  C   UNL     1     -42.333 -52.340  13.327  1.00  0.00     0.035 A 
HETATM    3  C   UNL     1     -41.828 -53.249  14.253  1.00  0.00     0.051 A 
HETATM    4  C   UNL     1     -40.456 -53.337  14.494  1.00  0.00     0.103 A 
HETATM    5  N   UNL     1     -39.587 -52.557  13.818  1.00  0.00    -0.350 N 
ATOM      6  HN  UNL     1     -38.581 -52.631  13.969  1.00  0.00     0.166 HD
HETATM    7  C   UNL     1     -40.104 -51.668  12.928  1.00  0.00     0.119 A 
ENDROOT
BRANCH   1   8
HETATM    8  N   UNL     1     -41.866 -50.561  11.685  1.00  0.00    -0.308 N 
HETATM    9  C   UNL     1     -42.115 -49.222  11.901  1.00  0.00     0.320 C 
HETATM   10  O   UNL     1     -42.094 -48.630  12.973  1.00  0.00    -0.247 OA
HETATM   11  N   UNL     1     -42.408 -48.587  10.709  1.00  0.00    -0.343 N 
HETATM   12  H   UNL     1     -41.919 -48.961   9.910  1.00  0.00     0.164 HD
HETATM   13  H   UNL     1     -42.100 -50.905  10.766  1.00  0.00     0.170 HD
BRANCH  11  14
HETATM   14  C   UNL     1     -42.626 -47.148  10.700  1.00  0.00     0.128 C 
BRANCH  14  15
HETATM   15  C   UNL     1     -43.052 -46.671   9.311  1.00  0.00     0.053 C 
BRANCH  15  16
HETATM   16  C   UNL     1     -44.221 -47.447   8.749  1.00  0.00    -0.082 A 
HETATM   17  C   UNL     1     -44.109 -48.127   7.600  1.00  0.00    -0.024 A 
HETATM   18  C   UNL     1     -45.199 -48.921   6.970  1.00  0.00     0.027 A 
HETATM   19  C   UNL     1     -46.531 -48.982   7.711  1.00  0.00     0.004 A 
HETATM   20  C   UNL     1     -46.664 -48.248   9.043  1.00  0.00     0.005 A 
HETATM   21  C   UNL     1     -45.481 -47.430   9.560  1.00  0.00     0.034 A 
ENDBRANCH  15  16
ENDBRANCH  14  15
ENDBRANCH  11  14
ENDBRANCH   1   8
BRANCH   4  22
HETATM   22  N   UNL     1     -39.993 -54.304  15.368  1.00  0.00    -0.357 N 
HETATM   23  C   UNL     1     -38.683 -54.141  15.992  1.00  0.00     0.144 C 
HETATM   24  C   UNL     1     -38.138 -55.562  16.227  1.00  0.00     0.142 C 
HETATM   25  N   UNL     1     -39.078 -56.441  16.914  1.00  0.00    -0.358 N 
HETATM   26  C   UNL     1     -40.437 -56.344  16.697  1.00  0.00     0.235 C 
HETATM   27  H   UNL     1     -38.782 -57.381  17.142  1.00  0.00     0.162 HD
HETATM   28  O   UNL     1     -41.171 -57.298  16.950  1.00  0.00    -0.272 OA
HETATM   29  C   UNL     1     -40.977 -54.980  16.233  1.00  0.00     0.227 C 
ENDBRANCH   4  22
TORSDOF 5
ENDMDL
MODEL 6
REMARK VINA RESULT:      -6.0      2.153      2.659
REMARK  5 active torsions:
REMARK  status: ('A' for Active; 'I' for Inactive)
REMARK       I    between atoms: C_2  and  N_3 
REMARK       I    between atoms: C_2  and  N_12 
REMARK    1  A    between atoms: N_3  and  C_4 
REMARK    2  A    between atoms: C_4  and  C_5 
REMARK    3  A    between atoms: C_5  and  C_6 
REMARK    4  A    between atoms: N_12  and  C_13 
REMARK    5  A    between atoms: C_16  and  N_20 
ROOT
HETATM    1  C   UNL     1     -39.300 -48.827  13.043  1.00  0.00     0.051 A 
HETATM    2  C   UNL     1     -39.023 -47.892  14.026  1.00  0.00     0.035 A 
HETATM    3  C   UNL     1     -39.268 -46.545  13.775  1.00  0.00     0.051 A 
HETATM    4  C   UNL     1     -39.790 -46.128  12.549  1.00  0.00     0.103 A 
HETATM    5  N   UNL     1     -40.048 -47.022  11.572  1.00  0.00    -0.350 N 
ATOM      6  HN  UNL     1     -40.405 -46.726  10.664  1.00  0.00     0.166 HD
HETATM    7  C   UNL     1     -39.813 -48.335  11.844  1.00  0.00     0.119 A 
ENDROOT
BRANCH   1   8
HETATM    8  N   UNL     1     -39.095 -50.213  13.196  1.00  0.00    -0.308 N 
HETATM    9  C   UNL     1     -39.940 -51.120  13.801  1.00  0.00     0.320 C 
HETATM   10  O   UNL     1     -40.993 -50.878  14.377  1.00  0.00    -0.247 OA
HETATM   11  N   UNL     1     -39.438 -52.402  13.681  1.00  0.00    -0.343 N 
HETATM   12  H   UNL     1     -38.930 -52.569  12.826  1.00  0.00     0.164 HD
HETATM   13  H   UNL     1     -38.191 -50.573  12.928  1.00  0.00     0.170 HD
BRANCH  11  14
HETATM   14  C   UNL     1     -40.216 -53.524  14.183  1.00  0.00     0.128 C 
BRANCH  14  15
HETATM   15  C   UNL     1     -41.042 -54.159  13.063  1.00  0.00     0.053 C 
BRANCH  15  16
HETATM   16  C   UNL     1     -42.532 -54.064  13.297  1.00  0.00    -0.082 A 
HETATM   17  C   UNL     1     -43.120 -54.746  14.289  1.00  0.00    -0.024 A 
HETATM   18  C   UNL     1     -44.575 -54.715  14.599  1.00  0.00     0.027 A 
HETATM   19  C   UNL     1     -45.450 -53.813  13.735  1.00  0.00     0.004 A 
HETATM   20  C   UNL     1     -44.791 -52.995  12.628  1.00  0.00     0.005 A 
HETATM   21  C   UNL     1     -43.292 -53.151  12.383  1.00  0.00     0.034 A 
ENDBRANCH  15  16
ENDBRANCH  14  15
ENDBRANCH  11  14
ENDBRANCH   1   8
BRANCH   4  22
HETATM   22  N   UNL     1     -39.948 -44.774  12.317  1.00  0.00    -0.357 N 
HETATM   23  C   UNL     1     -38.977 -43.833  12.866  1.00  0.00     0.144 C 
HETATM   24  C   UNL     1     -39.746 -42.525  13.132  1.00  0.00     0.142 C 
HETATM   25  N   UNL     1     -40.521 -42.063  11.986  1.00  0.00    -0.358 N 
HETATM   26  C   UNL     1     -41.126 -42.954  11.124  1.00  0.00     0.235 C 
HETATM   27  H   UNL     1     -41.024 -41.188  12.065  1.00  0.00     0.162 HD
HETATM   28  O   UNL     1     -42.069 -42.591  10.424  1.00  0.00    -0.272 OA
HETATM   29  C   UNL     1     -40.503 -44.357  11.017  1.00  0.00     0.227 C 
ENDBRANCH   4  22
TORSDOF 5
ENDMDL
MODEL 7
REMARK VINA RESULT:      -5.9      3.486      9.706
REMARK  5 active torsions:
REMARK  status: ('A' for Active; 'I' for Inactive)
REMARK       I    between atoms: C_2  and  N_3 
REMARK       I    between atoms: C_2  and  N_12 
REMARK    1  A    between atoms: N_3  and  C_4 
REMARK    2  A    between atoms: C_4  and  C_5 
REMARK    3  A    between atoms: C_5  and  C_6 
REMARK    4  A    between atoms: N_12  and  C_13 
REMARK    5  A    between atoms: C_16  and  N_20 
ROOT
HETATM    1  C   UNL     1     -40.027 -50.081  12.060  1.00  0.00     0.051 A 
HETATM    2  C   UNL     1     -40.929 -51.095  11.791  1.00  0.00     0.035 A 
HETATM    3  C   UNL     1     -40.975 -52.208  12.628  1.00  0.00     0.051 A 
HETATM    4  C   UNL     1     -40.126 -52.309  13.731  1.00  0.00     0.103 A 
HETATM    5  N   UNL     1     -39.227 -51.340  13.998  1.00  0.00    -0.350 N 
ATOM      6  HN  UNL     1     -38.585 -51.416  14.787  1.00  0.00     0.166 HD
HETATM    7  C   UNL     1     -39.209 -50.256  13.175  1.00  0.00     0.119 A 
ENDROOT
BRANCH   1   8
HETATM    8  N   UNL     1     -39.902 -48.912  11.282  1.00  0.00    -0.308 N 
HETATM    9  C   UNL     1     -40.690 -47.781  11.343  1.00  0.00     0.320 C 
HETATM   10  O   UNL     1     -41.683 -47.610  12.038  1.00  0.00    -0.247 OA
HETATM   11  N   UNL     1     -40.208 -46.811  10.486  1.00  0.00    -0.343 N 
HETATM   12  H   UNL     1     -39.204 -46.810  10.384  1.00  0.00     0.164 HD
HETATM   13  H   UNL     1     -39.233 -48.936  10.527  1.00  0.00     0.170 HD
BRANCH  11  14
HETATM   14  C   UNL     1     -40.848 -45.504  10.454  1.00  0.00     0.128 C 
BRANCH  14  15
HETATM   15  C   UNL     1     -39.842 -44.398  10.776  1.00  0.00     0.053 C 
BRANCH  15  16
HETATM   16  C   UNL     1     -40.138 -43.687  12.077  1.00  0.00    -0.082 A 
HETATM   17  C   UNL     1     -40.132 -44.348  13.241  1.00  0.00    -0.024 A 
HETATM   18  C   UNL     1     -40.407 -43.736  14.570  1.00  0.00     0.027 A 
HETATM   19  C   UNL     1     -40.688 -42.237  14.600  1.00  0.00     0.004 A 
HETATM   20  C   UNL     1     -40.657 -41.459  13.287  1.00  0.00     0.005 A 
HETATM   21  C   UNL     1     -40.406 -42.215  11.983  1.00  0.00     0.034 A 
ENDBRANCH  15  16
ENDBRANCH  14  15
ENDBRANCH  11  14
ENDBRANCH   1   8
BRANCH   4  22
HETATM   22  N   UNL     1     -40.156 -53.464  14.491  1.00  0.00    -0.357 N 
HETATM   23  C   UNL     1     -41.442 -54.026  14.894  1.00  0.00     0.144 C 
HETATM   24  C   UNL     1     -41.202 -54.731  16.242  1.00  0.00     0.142 C 
HETATM   25  N   UNL     1     -40.069 -55.649  16.226  1.00  0.00    -0.358 N 
HETATM   26  C   UNL     1     -38.943 -55.384  15.475  1.00  0.00     0.235 C 
HETATM   27  H   UNL     1     -39.868 -56.182  17.062  1.00  0.00     0.162 HD
HETATM   28  O   UNL     1     -37.874 -55.923  15.755  1.00  0.00    -0.272 OA
HETATM   29  C   UNL     1     -39.121 -54.483  14.240  1.00  0.00     0.227 C 
ENDBRANCH   4  22
TORSDOF 5
ENDMDL
MODEL 8
REMARK VINA RESULT:      -5.7      7.543     10.555
REMARK  5 active torsions:
REMARK  status: ('A' for Active; 'I' for Inactive)
REMARK       I    between atoms: C_2  and  N_3 
REMARK       I    between atoms: C_2  and  N_12 
REMARK    1  A    between atoms: N_3  and  C_4 
REMARK    2  A    between atoms: C_4  and  C_5 
REMARK    3  A    between atoms: C_5  and  C_6 
REMARK    4  A    between atoms: N_12  and  C_13 
REMARK    5  A    between atoms: C_16  and  N_20 
ROOT
HETATM    1  C   UNL     1     -42.197 -55.192  15.366  1.00  0.00     0.051 A 
HETATM    2  C   UNL     1     -41.001 -54.526  15.166  1.00  0.00     0.035 A 
HETATM    3  C   UNL     1     -39.861 -54.948  15.846  1.00  0.00     0.051 A 
HETATM    4  C   UNL     1     -39.912 -56.034  16.722  1.00  0.00     0.103 A 
HETATM    5  N   UNL     1     -41.073 -56.683  16.945  1.00  0.00    -0.350 N 
ATOM      6  HN  UNL     1     -41.126 -57.461  17.602  1.00  0.00     0.166 HD
HETATM    7  C   UNL     1     -42.170 -56.261  16.260  1.00  0.00     0.119 A 
ENDROOT
BRANCH   1   8
HETATM    8  N   UNL     1     -43.405 -54.849  14.726  1.00  0.00    -0.308 N 
HETATM    9  C   UNL     1     -44.567 -54.402  15.321  1.00  0.00     0.320 C 
HETATM   10  O   UNL     1     -44.784 -54.283  16.520  1.00  0.00    -0.247 OA
HETATM   11  N   UNL     1     -45.509 -54.085  14.362  1.00  0.00    -0.343 N 
HETATM   12  H   UNL     1     -45.122 -53.719  13.505  1.00  0.00     0.164 HD
HETATM   13  H   UNL     1     -43.470 -55.045  13.739  1.00  0.00     0.170 HD
BRANCH  11  14
HETATM   14  C   UNL     1     -46.784 -53.517  14.773  1.00  0.00     0.128 C 
BRANCH  14  15
HETATM   15  C   UNL     1     -46.795 -52.001  14.569  1.00  0.00     0.053 C 
BRANCH  15  16
HETATM   16  C   UNL     1     -46.677 -51.227  15.862  1.00  0.00    -0.082 A 
HETATM   17  C   UNL     1     -45.525 -50.641  16.213  1.00  0.00    -0.024 A 
HETATM   18  C   UNL     1     -45.312 -49.857  17.460  1.00  0.00     0.027 A 
HETATM   19  C   UNL     1     -46.510 -49.691  18.389  1.00  0.00     0.004 A 
HETATM   20  C   UNL     1     -47.843 -50.316  17.985  1.00  0.00     0.005 A 
HETATM   21  C   UNL     1     -47.918 -51.136  16.698  1.00  0.00     0.034 A 
ENDBRANCH  15  16
ENDBRANCH  14  15
ENDBRANCH  11  14
ENDBRANCH   1   8
BRANCH   4  22
HETATM   22  N   UNL     1     -38.774 -56.373  17.430  1.00  0.00    -0.357 N 
HETATM   23  C   UNL     1     -38.695 -57.676  18.084  1.00  0.00     0.144 C 
HETATM   24  C   UNL     1     -37.800 -57.484  19.322  1.00  0.00     0.142 C 
HETATM   25  N   UNL     1     -36.530 -56.829  19.027  1.00  0.00    -0.358 N 
HETATM   26  C   UNL     1     -36.437 -55.852  18.058  1.00  0.00     0.235 C 
HETATM   27  H   UNL     1     -35.867 -56.701  19.780  1.00  0.00     0.162 HD
HETATM   28  O   UNL     1     -35.505 -55.050  18.079  1.00  0.00    -0.272 OA
HETATM   29  C   UNL     1     -37.476 -55.889  16.924  1.00  0.00     0.227 C 
ENDBRANCH   4  22
TORSDOF 5
ENDMDL
MODEL 9
REMARK VINA RESULT:      -5.7      6.468     11.564
REMARK  5 active torsions:
REMARK  status: ('A' for Active; 'I' for Inactive)
REMARK       I    between atoms: C_2  and  N_3 
REMARK       I    between atoms: C_2  and  N_12 
REMARK    1  A    between atoms: N_3  and  C_4 
REMARK    2  A    between atoms: C_4  and  C_5 
REMARK    3  A    between atoms: C_5  and  C_6 
REMARK    4  A    between atoms: N_12  and  C_13 
REMARK    5  A    between atoms: C_16  and  N_20 
ROOT
HETATM    1  C   UNL     1     -39.872 -54.946  15.638  1.00  0.00     0.051 A 
HETATM    2  C   UNL     1     -38.513 -55.080  15.863  1.00  0.00     0.035 A 
HETATM    3  C   UNL     1     -38.059 -56.074  16.727  1.00  0.00     0.051 A 
HETATM    4  C   UNL     1     -38.955 -56.933  17.363  1.00  0.00     0.103 A 
HETATM    5  N   UNL     1     -40.285 -56.805  17.172  1.00  0.00    -0.350 N 
ATOM      6  HN  UNL     1     -40.949 -57.412  17.652  1.00  0.00     0.166 HD
HETATM    7  C   UNL     1     -40.705 -55.836  16.314  1.00  0.00     0.119 A 
ENDROOT
BRANCH   1   8
HETATM    8  N   UNL     1     -40.436 -53.979  14.781  1.00  0.00    -0.308 N 
HETATM    9  C   UNL     1     -40.966 -52.756  15.138  1.00  0.00     0.320 C 
HETATM   10  O   UNL     1     -41.105 -52.313  16.271  1.00  0.00    -0.247 OA
HETATM   11  N   UNL     1     -41.344 -52.047  14.014  1.00  0.00    -0.343 N 
HETATM   12  H   UNL     1     -40.761 -52.210  13.206  1.00  0.00     0.164 HD
HETATM   13  H   UNL     1     -40.562 -54.243  13.816  1.00  0.00     0.170 HD
BRANCH  11  14
HETATM   14  C   UNL     1     -41.855 -50.693  14.160  1.00  0.00     0.128 C 
BRANCH  14  15
HETATM   15  C   UNL     1     -43.062 -50.465  13.248  1.00  0.00     0.053 C 
BRANCH  15  16
HETATM   16  C   UNL     1     -44.379 -50.788  13.914  1.00  0.00    -0.082 A 
HETATM   17  C   UNL     1     -45.418 -51.245  13.203  1.00  0.00    -0.024 A 
HETATM   18  C   UNL     1     -46.751 -51.594  13.767  1.00  0.00     0.027 A 
HETATM   19  C   UNL     1     -46.928 -51.441  15.274  1.00  0.00     0.004 A 
HETATM   20  C   UNL     1     -45.742 -50.961  16.107  1.00  0.00     0.005 A 
HETATM   21  C   UNL     1     -44.439 -50.594  15.399  1.00  0.00     0.034 A 
ENDBRANCH  15  16
ENDBRANCH  14  15
ENDBRANCH  11  14
ENDBRANCH   1   8
BRANCH   4  22
HETATM   22  N   UNL     1     -38.465 -57.857  18.268  1.00  0.00    -0.357 N 
HETATM   23  C   UNL     1     -37.177 -57.618  18.912  1.00  0.00     0.144 C 
HETATM   24  C   UNL     1     -36.569 -59.006  19.190  1.00  0.00     0.142 C 
HETATM   25  N   UNL     1     -37.480 -59.913  19.878  1.00  0.00    -0.358 N 
HETATM   26  C   UNL     1     -38.838 -59.887  19.634  1.00  0.00     0.235 C 
HETATM   27  H   UNL     1     -37.144 -60.833  20.134  1.00  0.00     0.162 HD
HETATM   28  O   UNL     1     -39.530 -60.869  19.895  1.00  0.00    -0.272 OA
HETATM   29  C   UNL     1     -39.433 -58.561  19.129  1.00  0.00     0.227 C 
ENDBRANCH   4  22
TORSDOF 5
ENDMDL
