MODEL 1
REMARK VINA RESULT:      -6.2      0.000      0.000
REMARK  6 active torsions:
REMARK  status: ('A' for Active; 'I' for Inactive)
REMARK    1  A    between atoms: C_5  and  N_6 
REMARK       I    between atoms: N_6  and  C_7 
REMARK       I    between atoms: C_7  and  N_9 
REMARK    2  A    between atoms: N_9  and  C_10 
REMARK    3  A    between atoms: C_10  and  C_11 
REMARK    4  A    between atoms: N_14  and  C_15 
REMARK    5  A    between atoms: C_15  and  C_16 
REMARK    6  A    between atoms: C_16  and  N_17 
ROOT
HETATM    1  N   UNL     1     -41.272 -49.136  10.512  1.00  0.00    -0.289 N 
HETATM    2  C   UNL     1     -40.926 -49.783  11.666  1.00  0.00     0.322 C 
HETATM    3  O   UNL     1     -40.720 -49.283  12.764  1.00  0.00    -0.247 OA
HETATM    4  N   UNL     1     -40.864 -51.147  11.460  1.00  0.00    -0.342 N 
HETATM    5  H   UNL     1     -41.645 -49.656   9.738  1.00  0.00     0.172 HD
HETATM    6  H   UNL     1     -40.801 -51.495  10.517  1.00  0.00     0.164 HD
ENDROOT
BRANCH   4   7
HETATM    7  C   UNL     1     -40.570 -52.049  12.547  1.00  0.00     0.129 C 
BRANCH   7   8
HETATM    8  C   UNL     1     -41.362 -53.361  12.445  1.00  0.00     0.007 C 
HETATM    9  C   UNL     1     -42.844 -53.017  12.265  1.00  0.00     0.036 C 
HETATM   10  C   UNL     1     -43.448 -52.528  13.581  1.00  0.00     0.274 C 
HETATM   11  N   UNL     1     -43.323 -53.532  14.647  1.00  0.00     0.100 N 
HETATM   12  C   UNL     1     -41.918 -53.854  14.904  1.00  0.00     0.274 C 
HETATM   13  C   UNL     1     -41.165 -54.304  13.650  1.00  0.00     0.036 C 
BRANCH  11  14
HETATM   14  C   UNL     1     -44.158 -54.723  14.395  1.00  0.00     0.375 C 
BRANCH  14  15
HETATM   15  C   UNL     1     -45.619 -54.309  14.394  1.00  0.00    -0.047 C 
BRANCH  15  16
HETATM   16  N   UNL     1     -46.834 -53.967  14.393  1.00  0.00    -0.368 N 
ATOM     17  HN2 UNL     1     -45.865 -54.282  14.329  1.00  0.00     0.165 HD
ATOM     18  HN1 UNL     1     -47.815 -53.690  14.393  1.00  0.00     0.165 HD
ENDBRANCH  15  16
ENDBRANCH  14  15
ENDBRANCH  11  14
ENDBRANCH   7   8
ENDBRANCH   4   7
BRANCH   1  19
HETATM   19  C   UNL     1     -41.389 -47.780  10.465  1.00  0.00     0.152 A 
HETATM   20  S   UNL     1     -42.980 -47.225  10.197  1.00  0.00    -0.064 SA
HETATM   21  C   UNL     1     -42.407 -45.612  10.309  1.00  0.00     0.077 A 
HETATM   22  C   UNL     1     -41.038 -45.608  10.501  1.00  0.00     0.014 A 
HETATM   23  C   UNL     1     -40.145 -44.432  10.625  1.00  0.00     0.068 C 
HETATM   24  N   UNL     1     -40.467 -46.864  10.589  1.00  0.00    -0.340 N 
ATOM     25  HN  UNL     1     -39.474 -47.047  10.730  1.00  0.00     0.167 HD
ENDBRANCH   1  19
TORSDOF 6
ENDMDL
MODEL 2
REMARK VINA RESULT:      -5.9      4.347      5.878
REMARK  6 active torsions:
REMARK  status: ('A' for Active; 'I' for Inactive)
REMARK    1  A    between atoms: C_5  and  N_6 
REMARK       I    between atoms: N_6  and  C_7 
REMARK       I    between atoms: C_7  and  N_9 
REMARK    2  A    between atoms: N_9  and  C_10 
REMARK    3  A    between atoms: C_10  and  C_11 
REMARK    4  A    between atoms: N_14  and  C_15 
REMARK    5  A    between atoms: C_15  and  C_16 
REMARK    6  A    between atoms: C_16  and  N_17 
ROOT
HETATM    1  N   UNL     1     -42.092 -48.253   9.445  1.00  0.00    -0.289 N 
HETATM    2  C   UNL     1     -41.680 -48.737  10.655  1.00  0.00     0.322 C 
HETATM    3  O   UNL     1     -42.272 -48.660  11.724  1.00  0.00    -0.247 OA
HETATM    4  N   UNL     1     -40.473 -49.394  10.532  1.00  0.00    -0.342 N 
HETATM    5  H   UNL     1     -41.653 -48.574   8.600  1.00  0.00     0.172 HD
HETATM    6  H   UNL     1     -39.911 -49.232   9.712  1.00  0.00     0.164 HD
ENDROOT
BRANCH   4   7
HETATM    7  C   UNL     1     -39.860 -50.040  11.667  1.00  0.00     0.129 C 
BRANCH   7   8
HETATM    8  C   UNL     1     -38.573 -49.332  12.116  1.00  0.00     0.007 C 
HETATM    9  C   UNL     1     -37.674 -50.361  12.809  1.00  0.00     0.036 C 
HETATM   10  C   UNL     1     -38.209 -50.694  14.202  1.00  0.00     0.274 C 
HETATM   11  N   UNL     1     -38.299 -49.498  15.053  1.00  0.00     0.100 N 
HETATM   12  C   UNL     1     -39.198 -48.503  14.465  1.00  0.00     0.274 C 
HETATM   13  C   UNL     1     -38.816 -48.117  13.035  1.00  0.00     0.036 C 
BRANCH  11  14
HETATM   14  C   UNL     1     -36.972 -48.955  15.397  1.00  0.00     0.375 C 
BRANCH  14  15
HETATM   15  C   UNL     1     -37.111 -48.040  16.602  1.00  0.00    -0.047 C 
BRANCH  15  16
HETATM   16  N   UNL     1     -37.226 -47.278  17.601  1.00  0.00    -0.368 N 
ATOM     17  HN2 UNL     1     -37.074 -47.852  16.771  1.00  0.00     0.165 HD
ATOM     18  HN1 UNL     1     -37.321 -46.663  18.409  1.00  0.00     0.165 HD
ENDBRANCH  15  16
ENDBRANCH  14  15
ENDBRANCH  11  14
ENDBRANCH   7   8
ENDBRANCH   4   7
BRANCH   1  19
HETATM   19  C   UNL     1     -43.257 -47.558   9.315  1.00  0.00     0.152 A 
HETATM   20  S   UNL     1     -43.050 -45.876   9.121  1.00  0.00    -0.064 SA
HETATM   21  C   UNL     1     -44.752 -45.711   8.981  1.00  0.00     0.077 A 
HETATM   22  C   UNL     1     -45.361 -46.941   9.134  1.00  0.00     0.014 A 
HETATM   23  C   UNL     1     -46.813 -47.242   9.109  1.00  0.00     0.068 C 
HETATM   24  N   UNL     1     -44.488 -47.996   9.325  1.00  0.00    -0.340 N 
ATOM     25  HN  UNL     1     -44.763 -48.969   9.455  1.00  0.00     0.167 HD
ENDBRANCH   1  19
TORSDOF 6
ENDMDL
MODEL 3
REMARK VINA RESULT:      -5.7      2.963      4.509
REMARK  6 active torsions:
REMARK  status: ('A' for Active; 'I' for Inactive)
REMARK    1  A    between atoms: C_5  and  N_6 
REMARK       I    between atoms: N_6  and  C_7 
REMARK       I    between atoms: C_7  and  N_9 
REMARK    2  A    between atoms: N_9  and  C_10 
REMARK    3  A    between atoms: C_10  and  C_11 
REMARK    4  A    between atoms: N_14  and  C_15 
REMARK    5  A    between atoms: C_15  and  C_16 
REMARK    6  A    between atoms: C_16  and  N_17 
ROOT
HETATM    1  N   UNL     1     -42.051 -51.116  11.796  1.00  0.00    -0.289 N 
HETATM    2  C   UNL     1     -42.472 -52.129  12.613  1.00  0.00     0.322 C 
HETATM    3  O   UNL     1     -41.824 -52.697  13.482  1.00  0.00    -0.247 OA
HETATM    4  N   UNL     1     -43.794 -52.438  12.365  1.00  0.00    -0.342 N 
HETATM    5  H   UNL     1     -42.724 -50.568  11.290  1.00  0.00     0.172 HD
HETATM    6  H   UNL     1     -44.214 -52.129  11.503  1.00  0.00     0.164 HD
ENDROOT
BRANCH   4   7
HETATM    7  C   UNL     1     -44.480 -53.441  13.142  1.00  0.00     0.129 C 
BRANCH   7   8
HETATM    8  C   UNL     1     -45.950 -53.077  13.398  1.00  0.00     0.007 C 
HETATM    9  C   UNL     1     -46.034 -51.568  13.654  1.00  0.00     0.036 C 
HETATM   10  C   UNL     1     -45.505 -51.227  15.047  1.00  0.00     0.274 C 
HETATM   11  N   UNL     1     -46.251 -51.928  16.103  1.00  0.00     0.100 N 
HETATM   12  C   UNL     1     -46.152 -53.379  15.940  1.00  0.00     0.274 C 
HETATM   13  C   UNL     1     -46.595 -53.863  14.558  1.00  0.00     0.036 C 
BRANCH  11  14
HETATM   14  C   UNL     1     -47.641 -51.447  16.219  1.00  0.00     0.375 C 
BRANCH  14  15
HETATM   15  C   UNL     1     -47.802 -50.720  17.543  1.00  0.00    -0.047 C 
BRANCH  15  16
HETATM   16  N   UNL     1     -47.935 -50.117  18.643  1.00  0.00    -0.368 N 
ATOM     17  HN2 UNL     1     -47.890 -50.644  17.771  1.00  0.00     0.165 HD
ATOM     18  HN1 UNL     1     -48.040 -49.629  19.532  1.00  0.00     0.165 HD
ENDBRANCH  15  16
ENDBRANCH  14  15
ENDBRANCH  11  14
ENDBRANCH   7   8
ENDBRANCH   4   7
BRANCH   1  19
HETATM   19  C   UNL     1     -40.776 -50.641  11.851  1.00  0.00     0.152 A 
HETATM   20  S   UNL     1     -40.638 -48.971  11.531  1.00  0.00    -0.064 SA
HETATM   21  C   UNL     1     -38.949 -49.086  11.807  1.00  0.00     0.077 A 
HETATM   22  C   UNL     1     -38.602 -50.395  12.081  1.00  0.00     0.014 A 
HETATM   23  C   UNL     1     -37.248 -50.934  12.353  1.00  0.00     0.068 C 
HETATM   24  N   UNL     1     -39.665 -51.279  12.103  1.00  0.00    -0.340 N 
ATOM     25  HN  UNL     1     -39.592 -52.279  12.289  1.00  0.00     0.167 HD
ENDBRANCH   1  19
TORSDOF 6
ENDMDL
MODEL 4
REMARK VINA RESULT:      -5.7      2.752      8.488
REMARK  6 active torsions:
REMARK  status: ('A' for Active; 'I' for Inactive)
REMARK    1  A    between atoms: C_5  and  N_6 
REMARK       I    between atoms: N_6  and  C_7 
REMARK       I    between atoms: C_7  and  N_9 
REMARK    2  A    between atoms: N_9  and  C_10 
REMARK    3  A    between atoms: C_10  and  C_11 
REMARK    4  A    between atoms: N_14  and  C_15 
REMARK    5  A    between atoms: C_15  and  C_16 
REMARK    6  A    between atoms: C_16  and  N_17 
ROOT
HETATM    1  N   UNL     1     -40.972 -50.863  11.347  1.00  0.00    -0.289 N 
HETATM    2  C   UNL     1     -41.506 -49.608  11.443  1.00  0.00     0.322 C 
HETATM    3  O   UNL     1     -42.472 -49.263  12.109  1.00  0.00    -0.247 OA
HETATM    4  N   UNL     1     -40.773 -48.709  10.694  1.00  0.00    -0.342 N 
HETATM    5  H   UNL     1     -40.051 -50.989  10.968  1.00  0.00     0.172 HD
HETATM    6  H   UNL     1     -40.149 -49.058   9.985  1.00  0.00     0.164 HD
ENDROOT
BRANCH   4   7
HETATM    7  C   UNL     1     -41.110 -47.306  10.681  1.00  0.00     0.129 C 
BRANCH   7   8
HETATM    8  C   UNL     1     -39.930 -46.419  11.103  1.00  0.00     0.007 C 
HETATM    9  C   UNL     1     -39.899 -46.355  12.634  1.00  0.00     0.036 C 
HETATM   10  C   UNL     1     -41.017 -45.454  13.159  1.00  0.00     0.274 C 
HETATM   11  N   UNL     1     -40.912 -44.087  12.627  1.00  0.00     0.100 N 
HETATM   12  C   UNL     1     -40.998 -44.084  11.166  1.00  0.00     0.274 C 
HETATM   13  C   UNL     1     -39.968 -44.999  10.500  1.00  0.00     0.036 C 
BRANCH  11  14
HETATM   14  C   UNL     1     -39.727 -43.375  13.144  1.00  0.00     0.375 C 
BRANCH  14  15
HETATM   15  C   UNL     1     -39.882 -41.890  12.861  1.00  0.00    -0.047 C 
BRANCH  15  16
HETATM   16  N   UNL     1     -40.013 -40.657  12.627  1.00  0.00    -0.368 N 
ATOM     17  HN2 UNL     1     -39.969 -41.666  12.774  1.00  0.00     0.165 HD
ATOM     18  HN1 UNL     1     -40.117 -39.660  12.439  1.00  0.00     0.165 HD
ENDBRANCH  15  16
ENDBRANCH  14  15
ENDBRANCH  11  14
ENDBRANCH   7   8
ENDBRANCH   4   7
BRANCH   1  19
HETATM   19  C   UNL     1     -41.529 -51.924  11.995  1.00  0.00     0.152 A 
HETATM   20  S   UNL     1     -40.468 -52.723  13.066  1.00  0.00    -0.064 SA
HETATM   21  C   UNL     1     -41.747 -53.782  13.498  1.00  0.00     0.077 A 
HETATM   22  C   UNL     1     -42.880 -53.480  12.767  1.00  0.00     0.014 A 
HETATM   23  C   UNL     1     -44.195 -54.162  12.813  1.00  0.00     0.068 C 
HETATM   24  N   UNL     1     -42.739 -52.407  11.906  1.00  0.00    -0.340 N 
ATOM     25  HN  UNL     1     -43.470 -52.048  11.293  1.00  0.00     0.167 HD
ENDBRANCH   1  19
TORSDOF 6
ENDMDL
MODEL 5
REMARK VINA RESULT:      -5.6      2.191      3.321
REMARK  6 active torsions:
REMARK  status: ('A' for Active; 'I' for Inactive)
REMARK    1  A    between atoms: C_5  and  N_6 
REMARK       I    between atoms: N_6  and  C_7 
REMARK       I    between atoms: C_7  and  N_9 
REMARK    2  A    between atoms: N_9  and  C_10 
REMARK    3  A    between atoms: C_10  and  C_11 
REMARK    4  A    between atoms: N_14  and  C_15 
REMARK    5  A    between atoms: C_15  and  C_16 
REMARK    6  A    between atoms: C_16  and  N_17 
ROOT
HETATM    1  N   UNL     1     -41.937 -49.036  10.788  1.00  0.00    -0.289 N 
HETATM    2  C   UNL     1     -41.655 -49.694  11.954  1.00  0.00     0.322 C 
HETATM    3  O   UNL     1     -41.219 -49.211  12.990  1.00  0.00    -0.247 OA
HETATM    4  N   UNL     1     -41.966 -51.034  11.844  1.00  0.00    -0.342 N 
HETATM    5  H   UNL     1     -42.506 -49.477  10.089  1.00  0.00     0.172 HD
HETATM    6  H   UNL     1     -42.089 -51.433  10.928  1.00  0.00     0.164 HD
ENDROOT
BRANCH   4   7
HETATM    7  C   UNL     1     -41.807 -51.927  12.966  1.00  0.00     0.129 C 
BRANCH   7   8
HETATM    8  C   UNL     1     -40.554 -52.807  12.837  1.00  0.00     0.007 C 
HETATM    9  C   UNL     1     -40.948 -54.254  13.151  1.00  0.00     0.036 C 
HETATM   10  C   UNL     1     -41.163 -54.441  14.654  1.00  0.00     0.274 C 
HETATM   11  N   UNL     1     -39.957 -54.101  15.424  1.00  0.00     0.100 N 
HETATM   12  C   UNL     1     -39.571 -52.706  15.207  1.00  0.00     0.274 C 
HETATM   13  C   UNL     1     -39.380 -52.356  13.730  1.00  0.00     0.036 C 
BRANCH  11  14
HETATM   14  C   UNL     1     -38.856 -55.055  15.189  1.00  0.00     0.375 C 
BRANCH  14  15
HETATM   15  C   UNL     1     -38.620 -55.857  16.458  1.00  0.00    -0.047 C 
BRANCH  15  16
HETATM   16  N   UNL     1     -38.424 -56.524  17.511  1.00  0.00    -0.368 N 
ATOM     17  HN2 UNL     1     -38.571 -55.922  16.701  1.00  0.00     0.165 HD
ATOM     18  HN1 UNL     1     -38.265 -57.065  18.361  1.00  0.00     0.165 HD
ENDBRANCH  15  16
ENDBRANCH  14  15
ENDBRANCH  11  14
ENDBRANCH   7   8
ENDBRANCH   4   7
BRANCH   1  19
HETATM   19  C   UNL     1     -41.706 -47.700  10.652  1.00  0.00     0.152 A 
HETATM   20  S   UNL     1     -43.122 -46.750  10.580  1.00  0.00    -0.064 SA
HETATM   21  C   UNL     1     -42.140 -45.346  10.477  1.00  0.00     0.077 A 
HETATM   22  C   UNL     1     -40.805 -45.702  10.462  1.00  0.00     0.014 A 
HETATM   23  C   UNL     1     -39.631 -44.804  10.357  1.00  0.00     0.068 C 
HETATM   24  N   UNL     1     -40.571 -47.061  10.563  1.00  0.00    -0.340 N 
ATOM     25  HN  UNL     1     -39.650 -47.498  10.569  1.00  0.00     0.167 HD
ENDBRANCH   1  19
TORSDOF 6
ENDMDL
MODEL 6
REMARK VINA RESULT:      -5.3      3.817      7.091
REMARK  6 active torsions:
REMARK  status: ('A' for Active; 'I' for Inactive)
REMARK    1  A    between atoms: C_5  and  N_6 
REMARK       I    between atoms: N_6  and  C_7 
REMARK       I    between atoms: C_7  and  N_9 
REMARK    2  A    between atoms: N_9  and  C_10 
REMARK    3  A    between atoms: C_10  and  C_11 
REMARK    4  A    between atoms: N_14  and  C_15 
REMARK    5  A    between atoms: C_15  and  C_16 
REMARK    6  A    between atoms: C_16  and  N_17 
ROOT
HETATM    1  N   UNL     1     -42.843 -52.361  12.234  1.00  0.00    -0.289 N 
HETATM    2  C   UNL     1     -42.118 -51.209  12.361  1.00  0.00     0.322 C 
HETATM    3  O   UNL     1     -42.380 -50.242  13.064  1.00  0.00    -0.247 OA
HETATM    4  N   UNL     1     -40.971 -51.269  11.595  1.00  0.00    -0.342 N 
HETATM    5  H   UNL     1     -42.423 -53.175  11.822  1.00  0.00     0.172 HD
HETATM    6  H   UNL     1     -40.910 -51.955  10.861  1.00  0.00     0.164 HD
ENDROOT
BRANCH   4   7
HETATM    7  C   UNL     1     -40.014 -50.189  11.607  1.00  0.00     0.129 C 
BRANCH   7   8
HETATM    8  C   UNL     1     -38.647 -50.629  12.151  1.00  0.00     0.007 C 
HETATM    9  C   UNL     1     -38.870 -51.367  13.475  1.00  0.00     0.036 C 
HETATM   10  C   UNL     1     -39.215 -50.381  14.592  1.00  0.00     0.274 C 
HETATM   11  N   UNL     1     -38.156 -49.378  14.782  1.00  0.00     0.100 N 
HETATM   12  C   UNL     1     -37.944 -48.600  13.561  1.00  0.00     0.274 C 
HETATM   13  C   UNL     1     -37.647 -49.469  12.337  1.00  0.00     0.036 C 
BRANCH  11  14
HETATM   14  C   UNL     1     -36.917 -49.970  15.321  1.00  0.00     0.375 C 
BRANCH  14  15
HETATM   15  C   UNL     1     -36.129 -48.891  16.045  1.00  0.00    -0.047 C 
BRANCH  15  16
HETATM   16  N   UNL     1     -35.474 -47.995  16.644  1.00  0.00    -0.368 N 
ATOM     17  HN2 UNL     1     -36.067 -48.684  16.181  1.00  0.00     0.165 HD
ATOM     18  HN1 UNL     1     -34.944 -47.271  17.129  1.00  0.00     0.165 HD
ENDBRANCH  15  16
ENDBRANCH  14  15
ENDBRANCH  11  14
ENDBRANCH   7   8
ENDBRANCH   4   7
BRANCH   1  19
HETATM   19  C   UNL     1     -44.024 -52.535  12.892  1.00  0.00     0.152 A 
HETATM   20  S   UNL     1     -44.525 -54.162  13.009  1.00  0.00    -0.064 SA
HETATM   21  C   UNL     1     -45.894 -53.646  13.907  1.00  0.00     0.077 A 
HETATM   22  C   UNL     1     -45.894 -52.269  14.018  1.00  0.00     0.014 A 
HETATM   23  C   UNL     1     -46.904 -51.416  14.691  1.00  0.00     0.068 C 
HETATM   24  N   UNL     1     -44.811 -51.643  13.430  1.00  0.00    -0.340 N 
ATOM     25  HN  UNL     1     -44.652 -50.636  13.417  1.00  0.00     0.167 HD
ENDBRANCH   1  19
TORSDOF 6
ENDMDL
MODEL 7
REMARK VINA RESULT:      -5.3      3.731      4.485
REMARK  6 active torsions:
REMARK  status: ('A' for Active; 'I' for Inactive)
REMARK    1  A    between atoms: C_5  and  N_6 
REMARK       I    between atoms: N_6  and  C_7 
REMARK       I    between atoms: C_7  and  N_9 
REMARK    2  A    between atoms: N_9  and  C_10 
REMARK    3  A    between atoms: C_10  and  C_11 
REMARK    4  A    between atoms: N_14  and  C_15 
REMARK    5  A    between atoms: C_15  and  C_16 
REMARK    6  A    between atoms: C_16  and  N_17 
ROOT
HETATM    1  N   UNL     1     -40.240 -51.730  14.642  1.00  0.00    -0.289 N 
HETATM    2  C   UNL     1     -40.855 -52.786  14.027  1.00  0.00     0.322 C 
HETATM    3  O   UNL     1     -40.676 -53.184  12.884  1.00  0.00    -0.247 OA
HETATM    4  N   UNL     1     -41.723 -53.417  14.895  1.00  0.00    -0.342 N 
HETATM    5  H   UNL     1     -40.282 -51.638  15.641  1.00  0.00     0.172 HD
HETATM    6  H   UNL     1     -42.021 -52.931  15.725  1.00  0.00     0.164 HD
ENDROOT
BRANCH   4   7
HETATM    7  C   UNL     1     -42.450 -54.595  14.491  1.00  0.00     0.129 C 
BRANCH   7   8
HETATM    8  C   UNL     1     -43.967 -54.434  14.666  1.00  0.00     0.007 C 
HETATM    9  C   UNL     1     -44.621 -54.499  13.282  1.00  0.00     0.036 C 
HETATM   10  C   UNL     1     -44.376 -53.203  12.507  1.00  0.00     0.274 C 
HETATM   11  N   UNL     1     -44.901 -52.031  13.222  1.00  0.00     0.100 N 
HETATM   12  C   UNL     1     -44.262 -51.885  14.532  1.00  0.00     0.274 C 
HETATM   13  C   UNL     1     -44.377 -53.140  15.400  1.00  0.00     0.036 C 
BRANCH  11  14
HETATM   14  C   UNL     1     -46.375 -52.029  13.288  1.00  0.00     0.375 C 
BRANCH  14  15
HETATM   15  C   UNL     1     -46.929 -51.670  11.920  1.00  0.00    -0.047 C 
BRANCH  15  16
HETATM   16  N   UNL     1     -47.387 -51.372  10.783  1.00  0.00    -0.368 N 
ATOM     17  HN2 UNL     1     -47.088 -51.608  11.729  1.00  0.00     0.165 HD
ATOM     18  HN1 UNL     1     -47.757 -51.130   9.864  1.00  0.00     0.165 HD
ENDBRANCH  15  16
ENDBRANCH  14  15
ENDBRANCH  11  14
ENDBRANCH   7   8
ENDBRANCH   4   7
BRANCH   1  19
HETATM   19  C   UNL     1     -39.342 -50.947  13.982  1.00  0.00     0.152 A 
HETATM   20  S   UNL     1     -38.707 -49.671  14.919  1.00  0.00    -0.064 SA
HETATM   21  C   UNL     1     -37.725 -49.218  13.586  1.00  0.00     0.077 A 
HETATM   22  C   UNL     1     -37.981 -50.044  12.508  1.00  0.00     0.014 A 
HETATM   23  C   UNL     1     -37.371 -49.984  11.158  1.00  0.00     0.068 C 
HETATM   24  N   UNL     1     -38.913 -51.035  12.751  1.00  0.00    -0.340 N 
ATOM     25  HN  UNL     1     -39.221 -51.730  12.071  1.00  0.00     0.167 HD
ENDBRANCH   1  19
TORSDOF 6
ENDMDL
MODEL 8
REMARK VINA RESULT:      -5.2      2.617      8.264
REMARK  6 active torsions:
REMARK  status: ('A' for Active; 'I' for Inactive)
REMARK    1  A    between atoms: C_5  and  N_6 
REMARK       I    between atoms: N_6  and  C_7 
REMARK       I    between atoms: C_7  and  N_9 
REMARK    2  A    between atoms: N_9  and  C_10 
REMARK    3  A    between atoms: C_10  and  C_11 
REMARK    4  A    between atoms: N_14  and  C_15 
REMARK    5  A    between atoms: C_15  and  C_16 
REMARK    6  A    between atoms: C_16  and  N_17 
ROOT
HETATM    1  N   UNL     1     -41.997 -51.268  11.750  1.00  0.00    -0.289 N 
HETATM    2  C   UNL     1     -41.286 -50.100  11.805  1.00  0.00     0.322 C 
HETATM    3  O   UNL     1     -40.278 -49.877  12.461  1.00  0.00    -0.247 OA
HETATM    4  N   UNL     1     -41.838 -49.155  10.964  1.00  0.00    -0.342 N 
HETATM    5  H   UNL     1     -42.659 -51.418  11.010  1.00  0.00     0.172 HD
HETATM    6  H   UNL     1     -42.780 -49.286  10.634  1.00  0.00     0.164 HD
ENDROOT
BRANCH   4   7
HETATM    7  C   UNL     1     -41.230 -47.856  10.807  1.00  0.00     0.129 C 
BRANCH   7   8
HETATM    8  C   UNL     1     -41.849 -46.806  11.742  1.00  0.00     0.007 C 
HETATM    9  C   UNL     1     -42.015 -45.501  10.956  1.00  0.00     0.036 C 
HETATM   10  C   UNL     1     -40.664 -44.813  10.759  1.00  0.00     0.274 C 
HETATM   11  N   UNL     1     -40.012 -44.512  12.042  1.00  0.00     0.100 N 
HETATM   12  C   UNL     1     -39.772 -45.736  12.809  1.00  0.00     0.274 C 
HETATM   13  C   UNL     1     -41.039 -46.565  13.033  1.00  0.00     0.036 C 
BRANCH  11  14
HETATM   14  C   UNL     1     -40.732 -43.476  12.806  1.00  0.00     0.375 C 
BRANCH  14  15
HETATM   15  C   UNL     1     -40.787 -42.202  11.979  1.00  0.00    -0.047 C 
BRANCH  15  16
HETATM   16  N   UNL     1     -40.832 -41.146  11.291  1.00  0.00    -0.368 N 
ATOM     17  HN2 UNL     1     -40.810 -42.039  11.784  1.00  0.00     0.165 HD
ATOM     18  HN1 UNL     1     -40.868 -40.291  10.736  1.00  0.00     0.165 HD
ENDBRANCH  15  16
ENDBRANCH  14  15
ENDBRANCH  11  14
ENDBRANCH   7   8
ENDBRANCH   4   7
BRANCH   1  19
HETATM   19  C   UNL     1     -41.648 -52.349  12.502  1.00  0.00     0.152 A 
HETATM   20  S   UNL     1     -42.973 -53.205  13.153  1.00  0.00    -0.064 SA
HETATM   21  C   UNL     1     -41.873 -54.327  13.843  1.00  0.00     0.077 A 
HETATM   22  C   UNL     1     -40.573 -53.948  13.565  1.00  0.00     0.014 A 
HETATM   23  C   UNL     1     -39.324 -54.621  13.992  1.00  0.00     0.068 C 
HETATM   24  N   UNL     1     -40.460 -52.807  12.792  1.00  0.00    -0.340 N 
ATOM     25  HN  UNL     1     -39.580 -52.387  12.492  1.00  0.00     0.167 HD
ENDBRANCH   1  19
TORSDOF 6
ENDMDL
MODEL 9
REMARK VINA RESULT:      -5.2      2.679      7.231
REMARK  6 active torsions:
REMARK  status: ('A' for Active; 'I' for Inactive)
REMARK    1  A    between atoms: C_5  and  N_6 
REMARK       I    between atoms: N_6  and  C_7 
REMARK       I    between atoms: C_7  and  N_9 
REMARK    2  A    between atoms: N_9  and  C_10 
REMARK    3  A    between atoms: C_10  and  C_11 
REMARK    4  A    between atoms: N_14  and  C_15 
REMARK    5  A    between atoms: C_15  and  C_16 
REMARK    6  A    between atoms: C_16  and  N_17 
ROOT
HETATM    1  N   UNL     1     -43.479 -52.456  12.373  1.00  0.00    -0.289 N 
HETATM    2  C   UNL     1     -42.414 -51.710  12.797  1.00  0.00     0.322 C 
HETATM    3  O   UNL     1     -42.254 -51.210  13.902  1.00  0.00    -0.247 OA
HETATM    4  N   UNL     1     -41.465 -51.604  11.800  1.00  0.00    -0.342 N 
HETATM    5  H   UNL     1     -43.402 -53.010  11.539  1.00  0.00     0.172 HD
HETATM    6  H   UNL     1     -41.729 -51.814  10.851  1.00  0.00     0.164 HD
ENDROOT
BRANCH   4   7
HETATM    7  C   UNL     1     -40.223 -50.908  12.030  1.00  0.00     0.129 C 
BRANCH   7   8
HETATM    8  C   UNL     1     -40.089 -49.652  11.156  1.00  0.00     0.007 C 
HETATM    9  C   UNL     1     -39.003 -48.756  11.763  1.00  0.00     0.036 C 
HETATM   10  C   UNL     1     -39.519 -48.062  13.023  1.00  0.00     0.274 C 
HETATM   11  N   UNL     1     -40.708 -47.242  12.748  1.00  0.00     0.100 N 
HETATM   12  C   UNL     1     -41.801 -48.061  12.222  1.00  0.00     0.274 C 
HETATM   13  C   UNL     1     -41.406 -48.868  10.983  1.00  0.00     0.036 C 
BRANCH  11  14
HETATM   14  C   UNL     1     -40.397 -46.071  11.905  1.00  0.00     0.375 C 
BRANCH  14  15
HETATM   15  C   UNL     1     -41.658 -45.242  11.728  1.00  0.00    -0.047 C 
BRANCH  15  16
HETATM   16  N   UNL     1     -42.704 -44.553  11.579  1.00  0.00    -0.368 N 
ATOM     17  HN2 UNL     1     -41.875 -45.115  11.773  1.00  0.00     0.165 HD
ATOM     18  HN1 UNL     1     -43.549 -43.996  11.458  1.00  0.00     0.165 HD
ENDBRANCH  15  16
ENDBRANCH  14  15
ENDBRANCH  11  14
ENDBRANCH   7   8
ENDBRANCH   4   7
BRANCH   1  19
HETATM   19  C   UNL     1     -44.549 -52.694  13.182  1.00  0.00     0.152 A 
HETATM   20  S   UNL     1     -44.954 -54.344  13.336  1.00  0.00    -0.064 SA
HETATM   21  C   UNL     1     -46.209 -53.905  14.421  1.00  0.00     0.077 A 
HETATM   22  C   UNL     1     -46.258 -52.531  14.557  1.00  0.00     0.014 A 
HETATM   23  C   UNL     1     -47.204 -51.736  15.376  1.00  0.00     0.068 C 
HETATM   24  N   UNL     1     -45.295 -51.847  13.838  1.00  0.00    -0.340 N 
ATOM     25  HN  UNL     1     -45.186 -50.833  13.822  1.00  0.00     0.167 HD
ENDBRANCH   1  19
TORSDOF 6
ENDMDL
