MODEL 1
REMARK VINA RESULT:      -6.9      0.000      0.000
REMARK  5 active torsions:
REMARK  status: ('A' for Active; 'I' for Inactive)
REMARK    1  A    between atoms: C_8  and  N_9 
REMARK       I    between atoms: N_9  and  C_10 
REMARK       I    between atoms: C_10  and  N_12 
REMARK    2  A    between atoms: N_12  and  C_13 
REMARK    3  A    between atoms: C_13  and  C_18 
REMARK       I    between atoms: C_18  and  N_20 
REMARK    4  A    between atoms: N_20  and  C_21 
REMARK    5  A    between atoms: C_21  and  C_22 
ROOT
HETATM    1  N   UNL     1     -40.351 -49.817  10.762  1.00  0.00    -0.307 N 
HETATM    2  C   UNL     1     -41.296 -48.826  10.941  1.00  0.00     0.321 C 
HETATM    3  O   UNL     1     -41.711 -48.424  12.023  1.00  0.00    -0.247 OA
HETATM    4  N   UNL     1     -41.813 -48.339   9.754  1.00  0.00    -0.325 N 
HETATM    5  H   UNL     1     -39.995 -49.952   9.830  1.00  0.00     0.170 HD
HETATM    6  H   UNL     1     -41.105 -48.153   9.058  1.00  0.00     0.165 HD
ENDROOT
BRANCH   4   7
HETATM    7  C   UNL     1     -42.856 -47.284   9.840  1.00  0.00     0.115 C 
HETATM    8  C   UNL     1     -44.139 -47.793  10.532  1.00  0.00     0.041 C 
HETATM    9  C   UNL     1     -45.333 -47.210   9.777  1.00  0.00     0.003 C 
HETATM   10  C   UNL     1     -44.765 -46.370   8.648  1.00  0.00     0.003 C 
HETATM   11  C   UNL     1     -43.353 -46.900   8.435  1.00  0.00     0.041 C 
BRANCH   7  12
HETATM   12  C   UNL     1     -42.185 -46.019  10.482  1.00  0.00     0.246 C 
HETATM   13  O   UNL     1     -41.364 -45.351   9.847  1.00  0.00    -0.271 OA
HETATM   14  N   UNL     1     -42.684 -45.601  11.699  1.00  0.00    -0.359 N 
HETATM   15  H   UNL     1     -43.162 -46.272  12.282  1.00  0.00     0.162 HD
BRANCH  14  16
HETATM   16  C   UNL     1     -42.178 -44.420  12.358  1.00  0.00     0.127 C 
BRANCH  16  17
HETATM   17  C   UNL     1     -41.037 -44.802  13.253  1.00  0.00     0.003 A 
HETATM   18  C   UNL     1     -40.251 -43.747  13.997  1.00  0.00     0.007 A 
HETATM   19  C   UNL     1     -39.618 -44.480  12.851  1.00  0.00     0.007 A 
ENDBRANCH  16  17
ENDBRANCH  14  16
ENDBRANCH   7  12
ENDBRANCH   4   7
BRANCH   1  20
HETATM   20  C   UNL     1     -39.773 -50.579  11.819  1.00  0.00     0.057 A 
HETATM   21  C   UNL     1     -38.400 -50.500  12.117  1.00  0.00    -0.033 A 
HETATM   22  C   UNL     1     -37.420 -49.650  11.363  1.00  0.00     0.050 C 
HETATM   23  C   UNL     1     -37.895 -51.284  13.174  1.00  0.00     0.026 A 
HETATM   24  C   UNL     1     -38.748 -52.100  13.894  1.00  0.00     0.088 A 
HETATM   25  N   UNL     1     -40.057 -52.214  13.626  1.00  0.00    -0.373 N 
HETATM   26  C   UNL     1     -40.530 -51.459  12.603  1.00  0.00     0.117 A 
ATOM     27  HN  UNL     1     -40.663 -52.835  14.162  1.00  0.00     0.164 HD
ENDBRANCH   1  20
TORSDOF 5
ENDMDL
MODEL 2
REMARK VINA RESULT:      -6.6      1.658      4.273
REMARK  5 active torsions:
REMARK  status: ('A' for Active; 'I' for Inactive)
REMARK    1  A    between atoms: C_8  and  N_9 
REMARK       I    between atoms: N_9  and  C_10 
REMARK       I    between atoms: C_10  and  N_12 
REMARK    2  A    between atoms: N_12  and  C_13 
REMARK    3  A    between atoms: C_13  and  C_18 
REMARK       I    between atoms: C_18  and  N_20 
REMARK    4  A    between atoms: N_20  and  C_21 
REMARK    5  A    between atoms: C_21  and  C_22 
ROOT
HETATM    1  N   UNL     1     -40.703 -50.753  11.318  1.00  0.00    -0.307 N 
HETATM    2  C   UNL     1     -41.034 -49.458  11.666  1.00  0.00     0.321 C 
HETATM    3  O   UNL     1     -41.539 -49.113  12.730  1.00  0.00    -0.247 OA
HETATM    4  N   UNL     1     -40.803 -48.541  10.656  1.00  0.00    -0.325 N 
HETATM    5  H   UNL     1     -40.165 -50.881  10.476  1.00  0.00     0.170 HD
HETATM    6  H   UNL     1     -39.906 -48.662  10.207  1.00  0.00     0.165 HD
ENDROOT
BRANCH   4   7
HETATM    7  C   UNL     1     -41.149 -47.121  10.924  1.00  0.00     0.115 C 
HETATM    8  C   UNL     1     -39.913 -46.199  10.844  1.00  0.00     0.041 C 
HETATM    9  C   UNL     1     -40.026 -45.176  11.973  1.00  0.00     0.003 C 
HETATM   10  C   UNL     1     -41.312 -45.490  12.717  1.00  0.00     0.003 C 
HETATM   11  C   UNL     1     -41.616 -46.944  12.380  1.00  0.00     0.041 C 
BRANCH   7  12
HETATM   12  C   UNL     1     -42.346 -46.748   9.980  1.00  0.00     0.246 C 
HETATM   13  O   UNL     1     -42.416 -45.629   9.465  1.00  0.00    -0.271 OA
HETATM   14  N   UNL     1     -43.200 -47.772   9.625  1.00  0.00    -0.359 N 
HETATM   15  H   UNL     1     -43.261 -48.581  10.226  1.00  0.00     0.162 HD
BRANCH  14  16
HETATM   16  C   UNL     1     -44.306 -47.556   8.722  1.00  0.00     0.127 C 
BRANCH  16  17
HETATM   17  C   UNL     1     -45.596 -47.738   9.464  1.00  0.00     0.003 A 
HETATM   18  C   UNL     1     -46.756 -48.471   8.831  1.00  0.00     0.007 A 
HETATM   19  C   UNL     1     -46.831 -46.985   9.033  1.00  0.00     0.007 A 
ENDBRANCH  16  17
ENDBRANCH  14  16
ENDBRANCH   7  12
ENDBRANCH   4   7
BRANCH   1  20
HETATM   20  C   UNL     1     -40.976 -51.897  12.121  1.00  0.00     0.057 A 
HETATM   21  C   UNL     1     -40.093 -52.312  13.136  1.00  0.00    -0.033 A 
HETATM   22  C   UNL     1     -38.795 -51.630  13.455  1.00  0.00     0.050 C 
HETATM   23  C   UNL     1     -40.424 -53.456  13.891  1.00  0.00     0.026 A 
HETATM   24  C   UNL     1     -41.599 -54.136  13.629  1.00  0.00     0.088 A 
HETATM   25  N   UNL     1     -42.454 -53.781  12.660  1.00  0.00    -0.373 N 
HETATM   26  C   UNL     1     -42.123 -52.682  11.936  1.00  0.00     0.117 A 
ATOM     27  HN  UNL     1     -43.308 -54.308  12.476  1.00  0.00     0.164 HD
ENDBRANCH   1  20
TORSDOF 5
ENDMDL
MODEL 3
REMARK VINA RESULT:      -6.5      3.015      7.066
REMARK  5 active torsions:
REMARK  status: ('A' for Active; 'I' for Inactive)
REMARK    1  A    between atoms: C_8  and  N_9 
REMARK       I    between atoms: N_9  and  C_10 
REMARK       I    between atoms: C_10  and  N_12 
REMARK    2  A    between atoms: N_12  and  C_13 
REMARK    3  A    between atoms: C_13  and  C_18 
REMARK       I    between atoms: C_18  and  N_20 
REMARK    4  A    between atoms: N_20  and  C_21 
REMARK    5  A    between atoms: C_21  and  C_22 
ROOT
HETATM    1  N   UNL     1     -41.583 -49.356  10.725  1.00  0.00    -0.307 N 
HETATM    2  C   UNL     1     -41.734 -50.138  11.853  1.00  0.00     0.321 C 
HETATM    3  O   UNL     1     -42.235 -49.772  12.913  1.00  0.00    -0.247 OA
HETATM    4  N   UNL     1     -41.199 -51.406  11.720  1.00  0.00    -0.325 N 
HETATM    5  H   UNL     1     -41.289 -49.818   9.880  1.00  0.00     0.170 HD
HETATM    6  H   UNL     1     -41.436 -51.847  10.842  1.00  0.00     0.165 HD
ENDROOT
BRANCH   4   7
HETATM    7  C   UNL     1     -41.291 -52.318  12.889  1.00  0.00     0.115 C 
HETATM    8  C   UNL     1     -40.496 -51.788  14.102  1.00  0.00     0.041 C 
HETATM    9  C   UNL     1     -39.805 -52.982  14.760  1.00  0.00     0.003 C 
HETATM   10  C   UNL     1     -40.183 -54.205  13.944  1.00  0.00     0.003 C 
HETATM   11  C   UNL     1     -40.599 -53.659  12.584  1.00  0.00     0.041 C 
BRANCH   7  12
HETATM   12  C   UNL     1     -42.814 -52.602  13.139  1.00  0.00     0.246 C 
HETATM   13  O   UNL     1     -43.506 -53.139  12.268  1.00  0.00    -0.271 OA
HETATM   14  N   UNL     1     -43.285 -52.387  14.418  1.00  0.00    -0.359 N 
HETATM   15  H   UNL     1     -42.784 -51.747  15.017  1.00  0.00     0.162 HD
BRANCH  14  16
HETATM   16  C   UNL     1     -44.657 -52.662  14.776  1.00  0.00     0.127 C 
BRANCH  16  17
HETATM   17  C   UNL     1     -45.493 -51.446  14.511  1.00  0.00     0.003 A 
HETATM   18  C   UNL     1     -46.915 -51.360  15.014  1.00  0.00     0.007 A 
HETATM   19  C   UNL     1     -46.651 -51.518  13.545  1.00  0.00     0.007 A 
ENDBRANCH  16  17
ENDBRANCH  14  16
ENDBRANCH   7  12
ENDBRANCH   4   7
BRANCH   1  20
HETATM   20  C   UNL     1     -41.917 -47.973  10.653  1.00  0.00     0.057 A 
HETATM   21  C   UNL     1     -40.999 -46.973  11.027  1.00  0.00    -0.033 A 
HETATM   22  C   UNL     1     -39.620 -47.247  11.551  1.00  0.00     0.050 C 
HETATM   23  C   UNL     1     -41.398 -45.624  10.934  1.00  0.00     0.026 A 
HETATM   24  C   UNL     1     -42.665 -45.311  10.475  1.00  0.00     0.088 A 
HETATM   25  N   UNL     1     -43.570 -46.237  10.127  1.00  0.00    -0.373 N 
HETATM   26  C   UNL     1     -43.177 -47.532  10.227  1.00  0.00     0.117 A 
ATOM     27  HN  UNL     1     -44.504 -45.982   9.806  1.00  0.00     0.164 HD
ENDBRANCH   1  20
TORSDOF 5
ENDMDL
MODEL 4
REMARK VINA RESULT:      -6.5      3.839      7.014
REMARK  5 active torsions:
REMARK  status: ('A' for Active; 'I' for Inactive)
REMARK    1  A    between atoms: C_8  and  N_9 
REMARK       I    between atoms: N_9  and  C_10 
REMARK       I    between atoms: C_10  and  N_12 
REMARK    2  A    between atoms: N_12  and  C_13 
REMARK    3  A    between atoms: C_13  and  C_18 
REMARK       I    between atoms: C_18  and  N_20 
REMARK    4  A    between atoms: N_20  and  C_21 
REMARK    5  A    between atoms: C_21  and  C_22 
ROOT
HETATM    1  N   UNL     1     -41.267 -50.013  11.153  1.00  0.00    -0.307 N 
HETATM    2  C   UNL     1     -41.972 -50.588  12.191  1.00  0.00     0.321 C 
HETATM    3  O   UNL     1     -42.592 -49.977  13.057  1.00  0.00    -0.247 OA
HETATM    4  N   UNL     1     -41.874 -51.967  12.226  1.00  0.00    -0.325 N 
HETATM    5  H   UNL     1     -40.924 -50.627  10.432  1.00  0.00     0.170 HD
HETATM    6  H   UNL     1     -41.994 -52.397  11.319  1.00  0.00     0.165 HD
ENDROOT
BRANCH   4   7
HETATM    7  C   UNL     1     -42.580 -52.680  13.322  1.00  0.00     0.115 C 
HETATM    8  C   UNL     1     -42.090 -52.230  14.716  1.00  0.00     0.041 C 
HETATM    9  C   UNL     1     -42.005 -53.474  15.599  1.00  0.00     0.003 C 
HETATM   10  C   UNL     1     -42.434 -54.648  14.738  1.00  0.00     0.003 C 
HETATM   11  C   UNL     1     -42.232 -54.180  13.303  1.00  0.00     0.041 C 
BRANCH   7  12
HETATM   12  C   UNL     1     -44.120 -52.535  13.055  1.00  0.00     0.246 C 
HETATM   13  O   UNL     1     -44.684 -53.247  12.220  1.00  0.00    -0.271 OA
HETATM   14  N   UNL     1     -44.823 -51.711  13.910  1.00  0.00    -0.359 N 
HETATM   15  H   UNL     1     -44.324 -50.987  14.404  1.00  0.00     0.162 HD
BRANCH  14  16
HETATM   16  C   UNL     1     -46.252 -51.541  13.791  1.00  0.00     0.127 C 
BRANCH  16  17
HETATM   17  C   UNL     1     -46.930 -52.200  14.955  1.00  0.00     0.003 A 
HETATM   18  C   UNL     1     -47.464 -51.378  16.105  1.00  0.00     0.007 A 
HETATM   19  C   UNL     1     -46.251 -52.240  16.303  1.00  0.00     0.007 A 
ENDBRANCH  16  17
ENDBRANCH  14  16
ENDBRANCH   7  12
ENDBRANCH   4   7
BRANCH   1  20
HETATM   20  C   UNL     1     -41.089 -48.610  10.980  1.00  0.00     0.057 A 
HETATM   21  C   UNL     1     -40.032 -47.920  11.601  1.00  0.00    -0.033 A 
HETATM   22  C   UNL     1     -39.021 -48.561  12.506  1.00  0.00     0.050 C 
HETATM   23  C   UNL     1     -39.918 -46.531  11.389  1.00  0.00     0.026 A 
HETATM   24  C   UNL     1     -40.832 -45.881  10.579  1.00  0.00     0.088 A 
HETATM   25  N   UNL     1     -41.861 -46.503   9.986  1.00  0.00    -0.373 N 
HETATM   26  C   UNL     1     -41.964 -47.838  10.202  1.00  0.00     0.117 A 
ATOM     27  HN  UNL     1     -42.531 -45.999   9.404  1.00  0.00     0.164 HD
ENDBRANCH   1  20
TORSDOF 5
ENDMDL
MODEL 5
REMARK VINA RESULT:      -6.4      3.221      5.540
REMARK  5 active torsions:
REMARK  status: ('A' for Active; 'I' for Inactive)
REMARK    1  A    between atoms: C_8  and  N_9 
REMARK       I    between atoms: N_9  and  C_10 
REMARK       I    between atoms: C_10  and  N_12 
REMARK    2  A    between atoms: N_12  and  C_13 
REMARK    3  A    between atoms: C_13  and  C_18 
REMARK       I    between atoms: C_18  and  N_20 
REMARK    4  A    between atoms: N_20  and  C_21 
REMARK    5  A    between atoms: C_21  and  C_22 
ROOT
HETATM    1  N   UNL     1     -42.918 -52.144  12.188  1.00  0.00    -0.307 N 
HETATM    2  C   UNL     1     -42.701 -50.829  12.550  1.00  0.00     0.321 C 
HETATM    3  O   UNL     1     -43.190 -50.268  13.526  1.00  0.00    -0.247 OA
HETATM    4  N   UNL     1     -41.904 -50.137  11.656  1.00  0.00    -0.325 N 
HETATM    5  H   UNL     1     -42.345 -52.519  11.450  1.00  0.00     0.170 HD
HETATM    6  H   UNL     1     -41.086 -50.656  11.368  1.00  0.00     0.165 HD
ENDROOT
BRANCH   4   7
HETATM    7  C   UNL     1     -41.629 -48.705  11.945  1.00  0.00     0.115 C 
HETATM    8  C   UNL     1     -40.192 -48.300  11.552  1.00  0.00     0.041 C 
HETATM    9  C   UNL     1     -39.661 -47.367  12.640  1.00  0.00     0.003 C 
HETATM   10  C   UNL     1     -40.769 -47.224  13.668  1.00  0.00     0.003 C 
HETATM   11  C   UNL     1     -41.658 -48.444  13.462  1.00  0.00     0.041 C 
BRANCH   7  12
HETATM   12  C   UNL     1     -42.782 -47.869  11.286  1.00  0.00     0.246 C 
HETATM   13  O   UNL     1     -43.333 -46.956  11.908  1.00  0.00    -0.271 OA
HETATM   14  N   UNL     1     -43.018 -48.086   9.944  1.00  0.00    -0.359 N 
HETATM   15  H   UNL     1     -42.736 -48.967   9.539  1.00  0.00     0.162 HD
BRANCH  14  16
HETATM   16  C   UNL     1     -44.020 -47.338   9.221  1.00  0.00     0.127 C 
BRANCH  16  17
HETATM   17  C   UNL     1     -45.379 -47.880   9.551  1.00  0.00     0.003 A 
HETATM   18  C   UNL     1     -46.285 -48.409   8.464  1.00  0.00     0.007 A 
HETATM   19  C   UNL     1     -46.617 -47.115   9.150  1.00  0.00     0.007 A 
ENDBRANCH  16  17
ENDBRANCH  14  16
ENDBRANCH   7  12
ENDBRANCH   4   7
BRANCH   1  20
HETATM   20  C   UNL     1     -43.813 -53.026  12.859  1.00  0.00     0.057 A 
HETATM   21  C   UNL     1     -43.344 -54.055  13.697  1.00  0.00    -0.033 A 
HETATM   22  C   UNL     1     -41.892 -54.342  13.948  1.00  0.00     0.050 C 
HETATM   23  C   UNL     1     -44.286 -54.893  14.326  1.00  0.00     0.026 A 
HETATM   24  C   UNL     1     -45.638 -54.688  14.118  1.00  0.00     0.088 A 
HETATM   25  N   UNL     1     -46.120 -53.730  13.313  1.00  0.00    -0.373 N 
HETATM   26  C   UNL     1     -45.204 -52.933  12.708  1.00  0.00     0.117 A 
ATOM     27  HN  UNL     1     -47.122 -53.607  13.163  1.00  0.00     0.164 HD
ENDBRANCH   1  20
TORSDOF 5
ENDMDL
MODEL 6
REMARK VINA RESULT:      -6.2      2.166      7.065
REMARK  5 active torsions:
REMARK  status: ('A' for Active; 'I' for Inactive)
REMARK    1  A    between atoms: C_8  and  N_9 
REMARK       I    between atoms: N_9  and  C_10 
REMARK       I    between atoms: C_10  and  N_12 
REMARK    2  A    between atoms: N_12  and  C_13 
REMARK    3  A    between atoms: C_13  and  C_18 
REMARK       I    between atoms: C_18  and  N_20 
REMARK    4  A    between atoms: N_20  and  C_21 
REMARK    5  A    between atoms: C_21  and  C_22 
ROOT
HETATM    1  N   UNL     1     -41.603 -48.397   9.682  1.00  0.00    -0.307 N 
HETATM    2  C   UNL     1     -41.254 -48.880  10.928  1.00  0.00     0.321 C 
HETATM    3  O   UNL     1     -41.838 -48.632  11.979  1.00  0.00    -0.247 OA
HETATM    4  N   UNL     1     -40.105 -49.650  10.916  1.00  0.00    -0.325 N 
HETATM    5  H   UNL     1     -41.129 -48.790   8.885  1.00  0.00     0.170 HD
HETATM    6  H   UNL     1     -40.082 -50.320  10.161  1.00  0.00     0.165 HD
ENDROOT
BRANCH   4   7
HETATM    7  C   UNL     1     -39.631 -50.198  12.214  1.00  0.00     0.115 C 
HETATM    8  C   UNL     1     -39.520 -49.105  13.299  1.00  0.00     0.041 C 
HETATM    9  C   UNL     1     -38.250 -49.379  14.103  1.00  0.00     0.003 C 
HETATM   10  C   UNL     1     -37.613 -50.617  13.499  1.00  0.00     0.003 C 
HETATM   11  C   UNL     1     -38.183 -50.706  12.090  1.00  0.00     0.041 C 
BRANCH   7  12
HETATM   12  C   UNL     1     -40.548 -51.422  12.564  1.00  0.00     0.246 C 
HETATM   13  O   UNL     1     -40.316 -52.539  12.092  1.00  0.00    -0.271 OA
HETATM   14  N   UNL     1     -41.499 -51.226  13.545  1.00  0.00    -0.359 N 
HETATM   15  H   UNL     1     -41.816 -50.285  13.730  1.00  0.00     0.162 HD
BRANCH  14  16
HETATM   16  C   UNL     1     -42.365 -52.295  13.984  1.00  0.00     0.127 C 
BRANCH  16  17
HETATM   17  C   UNL     1     -43.659 -52.228  13.229  1.00  0.00     0.003 A 
HETATM   18  C   UNL     1     -44.859 -53.027  13.679  1.00  0.00     0.007 A 
HETATM   19  C   UNL     1     -44.130 -53.416  12.426  1.00  0.00     0.007 A 
ENDBRANCH  16  17
ENDBRANCH  14  16
ENDBRANCH   7  12
ENDBRANCH   4   7
BRANCH   1  20
HETATM   20  C   UNL     1     -42.657 -47.468   9.446  1.00  0.00     0.057 A 
HETATM   21  C   UNL     1     -42.537 -46.112   9.804  1.00  0.00    -0.033 A 
HETATM   22  C   UNL     1     -41.334 -45.520  10.476  1.00  0.00     0.050 C 
HETATM   23  C   UNL     1     -43.621 -45.249   9.544  1.00  0.00     0.026 A 
HETATM   24  C   UNL     1     -44.765 -45.742   8.942  1.00  0.00     0.088 A 
HETATM   25  N   UNL     1     -44.921 -47.030   8.605  1.00  0.00    -0.373 N 
HETATM   26  C   UNL     1     -43.874 -47.852   8.865  1.00  0.00     0.117 A 
ATOM     27  HN  UNL     1     -45.780 -47.373   8.175  1.00  0.00     0.164 HD
ENDBRANCH   1  20
TORSDOF 5
ENDMDL
MODEL 7
REMARK VINA RESULT:      -6.1      3.288      5.801
REMARK  5 active torsions:
REMARK  status: ('A' for Active; 'I' for Inactive)
REMARK    1  A    between atoms: C_8  and  N_9 
REMARK       I    between atoms: N_9  and  C_10 
REMARK       I    between atoms: C_10  and  N_12 
REMARK    2  A    between atoms: N_12  and  C_13 
REMARK    3  A    between atoms: C_13  and  C_18 
REMARK       I    between atoms: C_18  and  N_20 
REMARK    4  A    between atoms: N_20  and  C_21 
REMARK    5  A    between atoms: C_21  and  C_22 
ROOT
HETATM    1  N   UNL     1     -43.080 -52.685  12.170  1.00  0.00    -0.307 N 
HETATM    2  C   UNL     1     -42.385 -51.559  12.566  1.00  0.00     0.321 C 
HETATM    3  O   UNL     1     -42.503 -50.992  13.649  1.00  0.00    -0.247 OA
HETATM    4  N   UNL     1     -41.551 -51.054  11.586  1.00  0.00    -0.325 N 
HETATM    5  H   UNL     1     -42.786 -53.132  11.317  1.00  0.00     0.170 HD
HETATM    6  H   UNL     1     -41.008 -51.767  11.119  1.00  0.00     0.165 HD
ENDROOT
BRANCH   4   7
HETATM    7  C   UNL     1     -40.775 -49.828  11.907  1.00  0.00     0.115 C 
HETATM    8  C   UNL     1     -39.542 -49.667  10.991  1.00  0.00     0.041 C 
HETATM    9  C   UNL     1     -38.389 -49.159  11.855  1.00  0.00     0.003 C 
HETATM   10  C   UNL     1     -38.930 -49.025  13.267  1.00  0.00     0.003 C 
HETATM   11  C   UNL     1     -40.150 -49.936  13.309  1.00  0.00     0.041 C 
BRANCH   7  12
HETATM   12  C   UNL     1     -41.786 -48.627  11.915  1.00  0.00     0.246 C 
HETATM   13  O   UNL     1     -41.725 -47.760  12.791  1.00  0.00    -0.271 OA
HETATM   14  N   UNL     1     -42.610 -48.501  10.816  1.00  0.00    -0.359 N 
HETATM   15  H   UNL     1     -42.801 -49.320  10.258  1.00  0.00     0.162 HD
BRANCH  14  16
HETATM   16  C   UNL     1     -43.544 -47.406  10.692  1.00  0.00     0.127 C 
BRANCH  16  17
HETATM   17  C   UNL     1     -44.173 -47.441   9.332  1.00  0.00     0.003 A 
HETATM   18  C   UNL     1     -45.099 -46.337   8.879  1.00  0.00     0.007 A 
HETATM   19  C   UNL     1     -45.653 -47.697   9.187  1.00  0.00     0.007 A 
ENDBRANCH  16  17
ENDBRANCH  14  16
ENDBRANCH   7  12
ENDBRANCH   4   7
BRANCH   1  20
HETATM   20  C   UNL     1     -44.104 -53.311  12.938  1.00  0.00     0.057 A 
HETATM   21  C   UNL     1     -43.800 -54.243  13.949  1.00  0.00    -0.033 A 
HETATM   22  C   UNL     1     -42.409 -54.683  14.300  1.00  0.00     0.050 C 
HETATM   23  C   UNL     1     -44.863 -54.827  14.667  1.00  0.00     0.026 A 
HETATM   24  C   UNL     1     -46.168 -54.473  14.375  1.00  0.00     0.088 A 
HETATM   25  N   UNL     1     -46.495 -53.603  13.408  1.00  0.00    -0.373 N 
HETATM   26  C   UNL     1     -45.464 -53.052  12.719  1.00  0.00     0.117 A 
ATOM     27  HN  UNL     1     -47.466 -53.369  13.201  1.00  0.00     0.164 HD
ENDBRANCH   1  20
TORSDOF 5
ENDMDL
MODEL 8
REMARK VINA RESULT:      -6.0      3.004      7.487
REMARK  5 active torsions:
REMARK  status: ('A' for Active; 'I' for Inactive)
REMARK    1  A    between atoms: C_8  and  N_9 
REMARK       I    between atoms: N_9  and  C_10 
REMARK       I    between atoms: C_10  and  N_12 
REMARK    2  A    between atoms: N_12  and  C_13 
REMARK    3  A    between atoms: C_13  and  C_18 
REMARK       I    between atoms: C_18  and  N_20 
REMARK    4  A    between atoms: N_20  and  C_21 
REMARK    5  A    between atoms: C_21  and  C_22 
ROOT
HETATM    1  N   UNL     1     -41.441 -49.003  10.766  1.00  0.00    -0.307 N 
HETATM    2  C   UNL     1     -41.435 -49.789  11.901  1.00  0.00     0.321 C 
HETATM    3  O   UNL     1     -41.490 -49.375  13.056  1.00  0.00    -0.247 OA
HETATM    4  N   UNL     1     -41.291 -51.139  11.635  1.00  0.00    -0.325 N 
HETATM    5  H   UNL     1     -41.536 -49.473   9.880  1.00  0.00     0.170 HD
HETATM    6  H   UNL     1     -41.880 -51.460  10.879  1.00  0.00     0.165 HD
ENDROOT
BRANCH   4   7
HETATM    7  C   UNL     1     -41.250 -52.068  12.794  1.00  0.00     0.115 C 
HETATM    8  C   UNL     1     -40.177 -51.658  13.827  1.00  0.00     0.041 C 
HETATM    9  C   UNL     1     -39.505 -52.936  14.327  1.00  0.00     0.003 C 
HETATM   10  C   UNL     1     -40.168 -54.090  13.596  1.00  0.00     0.003 C 
HETATM   11  C   UNL     1     -40.782 -53.466  12.350  1.00  0.00     0.041 C 
BRANCH   7  12
HETATM   12  C   UNL     1     -42.715 -52.196  13.341  1.00  0.00     0.246 C 
HETATM   13  O   UNL     1     -43.016 -51.740  14.448  1.00  0.00    -0.271 OA
HETATM   14  N   UNL     1     -43.666 -52.674  12.463  1.00  0.00    -0.359 N 
HETATM   15  H   UNL     1     -43.364 -53.242  11.685  1.00  0.00     0.162 HD
BRANCH  14  16
HETATM   16  C   UNL     1     -45.055 -52.787  12.841  1.00  0.00     0.127 C 
BRANCH  16  17
HETATM   17  C   UNL     1     -45.364 -54.215  13.179  1.00  0.00     0.003 A 
HETATM   18  C   UNL     1     -46.053 -54.570  14.476  1.00  0.00     0.007 A 
HETATM   19  C   UNL     1     -44.605 -54.913  14.282  1.00  0.00     0.007 A 
ENDBRANCH  16  17
ENDBRANCH  14  16
ENDBRANCH   7  12
ENDBRANCH   4   7
BRANCH   1  20
HETATM   20  C   UNL     1     -41.433 -47.579  10.773  1.00  0.00     0.057 A 
HETATM   21  C   UNL     1     -42.604 -46.835  10.534  1.00  0.00    -0.033 A 
HETATM   22  C   UNL     1     -43.942 -47.442  10.229  1.00  0.00     0.050 C 
HETATM   23  C   UNL     1     -42.523 -45.428  10.552  1.00  0.00     0.026 A 
HETATM   24  C   UNL     1     -41.312 -44.811  10.809  1.00  0.00     0.088 A 
HETATM   25  N   UNL     1     -40.174 -45.487  11.024  1.00  0.00    -0.373 N 
HETATM   26  C   UNL     1     -40.263 -46.841  10.998  1.00  0.00     0.117 A 
ATOM     27  HN  UNL     1     -39.289 -45.010  11.196  1.00  0.00     0.164 HD
ENDBRANCH   1  20
TORSDOF 5
ENDMDL
MODEL 9
REMARK VINA RESULT:      -5.9      3.047      5.235
REMARK  5 active torsions:
REMARK  status: ('A' for Active; 'I' for Inactive)
REMARK    1  A    between atoms: C_8  and  N_9 
REMARK       I    between atoms: N_9  and  C_10 
REMARK       I    between atoms: C_10  and  N_12 
REMARK    2  A    between atoms: N_12  and  C_13 
REMARK    3  A    between atoms: C_13  and  C_18 
REMARK       I    between atoms: C_18  and  N_20 
REMARK    4  A    between atoms: N_20  and  C_21 
REMARK    5  A    between atoms: C_21  and  C_22 
ROOT
HETATM    1  N   UNL     1     -42.567 -52.449  11.893  1.00  0.00    -0.307 N 
HETATM    2  C   UNL     1     -41.734 -51.485  12.426  1.00  0.00     0.321 C 
HETATM    3  O   UNL     1     -41.712 -51.133  13.602  1.00  0.00    -0.247 OA
HETATM    4  N   UNL     1     -40.931 -50.870  11.484  1.00  0.00    -0.325 N 
HETATM    5  H   UNL     1     -42.386 -52.744  10.947  1.00  0.00     0.170 HD
HETATM    6  H   UNL     1     -40.499 -51.521  10.843  1.00  0.00     0.165 HD
ENDROOT
BRANCH   4   7
HETATM    7  C   UNL     1     -40.013 -49.800  11.955  1.00  0.00     0.115 C 
HETATM    8  C   UNL     1     -38.635 -49.872  11.261  1.00  0.00     0.041 C 
HETATM    9  C   UNL     1     -37.571 -49.571  12.316  1.00  0.00     0.003 C 
HETATM   10  C   UNL     1     -38.309 -49.328  13.620  1.00  0.00     0.003 C 
HETATM   11  C   UNL     1     -39.662 -50.004  13.439  1.00  0.00     0.041 C 
BRANCH   7  12
HETATM   12  C   UNL     1     -40.779 -48.437  11.819  1.00  0.00     0.246 C 
HETATM   13  O   UNL     1     -41.603 -48.090  12.670  1.00  0.00    -0.271 OA
HETATM   14  N   UNL     1     -40.363 -47.587  10.815  1.00  0.00    -0.359 N 
HETATM   15  H   UNL     1     -39.879 -47.978  10.020  1.00  0.00     0.162 HD
BRANCH  14  16
HETATM   16  C   UNL     1     -40.961 -46.286  10.628  1.00  0.00     0.127 C 
BRANCH  16  17
HETATM   17  C   UNL     1     -39.894 -45.235  10.694  1.00  0.00     0.003 A 
HETATM   18  C   UNL     1     -39.543 -44.570  12.004  1.00  0.00     0.007 A 
HETATM   19  C   UNL     1     -40.265 -43.793  10.942  1.00  0.00     0.007 A 
ENDBRANCH  16  17
ENDBRANCH  14  16
ENDBRANCH   7  12
ENDBRANCH   4   7
BRANCH   1  20
HETATM   20  C   UNL     1     -43.588 -53.125  12.623  1.00  0.00     0.057 A 
HETATM   21  C   UNL     1     -43.278 -54.107  13.583  1.00  0.00    -0.033 A 
HETATM   22  C   UNL     1     -41.884 -54.553  13.914  1.00  0.00     0.050 C 
HETATM   23  C   UNL     1     -44.338 -54.738  14.266  1.00  0.00     0.026 A 
HETATM   24  C   UNL     1     -45.645 -54.380  13.989  1.00  0.00     0.088 A 
HETATM   25  N   UNL     1     -45.977 -53.463  13.069  1.00  0.00    -0.373 N 
HETATM   26  C   UNL     1     -44.949 -52.866  12.414  1.00  0.00     0.117 A 
ATOM     27  HN  UNL     1     -46.949 -53.227  12.872  1.00  0.00     0.164 HD
ENDBRANCH   1  20
TORSDOF 5
ENDMDL
