MODEL 1
REMARK VINA RESULT:      -5.9      0.000      0.000
REMARK  6 active torsions:
REMARK  status: ('A' for Active; 'I' for Inactive)
REMARK    1  A    between atoms: C_2  and  C_3 
REMARK    2  A    between atoms: C_7  and  C_8 
REMARK    3  A    between atoms: C_8  and  C_9 
REMARK    4  A    between atoms: C_9  and  N_10 
REMARK       I    between atoms: N_10  and  C_11 
REMARK    5  A    between atoms: C_11  and  C_13 
REMARK    6  A    between atoms: C_13  and  C_14 
ROOT
HETATM    1  C   UNL     1     -40.748 -49.643  11.400  1.00  0.00     0.129 C 
ENDROOT
BRANCH   1   2
HETATM    2  C   UNL     1     -40.988 -48.162  11.115  1.00  0.00     0.084 C 
BRANCH   2   3
HETATM    3  C   UNL     1     -42.190 -47.956  10.250  1.00  0.00     0.052 A 
HETATM    4  N   UNL     1     -42.197 -48.106   8.942  1.00  0.00    -0.363 N 
HETATM    5  C   UNL     1     -43.440 -47.766   8.443  1.00  0.00     0.103 A 
ATOM      6  HN  UNL     1     -41.406 -48.423   8.382  1.00  0.00     0.165 HD
HETATM    7  C   UNL     1     -44.380 -47.384   9.379  1.00  0.00    -0.001 A 
HETATM    8  S   UNL     1     -43.685 -47.462  10.943  1.00  0.00    -0.080 SA
BRANCH   7   9
HETATM    9  C   UNL     1     -45.789 -46.935   9.177  1.00  0.00     0.043 C 
HETATM   10  C   UNL     1     -46.733 -48.104   8.953  1.00  0.00     0.010 C 
ENDBRANCH   7   9
ENDBRANCH   2   3
ENDBRANCH   1   2
BRANCH   1  11
HETATM   11  N   UNL     1     -41.972 -50.364  11.727  1.00  0.00    -0.361 N 
HETATM   12  C   UNL     1     -42.011 -51.241  12.789  1.00  0.00     0.218 C 
HETATM   13  O   UNL     1     -41.025 -51.518  13.465  1.00  0.00    -0.274 OA
HETATM   14  H   UNL     1     -42.845 -50.022  11.342  1.00  0.00     0.162 HD
BRANCH  12  15
HETATM   15  C   UNL     1     -43.363 -51.874  13.037  1.00  0.00     0.111 C 
BRANCH  15  16
HETATM   16  C   UNL     1     -44.440 -50.831  13.345  1.00  0.00     0.017 C 
HETATM   17  C   UNL     1     -44.550 -50.554  14.856  1.00  0.00     0.012 C 
HETATM   18  C   UNL     1     -45.694 -51.431  15.368  1.00  0.00     0.027 C 
HETATM   19  C   UNL     1     -46.505 -51.650  14.136  1.00  0.00    -0.030 C 
HETATM   20  C   UNL     1     -45.826 -51.319  13.032  1.00  0.00    -0.026 C 
ENDBRANCH  15  16
ENDBRANCH  12  15
ENDBRANCH   1  11
TORSDOF 6
ENDMDL
MODEL 2
REMARK VINA RESULT:      -5.6      2.309      2.805
REMARK  6 active torsions:
REMARK  status: ('A' for Active; 'I' for Inactive)
REMARK    1  A    between atoms: C_2  and  C_3 
REMARK    2  A    between atoms: C_7  and  C_8 
REMARK    3  A    between atoms: C_8  and  C_9 
REMARK    4  A    between atoms: C_9  and  N_10 
REMARK       I    between atoms: N_10  and  C_11 
REMARK    5  A    between atoms: C_11  and  C_13 
REMARK    6  A    between atoms: C_13  and  C_14 
ROOT
HETATM    1  C   UNL     1     -41.081 -52.511  11.763  1.00  0.00     0.129 C 
ENDROOT
BRANCH   1   2
HETATM    2  C   UNL     1     -40.419 -51.277  12.371  1.00  0.00     0.084 C 
BRANCH   2   3
HETATM    3  C   UNL     1     -41.025 -50.015  11.847  1.00  0.00     0.052 A 
HETATM    4  N   UNL     1     -40.883 -49.580  10.612  1.00  0.00    -0.363 N 
HETATM    5  C   UNL     1     -41.502 -48.352  10.479  1.00  0.00     0.103 A 
ATOM      6  HN  UNL     1     -40.392 -50.074   9.867  1.00  0.00     0.165 HD
HETATM    7  C   UNL     1     -42.134 -47.871  11.609  1.00  0.00    -0.001 A 
HETATM    8  S   UNL     1     -41.954 -49.002  12.883  1.00  0.00    -0.080 SA
BRANCH   7   9
HETATM    9  C   UNL     1     -42.862 -46.583  11.810  1.00  0.00     0.043 C 
HETATM   10  C   UNL     1     -41.959 -45.379  11.600  1.00  0.00     0.010 C 
ENDBRANCH   7   9
ENDBRANCH   2   3
ENDBRANCH   1   2
BRANCH   1  11
HETATM   11  N   UNL     1     -42.536 -52.466  11.829  1.00  0.00    -0.361 N 
HETATM   12  C   UNL     1     -43.227 -53.268  12.712  1.00  0.00     0.218 C 
HETATM   13  O   UNL     1     -42.681 -54.100  13.430  1.00  0.00    -0.274 OA
HETATM   14  H   UNL     1     -43.009 -51.668  11.421  1.00  0.00     0.162 HD
BRANCH  12  15
HETATM   15  C   UNL     1     -44.728 -53.073  12.703  1.00  0.00     0.111 C 
BRANCH  15  16
HETATM   16  C   UNL     1     -45.126 -51.648  13.099  1.00  0.00     0.017 C 
HETATM   17  C   UNL     1     -44.531 -51.248  14.461  1.00  0.00     0.012 C 
HETATM   18  C   UNL     1     -45.627 -51.508  15.497  1.00  0.00     0.027 C 
HETATM   19  C   UNL     1     -46.868 -51.439  14.674  1.00  0.00    -0.030 C 
HETATM   20  C   UNL     1     -46.597 -51.511  13.366  1.00  0.00    -0.026 C 
ENDBRANCH  15  16
ENDBRANCH  12  15
ENDBRANCH   1  11
TORSDOF 6
ENDMDL
MODEL 3
REMARK VINA RESULT:      -5.3      2.465      5.713
REMARK  6 active torsions:
REMARK  status: ('A' for Active; 'I' for Inactive)
REMARK    1  A    between atoms: C_2  and  C_3 
REMARK    2  A    between atoms: C_7  and  C_8 
REMARK    3  A    between atoms: C_8  and  C_9 
REMARK    4  A    between atoms: C_9  and  N_10 
REMARK       I    between atoms: N_10  and  C_11 
REMARK    5  A    between atoms: C_11  and  C_13 
REMARK    6  A    between atoms: C_13  and  C_14 
ROOT
HETATM    1  C   UNL     1     -40.644 -49.261  10.780  1.00  0.00     0.129 C 
ENDROOT
BRANCH   1   2
HETATM    2  C   UNL     1     -40.166 -50.132  11.939  1.00  0.00     0.084 C 
BRANCH   2   3
HETATM    3  C   UNL     1     -41.131 -51.234  12.234  1.00  0.00     0.052 A 
HETATM    4  N   UNL     1     -41.357 -52.256  11.436  1.00  0.00    -0.363 N 
HETATM    5  C   UNL     1     -42.357 -53.048  11.967  1.00  0.00     0.103 A 
ATOM      6  HN  UNL     1     -40.868 -52.437  10.559  1.00  0.00     0.165 HD
HETATM    7  C   UNL     1     -42.871 -52.635  13.180  1.00  0.00    -0.001 A 
HETATM    8  S   UNL     1     -42.064 -51.208  13.680  1.00  0.00    -0.080 SA
BRANCH   7   9
HETATM    9  C   UNL     1     -43.962 -53.238  14.001  1.00  0.00     0.043 C 
HETATM   10  C   UNL     1     -44.749 -54.281  13.225  1.00  0.00     0.010 C 
ENDBRANCH   7   9
ENDBRANCH   2   3
ENDBRANCH   1   2
BRANCH   1  11
HETATM   11  N   UNL     1     -42.073 -48.978  10.835  1.00  0.00    -0.361 N 
HETATM   12  C   UNL     1     -42.553 -47.717  10.550  1.00  0.00     0.218 C 
HETATM   13  O   UNL     1     -41.823 -46.761  10.307  1.00  0.00    -0.274 OA
HETATM   14  H   UNL     1     -42.716 -49.760  10.823  1.00  0.00     0.162 HD
BRANCH  12  15
HETATM   15  C   UNL     1     -44.060 -47.589  10.597  1.00  0.00     0.111 C 
BRANCH  15  16
HETATM   16  C   UNL     1     -44.630 -46.994   9.306  1.00  0.00     0.017 C 
HETATM   17  C   UNL     1     -46.169 -47.033   9.291  1.00  0.00     0.012 C 
HETATM   18  C   UNL     1     -46.555 -48.291   8.512  1.00  0.00     0.027 C 
HETATM   19  C   UNL     1     -45.350 -48.526   7.666  1.00  0.00    -0.030 C 
HETATM   20  C   UNL     1     -44.301 -47.816   8.094  1.00  0.00    -0.026 C 
ENDBRANCH  15  16
ENDBRANCH  12  15
ENDBRANCH   1  11
TORSDOF 6
ENDMDL
MODEL 4
REMARK VINA RESULT:      -5.3      3.780      5.330
REMARK  6 active torsions:
REMARK  status: ('A' for Active; 'I' for Inactive)
REMARK    1  A    between atoms: C_2  and  C_3 
REMARK    2  A    between atoms: C_7  and  C_8 
REMARK    3  A    between atoms: C_8  and  C_9 
REMARK    4  A    between atoms: C_9  and  N_10 
REMARK       I    between atoms: N_10  and  C_11 
REMARK    5  A    between atoms: C_11  and  C_13 
REMARK    6  A    between atoms: C_13  and  C_14 
ROOT
HETATM    1  C   UNL     1     -41.369 -54.082  14.411  1.00  0.00     0.129 C 
ENDROOT
BRANCH   1   2
HETATM    2  C   UNL     1     -41.253 -53.862  12.905  1.00  0.00     0.084 C 
BRANCH   2   3
HETATM    3  C   UNL     1     -40.780 -52.480  12.586  1.00  0.00     0.052 A 
HETATM    4  N   UNL     1     -41.155 -51.793  11.528  1.00  0.00    -0.363 N 
HETATM    5  C   UNL     1     -40.477 -50.589  11.492  1.00  0.00     0.103 A 
ATOM      6  HN  UNL     1     -41.842 -52.101  10.839  1.00  0.00     0.165 HD
HETATM    7  C   UNL     1     -39.607 -50.358  12.538  1.00  0.00    -0.001 A 
HETATM    8  S   UNL     1     -39.646 -51.692  13.613  1.00  0.00    -0.080 SA
BRANCH   7   9
HETATM    9  C   UNL     1     -38.712 -49.188  12.785  1.00  0.00     0.043 C 
HETATM   10  C   UNL     1     -37.668 -49.483  13.848  1.00  0.00     0.010 C 
ENDBRANCH   7   9
ENDBRANCH   2   3
ENDBRANCH   1   2
BRANCH   1  11
HETATM   11  N   UNL     1     -42.608 -53.555  14.968  1.00  0.00    -0.361 N 
HETATM   12  C   UNL     1     -43.691 -54.381  15.186  1.00  0.00     0.218 C 
HETATM   13  O   UNL     1     -43.704 -55.566  14.867  1.00  0.00    -0.274 OA
HETATM   14  H   UNL     1     -42.580 -52.655  15.432  1.00  0.00     0.162 HD
BRANCH  12  15
HETATM   15  C   UNL     1     -44.887 -53.703  15.817  1.00  0.00     0.111 C 
BRANCH  15  16
HETATM   16  C   UNL     1     -46.057 -53.568  14.838  1.00  0.00     0.017 C 
HETATM   17  C   UNL     1     -45.585 -53.114  13.445  1.00  0.00     0.012 C 
HETATM   18  C   UNL     1     -45.782 -51.598  13.401  1.00  0.00     0.027 C 
HETATM   19  C   UNL     1     -46.843 -51.384  14.427  1.00  0.00    -0.030 C 
HETATM   20  C   UNL     1     -46.998 -52.458  15.208  1.00  0.00    -0.026 C 
ENDBRANCH  15  16
ENDBRANCH  12  15
ENDBRANCH   1  11
TORSDOF 6
ENDMDL
MODEL 5
REMARK VINA RESULT:      -5.2      3.039      3.631
REMARK  6 active torsions:
REMARK  status: ('A' for Active; 'I' for Inactive)
REMARK    1  A    between atoms: C_2  and  C_3 
REMARK    2  A    between atoms: C_7  and  C_8 
REMARK    3  A    between atoms: C_8  and  C_9 
REMARK    4  A    between atoms: C_9  and  N_10 
REMARK       I    between atoms: N_10  and  C_11 
REMARK    5  A    between atoms: C_11  and  C_13 
REMARK    6  A    between atoms: C_13  and  C_14 
ROOT
HETATM    1  C   UNL     1     -39.383 -51.001  13.202  1.00  0.00     0.129 C 
ENDROOT
BRANCH   1   2
HETATM    2  C   UNL     1     -38.963 -50.347  11.887  1.00  0.00     0.084 C 
BRANCH   2   3
HETATM    3  C   UNL     1     -39.921 -49.276  11.476  1.00  0.00     0.052 A 
HETATM    4  N   UNL     1     -40.918 -49.454  10.634  1.00  0.00    -0.363 N 
HETATM    5  C   UNL     1     -41.558 -48.250  10.412  1.00  0.00     0.103 A 
ATOM      6  HN  UNL     1     -41.177 -50.345  10.210  1.00  0.00     0.165 HD
HETATM    7  C   UNL     1     -41.060 -47.166  11.107  1.00  0.00    -0.001 A 
HETATM    8  S   UNL     1     -39.746 -47.675  12.083  1.00  0.00    -0.080 SA
BRANCH   7   9
HETATM    9  C   UNL     1     -41.497 -45.739  11.075  1.00  0.00     0.043 C 
HETATM   10  C   UNL     1     -40.335 -44.792  10.828  1.00  0.00     0.010 C 
ENDBRANCH   7   9
ENDBRANCH   2   3
ENDBRANCH   1   2
BRANCH   1  11
HETATM   11  N   UNL     1     -40.484 -51.942  13.042  1.00  0.00    -0.361 N 
HETATM   12  C   UNL     1     -40.299 -53.289  13.267  1.00  0.00     0.218 C 
HETATM   13  O   UNL     1     -39.208 -53.778  13.541  1.00  0.00    -0.274 OA
HETATM   14  H   UNL     1     -41.428 -51.574  13.024  1.00  0.00     0.162 HD
BRANCH  12  15
HETATM   15  C   UNL     1     -41.546 -54.133  13.113  1.00  0.00     0.111 C 
BRANCH  15  16
HETATM   16  C   UNL     1     -42.800 -53.406  13.605  1.00  0.00     0.017 C 
HETATM   17  C   UNL     1     -43.408 -54.091  14.843  1.00  0.00     0.012 C 
HETATM   18  C   UNL     1     -44.520 -55.002  14.321  1.00  0.00     0.027 C 
HETATM   19  C   UNL     1     -44.873 -54.364  13.021  1.00  0.00    -0.030 C 
HETATM   20  C   UNL     1     -43.939 -53.490  12.630  1.00  0.00    -0.026 C 
ENDBRANCH  15  16
ENDBRANCH  12  15
ENDBRANCH   1  11
TORSDOF 6
ENDMDL
MODEL 6
REMARK VINA RESULT:      -5.2      2.193      5.900
REMARK  6 active torsions:
REMARK  status: ('A' for Active; 'I' for Inactive)
REMARK    1  A    between atoms: C_2  and  C_3 
REMARK    2  A    between atoms: C_7  and  C_8 
REMARK    3  A    between atoms: C_8  and  C_9 
REMARK    4  A    between atoms: C_9  and  N_10 
REMARK       I    between atoms: N_10  and  C_11 
REMARK    5  A    between atoms: C_11  and  C_13 
REMARK    6  A    between atoms: C_13  and  C_14 
ROOT
HETATM    1  C   UNL     1     -41.239 -51.086  12.489  1.00  0.00     0.129 C 
ENDROOT
BRANCH   1   2
HETATM    2  C   UNL     1     -41.579 -52.518  12.083  1.00  0.00     0.084 C 
BRANCH   2   3
HETATM    3  C   UNL     1     -42.904 -52.944  12.628  1.00  0.00     0.052 A 
HETATM    4  N   UNL     1     -43.532 -54.046  12.277  1.00  0.00    -0.363 N 
HETATM    5  C   UNL     1     -44.761 -54.101  12.906  1.00  0.00     0.103 A 
ATOM      6  HN  UNL     1     -43.168 -54.752  11.637  1.00  0.00     0.165 HD
HETATM    7  C   UNL     1     -45.050 -53.050  13.754  1.00  0.00    -0.001 A 
HETATM    8  S   UNL     1     -43.730 -51.957  13.772  1.00  0.00    -0.080 SA
BRANCH   7   9
HETATM    9  C   UNL     1     -46.283 -52.792  14.555  1.00  0.00     0.043 C 
HETATM   10  C   UNL     1     -46.671 -51.323  14.546  1.00  0.00     0.010 C 
ENDBRANCH   7   9
ENDBRANCH   2   3
ENDBRANCH   1   2
BRANCH   1  11
HETATM   11  N   UNL     1     -41.477 -50.122  11.422  1.00  0.00    -0.361 N 
HETATM   12  C   UNL     1     -42.077 -48.909  11.688  1.00  0.00     0.218 C 
HETATM   13  O   UNL     1     -42.500 -48.601  12.797  1.00  0.00    -0.274 OA
HETATM   14  H   UNL     1     -40.970 -50.236  10.552  1.00  0.00     0.162 HD
BRANCH  12  15
HETATM   15  C   UNL     1     -42.210 -47.993  10.491  1.00  0.00     0.111 C 
BRANCH  15  16
HETATM   16  C   UNL     1     -43.362 -46.998  10.651  1.00  0.00     0.017 C 
HETATM   17  C   UNL     1     -44.693 -47.581  10.143  1.00  0.00     0.012 C 
HETATM   18  C   UNL     1     -44.864 -47.070   8.712  1.00  0.00     0.027 C 
HETATM   19  C   UNL     1     -44.028 -45.835   8.711  1.00  0.00    -0.030 C 
HETATM   20  C   UNL     1     -43.212 -45.791   9.770  1.00  0.00    -0.026 C 
ENDBRANCH  15  16
ENDBRANCH  12  15
ENDBRANCH   1  11
TORSDOF 6
ENDMDL
MODEL 7
REMARK VINA RESULT:      -5.2      4.095      5.593
REMARK  6 active torsions:
REMARK  status: ('A' for Active; 'I' for Inactive)
REMARK    1  A    between atoms: C_2  and  C_3 
REMARK    2  A    between atoms: C_7  and  C_8 
REMARK    3  A    between atoms: C_8  and  C_9 
REMARK    4  A    between atoms: C_9  and  N_10 
REMARK       I    between atoms: N_10  and  C_11 
REMARK    5  A    between atoms: C_11  and  C_13 
REMARK    6  A    between atoms: C_13  and  C_14 
ROOT
HETATM    1  C   UNL     1     -40.841 -54.055  12.862  1.00  0.00     0.129 C 
ENDROOT
BRANCH   1   2
HETATM    2  C   UNL     1     -40.056 -53.670  14.113  1.00  0.00     0.084 C 
BRANCH   2   3
HETATM    3  C   UNL     1     -39.451 -52.309  13.985  1.00  0.00     0.052 A 
HETATM    4  N   UNL     1     -39.489 -51.580  12.889  1.00  0.00    -0.363 N 
HETATM    5  C   UNL     1     -38.773 -50.414  13.083  1.00  0.00     0.103 A 
ATOM      6  HN  UNL     1     -39.973 -51.836  12.028  1.00  0.00     0.165 HD
HETATM    7  C   UNL     1     -38.215 -50.252  14.335  1.00  0.00    -0.001 A 
HETATM    8  S   UNL     1     -38.609 -51.605  15.310  1.00  0.00    -0.080 SA
BRANCH   7   9
HETATM    9  C   UNL     1     -37.371 -49.137  14.858  1.00  0.00     0.043 C 
HETATM   10  C   UNL     1     -37.786 -47.792  14.288  1.00  0.00     0.010 C 
ENDBRANCH   7   9
ENDBRANCH   2   3
ENDBRANCH   1   2
BRANCH   1  11
HETATM   11  N   UNL     1     -42.283 -53.940  13.039  1.00  0.00    -0.361 N 
HETATM   12  C   UNL     1     -42.959 -52.817  12.612  1.00  0.00     0.218 C 
HETATM   13  O   UNL     1     -42.396 -51.838  12.132  1.00  0.00    -0.274 OA
HETATM   14  H   UNL     1     -42.810 -54.784  13.231  1.00  0.00     0.162 HD
BRANCH  12  15
HETATM   15  C   UNL     1     -44.458 -52.865  12.817  1.00  0.00     0.111 C 
BRANCH  15  16
HETATM   16  C   UNL     1     -45.038 -51.490  13.159  1.00  0.00     0.017 C 
HETATM   17  C   UNL     1     -44.570 -51.003  14.544  1.00  0.00     0.012 C 
HETATM   18  C   UNL     1     -45.686 -51.371  15.523  1.00  0.00     0.027 C 
HETATM   19  C   UNL     1     -46.878 -51.458  14.633  1.00  0.00    -0.030 C 
HETATM   20  C   UNL     1     -46.528 -51.518  13.343  1.00  0.00    -0.026 C 
ENDBRANCH  15  16
ENDBRANCH  12  15
ENDBRANCH   1  11
TORSDOF 6
ENDMDL
MODEL 8
REMARK VINA RESULT:      -5.1      3.617      5.345
REMARK  6 active torsions:
REMARK  status: ('A' for Active; 'I' for Inactive)
REMARK    1  A    between atoms: C_2  and  C_3 
REMARK    2  A    between atoms: C_7  and  C_8 
REMARK    3  A    between atoms: C_8  and  C_9 
REMARK    4  A    between atoms: C_9  and  N_10 
REMARK       I    between atoms: N_10  and  C_11 
REMARK    5  A    between atoms: C_11  and  C_13 
REMARK    6  A    between atoms: C_13  and  C_14 
ROOT
HETATM    1  C   UNL     1     -44.019 -53.306  12.403  1.00  0.00     0.129 C 
ENDROOT
BRANCH   1   2
HETATM    2  C   UNL     1     -42.699 -53.443  13.158  1.00  0.00     0.084 C 
BRANCH   2   3
HETATM    3  C   UNL     1     -41.765 -52.321  12.841  1.00  0.00     0.052 A 
HETATM    4  N   UNL     1     -41.973 -51.426  11.897  1.00  0.00    -0.363 N 
HETATM    5  C   UNL     1     -40.886 -50.577  11.815  1.00  0.00     0.103 A 
ATOM      6  HN  UNL     1     -42.808 -51.369  11.315  1.00  0.00     0.165 HD
HETATM    7  C   UNL     1     -39.867 -50.816  12.716  1.00  0.00    -0.001 A 
HETATM    8  S   UNL     1     -40.289 -52.147  13.709  1.00  0.00    -0.080 SA
BRANCH   7   9
HETATM    9  C   UNL     1     -38.559 -50.113  12.874  1.00  0.00     0.043 C 
HETATM   10  C   UNL     1     -37.429 -50.844  12.170  1.00  0.00     0.010 C 
ENDBRANCH   7   9
ENDBRANCH   2   3
ENDBRANCH   1   2
BRANCH   1  11
HETATM   11  N   UNL     1     -45.131 -52.934  13.267  1.00  0.00    -0.361 N 
HETATM   12  C   UNL     1     -45.446 -51.609  13.482  1.00  0.00     0.218 C 
HETATM   13  O   UNL     1     -44.782 -50.682  13.028  1.00  0.00    -0.274 OA
HETATM   14  H   UNL     1     -45.821 -53.642  13.490  1.00  0.00     0.162 HD
BRANCH  12  15
HETATM   15  C   UNL     1     -46.657 -51.381  14.360  1.00  0.00     0.111 C 
BRANCH  15  16
HETATM   16  C   UNL     1     -46.443 -51.898  15.785  1.00  0.00     0.017 C 
HETATM   17  C   UNL     1     -47.648 -51.585  16.691  1.00  0.00     0.012 C 
HETATM   18  C   UNL     1     -47.294 -50.299  17.440  1.00  0.00     0.027 C 
HETATM   19  C   UNL     1     -45.803 -50.306  17.401  1.00  0.00    -0.030 C 
HETATM   20  C   UNL     1     -45.337 -51.181  16.503  1.00  0.00    -0.026 C 
ENDBRANCH  15  16
ENDBRANCH  12  15
ENDBRANCH   1  11
TORSDOF 6
ENDMDL
MODEL 9
REMARK VINA RESULT:      -5.1      4.083      5.435
REMARK  6 active torsions:
REMARK  status: ('A' for Active; 'I' for Inactive)
REMARK    1  A    between atoms: C_2  and  C_3 
REMARK    2  A    between atoms: C_7  and  C_8 
REMARK    3  A    between atoms: C_8  and  C_9 
REMARK    4  A    between atoms: C_9  and  N_10 
REMARK       I    between atoms: N_10  and  C_11 
REMARK    5  A    between atoms: C_11  and  C_13 
REMARK    6  A    between atoms: C_13  and  C_14 
ROOT
HETATM    1  C   UNL     1     -43.075 -54.980  14.643  1.00  0.00     0.129 C 
ENDROOT
BRANCH   1   2
HETATM    2  C   UNL     1     -41.917 -54.044  14.980  1.00  0.00     0.084 C 
BRANCH   2   3
HETATM    3  C   UNL     1     -41.585 -53.145  13.834  1.00  0.00     0.052 A 
HETATM    4  N   UNL     1     -41.949 -53.365  12.588  1.00  0.00    -0.363 N 
HETATM    5  C   UNL     1     -41.417 -52.388  11.769  1.00  0.00     0.103 A 
ATOM      6  HN  UNL     1     -42.536 -54.139  12.275  1.00  0.00     0.165 HD
HETATM    7  C   UNL     1     -40.669 -51.415  12.401  1.00  0.00    -0.001 A 
HETATM    8  S   UNL     1     -40.641 -51.729  14.085  1.00  0.00    -0.080 SA
BRANCH   7   9
HETATM    9  C   UNL     1     -39.942 -50.250  11.815  1.00  0.00     0.043 C 
HETATM   10  C   UNL     1     -39.098 -49.526  12.851  1.00  0.00     0.010 C 
ENDBRANCH   7   9
ENDBRANCH   2   3
ENDBRANCH   1   2
BRANCH   1  11
HETATM   11  N   UNL     1     -44.377 -54.412  14.967  1.00  0.00    -0.361 N 
HETATM   12  C   UNL     1     -45.254 -54.044  13.969  1.00  0.00     0.218 C 
HETATM   13  O   UNL     1     -44.974 -54.105  12.776  1.00  0.00    -0.274 OA
HETATM   14  H   UNL     1     -44.731 -54.533  15.908  1.00  0.00     0.162 HD
BRANCH  12  15
HETATM   15  C   UNL     1     -46.586 -53.519  14.459  1.00  0.00     0.111 C 
BRANCH  15  16
HETATM   16  C   UNL     1     -46.651 -51.990  14.424  1.00  0.00     0.017 C 
HETATM   17  C   UNL     1     -45.247 -51.358  14.471  1.00  0.00     0.012 C 
HETATM   18  C   UNL     1     -44.989 -51.003  15.936  1.00  0.00     0.027 C 
HETATM   19  C   UNL     1     -46.371 -50.875  16.483  1.00  0.00    -0.030 C 
HETATM   20  C   UNL     1     -47.279 -51.408  15.658  1.00  0.00    -0.026 C 
ENDBRANCH  15  16
ENDBRANCH  12  15
ENDBRANCH   1  11
TORSDOF 6
ENDMDL
