MODEL 1
REMARK VINA RESULT:      -6.1      0.000      0.000
REMARK  3 active torsions:
REMARK  status: ('A' for Active; 'I' for Inactive)
REMARK    1  A    between atoms: C_2  and  N_3 
REMARK    2  A    between atoms: C_2  and  C_13 
REMARK       I    between atoms: N_3  and  C_4 
REMARK       I    between atoms: C_4  and  N_6 
REMARK    3  A    between atoms: N_6  and  C_7 
ROOT
HETATM    1  N   UNL     1     -40.911 -49.420  10.557  1.00  0.00    -0.336 N 
HETATM    2  C   UNL     1     -41.982 -48.557  10.669  1.00  0.00     0.321 C 
HETATM    3  O   UNL     1     -42.532 -48.329  11.740  1.00  0.00    -0.247 OA
HETATM    4  N   UNL     1     -42.284 -47.970   9.461  1.00  0.00    -0.306 N 
HETATM    5  H   UNL     1     -40.931 -50.010   9.736  1.00  0.00     0.164 HD
HETATM    6  H   UNL     1     -41.608 -48.063   8.716  1.00  0.00     0.171 HD
ENDROOT
BRANCH   1   7
HETATM    7  C   UNL     1     -40.358 -50.061  11.757  1.00  0.00     0.111 C 
HETATM    8  C   UNL     1     -38.837 -49.936  11.710  1.00  0.00     0.035 C 
BRANCH   7   9
HETATM    9  C   UNL     1     -40.859 -51.516  11.886  1.00  0.00     0.143 C 
HETATM   10  C   UNL     1     -42.157 -51.688  12.669  1.00  0.00     0.036 C 
HETATM   11  C   UNL     1     -41.974 -52.981  13.439  1.00  0.00     0.029 C 
HETATM   12  C   UNL     1     -40.610 -53.488  13.024  1.00  0.00     0.168 C 
HETATM   13  O   UNL     1     -39.890 -52.339  12.567  1.00  0.00    -0.384 OA
ENDBRANCH   7   9
ENDBRANCH   1   7
BRANCH   4  14
HETATM   14  C   UNL     1     -43.294 -47.039   9.301  1.00  0.00     0.070 A 
HETATM   15  C   UNL     1     -43.300 -45.639   9.488  1.00  0.00     0.138 A 
HETATM   16  N   UNL     1     -44.489 -45.092   9.212  1.00  0.00    -0.310 N 
HETATM   17  N   UNL     1     -45.236 -46.140   8.834  1.00  0.00    -0.310 N 
ATOM     18  HN  UNL     1     -44.764 -44.111   9.275  1.00  0.00     0.186 HD
HETATM   19  C   UNL     1     -44.572 -47.334   8.890  1.00  0.00     0.138 A 
HETATM   20  H   UNL     1     -46.194 -45.965   8.547  1.00  0.00     0.186 HD
ENDBRANCH   4  14
TORSDOF 3
ENDMDL
MODEL 2
REMARK VINA RESULT:      -5.6      1.986      2.404
REMARK  3 active torsions:
REMARK  status: ('A' for Active; 'I' for Inactive)
REMARK    1  A    between atoms: C_2  and  N_3 
REMARK    2  A    between atoms: C_2  and  C_13 
REMARK       I    between atoms: N_3  and  C_4 
REMARK       I    between atoms: C_4  and  N_6 
REMARK    3  A    between atoms: N_6  and  C_7 
ROOT
HETATM    1  N   UNL     1     -40.930 -48.260  10.663  1.00  0.00    -0.336 N 
HETATM    2  C   UNL     1     -42.257 -47.880  10.645  1.00  0.00     0.321 C 
HETATM    3  O   UNL     1     -42.944 -47.847  11.659  1.00  0.00    -0.247 OA
HETATM    4  N   UNL     1     -42.655 -47.501   9.383  1.00  0.00    -0.306 N 
HETATM    5  H   UNL     1     -40.649 -48.840   9.883  1.00  0.00     0.164 HD
HETATM    6  H   UNL     1     -41.934 -47.349   8.693  1.00  0.00     0.171 HD
ENDROOT
BRANCH   1   7
HETATM    7  C   UNL     1     -40.281 -48.592  11.937  1.00  0.00     0.111 C 
HETATM    8  C   UNL     1     -39.540 -47.352  12.435  1.00  0.00     0.035 C 
BRANCH   7   9
HETATM    9  C   UNL     1     -39.380 -49.838  11.790  1.00  0.00     0.143 C 
HETATM   10  C   UNL     1     -39.084 -50.581  13.089  1.00  0.00     0.036 C 
HETATM   11  C   UNL     1     -37.647 -51.042  12.951  1.00  0.00     0.029 C 
HETATM   12  C   UNL     1     -37.221 -50.572  11.576  1.00  0.00     0.168 C 
HETATM   13  O   UNL     1     -38.090 -49.483  11.250  1.00  0.00    -0.384 OA
ENDBRANCH   7   9
ENDBRANCH   1   7
BRANCH   4  14
HETATM   14  C   UNL     1     -43.928 -47.044   9.094  1.00  0.00     0.070 A 
HETATM   15  C   UNL     1     -44.451 -45.732   9.042  1.00  0.00     0.138 A 
HETATM   16  N   UNL     1     -45.746 -45.712   8.709  1.00  0.00    -0.310 N 
HETATM   17  N   UNL     1     -46.044 -47.008   8.533  1.00  0.00    -0.310 N 
ATOM     18  HN  UNL     1     -46.361 -44.904   8.612  1.00  0.00     0.186 HD
HETATM   19  C   UNL     1     -44.994 -47.850   8.772  1.00  0.00     0.138 A 
HETATM   20  H   UNL     1     -46.988 -47.246   8.245  1.00  0.00     0.186 HD
ENDBRANCH   4  14
TORSDOF 3
ENDMDL
MODEL 3
REMARK VINA RESULT:      -5.4      3.092      4.644
REMARK  3 active torsions:
REMARK  status: ('A' for Active; 'I' for Inactive)
REMARK    1  A    between atoms: C_2  and  N_3 
REMARK    2  A    between atoms: C_2  and  C_13 
REMARK       I    between atoms: N_3  and  C_4 
REMARK       I    between atoms: C_4  and  N_6 
REMARK    3  A    between atoms: N_6  and  C_7 
ROOT
HETATM    1  N   UNL     1     -42.838 -52.024  12.450  1.00  0.00    -0.336 N 
HETATM    2  C   UNL     1     -42.308 -50.754  12.546  1.00  0.00     0.321 C 
HETATM    3  O   UNL     1     -42.323 -50.112  13.590  1.00  0.00    -0.247 OA
HETATM    4  N   UNL     1     -41.728 -50.359  11.361  1.00  0.00    -0.306 N 
HETATM    5  H   UNL     1     -43.343 -52.205  11.593  1.00  0.00     0.164 HD
HETATM    6  H   UNL     1     -41.575 -51.068  10.659  1.00  0.00     0.171 HD
ENDROOT
BRANCH   1   7
HETATM    7  C   UNL     1     -43.401 -52.674  13.640  1.00  0.00     0.111 C 
HETATM    8  C   UNL     1     -42.787 -54.068  13.761  1.00  0.00     0.035 C 
BRANCH   7   9
HETATM    9  C   UNL     1     -44.945 -52.677  13.589  1.00  0.00     0.143 C 
HETATM   10  C   UNL     1     -45.599 -51.303  13.694  1.00  0.00     0.036 C 
HETATM   11  C   UNL     1     -46.850 -51.533  14.519  1.00  0.00     0.029 C 
HETATM   12  C   UNL     1     -46.857 -53.020  14.801  1.00  0.00     0.168 C 
HETATM   13  O   UNL     1     -45.497 -53.448  14.676  1.00  0.00    -0.384 OA
ENDBRANCH   7   9
ENDBRANCH   1   7
BRANCH   4  14
HETATM   14  C   UNL     1     -41.094 -49.142  11.195  1.00  0.00     0.070 A 
HETATM   15  C   UNL     1     -39.829 -48.689  11.634  1.00  0.00     0.138 A 
HETATM   16  N   UNL     1     -39.576 -47.432  11.252  1.00  0.00    -0.310 N 
HETATM   17  N   UNL     1     -40.671 -47.090  10.556  1.00  0.00    -0.310 N 
ATOM     18  HN  UNL     1     -38.748 -46.868  11.445  1.00  0.00     0.186 HD
HETATM   19  C   UNL     1     -41.620 -48.072  10.510  1.00  0.00     0.138 A 
HETATM   20  H   UNL     1     -40.700 -46.166  10.137  1.00  0.00     0.186 HD
ENDBRANCH   4  14
TORSDOF 3
ENDMDL
MODEL 4
REMARK VINA RESULT:      -5.4      3.895      5.930
REMARK  3 active torsions:
REMARK  status: ('A' for Active; 'I' for Inactive)
REMARK    1  A    between atoms: C_2  and  N_3 
REMARK    2  A    between atoms: C_2  and  C_13 
REMARK       I    between atoms: N_3  and  C_4 
REMARK       I    between atoms: C_4  and  N_6 
REMARK    3  A    between atoms: N_6  and  C_7 
ROOT
HETATM    1  N   UNL     1     -42.124 -51.425  11.939  1.00  0.00    -0.336 N 
HETATM    2  C   UNL     1     -43.039 -51.871  12.871  1.00  0.00     0.321 C 
HETATM    3  O   UNL     1     -43.045 -51.471  14.029  1.00  0.00    -0.247 OA
HETATM    4  N   UNL     1     -43.942 -52.746  12.311  1.00  0.00    -0.306 N 
HETATM    5  H   UNL     1     -41.768 -52.143  11.323  1.00  0.00     0.164 HD
HETATM    6  H   UNL     1     -43.971 -52.804  11.304  1.00  0.00     0.171 HD
ENDROOT
BRANCH   1   7
HETATM    7  C   UNL     1     -41.144 -50.396  12.309  1.00  0.00     0.111 C 
HETATM    8  C   UNL     1     -41.513 -49.101  11.587  1.00  0.00     0.035 C 
BRANCH   7   9
HETATM    9  C   UNL     1     -39.704 -50.878  12.026  1.00  0.00     0.143 C 
HETATM   10  C   UNL     1     -38.910 -51.304  13.257  1.00  0.00     0.036 C 
HETATM   11  C   UNL     1     -37.494 -50.835  12.984  1.00  0.00     0.029 C 
HETATM   12  C   UNL     1     -37.554 -50.208  11.607  1.00  0.00     0.168 C 
HETATM   13  O   UNL     1     -38.922 -49.836  11.408  1.00  0.00    -0.384 OA
ENDBRANCH   7   9
ENDBRANCH   1   7
BRANCH   4  14
HETATM   14  C   UNL     1     -44.985 -53.315  13.018  1.00  0.00     0.070 A 
HETATM   15  C   UNL     1     -46.225 -52.779  13.432  1.00  0.00     0.138 A 
HETATM   16  N   UNL     1     -46.972 -53.670  14.094  1.00  0.00    -0.310 N 
HETATM   17  N   UNL     1     -46.216 -54.778  14.087  1.00  0.00    -0.310 N 
ATOM     18  HN  UNL     1     -47.896 -53.538  14.506  1.00  0.00     0.186 HD
HETATM   19  C   UNL     1     -45.006 -54.612  13.473  1.00  0.00     0.138 A 
HETATM   20  H   UNL     1     -46.593 -55.615  14.521  1.00  0.00     0.186 HD
ENDBRANCH   4  14
TORSDOF 3
ENDMDL
MODEL 5
REMARK VINA RESULT:      -5.0      3.873      6.259
REMARK  3 active torsions:
REMARK  status: ('A' for Active; 'I' for Inactive)
REMARK    1  A    between atoms: C_2  and  N_3 
REMARK    2  A    between atoms: C_2  and  C_13 
REMARK       I    between atoms: N_3  and  C_4 
REMARK       I    between atoms: C_4  and  N_6 
REMARK    3  A    between atoms: N_6  and  C_7 
ROOT
HETATM    1  N   UNL     1     -40.782 -53.404  15.055  1.00  0.00    -0.336 N 
HETATM    2  C   UNL     1     -40.376 -52.993  13.802  1.00  0.00     0.321 C 
HETATM    3  O   UNL     1     -40.079 -53.784  12.914  1.00  0.00    -0.247 OA
HETATM    4  N   UNL     1     -40.414 -51.621  13.686  1.00  0.00    -0.306 N 
HETATM    5  H   UNL     1     -40.412 -52.854  15.818  1.00  0.00     0.164 HD
HETATM    6  H   UNL     1     -40.900 -51.107  14.405  1.00  0.00     0.171 HD
ENDROOT
BRANCH   1   7
HETATM    7  C   UNL     1     -40.921 -54.837  15.345  1.00  0.00     0.111 C 
HETATM    8  C   UNL     1     -42.400 -55.136  15.583  1.00  0.00     0.035 C 
BRANCH   7   9
HETATM    9  C   UNL     1     -40.006 -55.255  16.516  1.00  0.00     0.143 C 
HETATM   10  C   UNL     1     -38.572 -54.738  16.435  1.00  0.00     0.036 C 
HETATM   11  C   UNL     1     -37.723 -55.869  16.981  1.00  0.00     0.029 C 
HETATM   12  C   UNL     1     -38.716 -56.942  17.375  1.00  0.00     0.168 C 
HETATM   13  O   UNL     1     -39.891 -56.690  16.597  1.00  0.00    -0.384 OA
ENDBRANCH   7   9
ENDBRANCH   1   7
BRANCH   4  14
HETATM   14  C   UNL     1     -40.088 -50.949  12.522  1.00  0.00     0.070 A 
HETATM   15  C   UNL     1     -38.850 -50.452  12.055  1.00  0.00     0.138 A 
HETATM   16  N   UNL     1     -38.954 -49.865  10.858  1.00  0.00    -0.310 N 
HETATM   17  N   UNL     1     -40.254 -50.003  10.554  1.00  0.00    -0.310 N 
ATOM     18  HN  UNL     1     -38.221 -49.419  10.306  1.00  0.00     0.186 HD
HETATM   19  C   UNL     1     -40.982 -50.627  11.528  1.00  0.00     0.138 A 
HETATM   20  H   UNL     1     -40.575 -49.647   9.659  1.00  0.00     0.186 HD
ENDBRANCH   4  14
TORSDOF 3
ENDMDL
MODEL 6
REMARK VINA RESULT:      -4.9      5.370      7.854
REMARK  3 active torsions:
REMARK  status: ('A' for Active; 'I' for Inactive)
REMARK    1  A    between atoms: C_2  and  N_3 
REMARK    2  A    between atoms: C_2  and  C_13 
REMARK       I    between atoms: N_3  and  C_4 
REMARK       I    between atoms: C_4  and  N_6 
REMARK    3  A    between atoms: N_6  and  C_7 
ROOT
HETATM    1  N   UNL     1     -44.831 -51.868  15.327  1.00  0.00    -0.336 N 
HETATM    2  C   UNL     1     -44.202 -52.667  14.395  1.00  0.00     0.321 C 
HETATM    3  O   UNL     1     -44.785 -53.565  13.798  1.00  0.00    -0.247 OA
HETATM    4  N   UNL     1     -42.895 -52.279  14.199  1.00  0.00    -0.306 N 
HETATM    5  H   UNL     1     -44.273 -51.655  16.143  1.00  0.00     0.164 HD
HETATM    6  H   UNL     1     -42.614 -51.385  14.573  1.00  0.00     0.171 HD
ENDROOT
BRANCH   1   7
HETATM    7  C   UNL     1     -46.264 -52.046  15.595  1.00  0.00     0.111 C 
HETATM    8  C   UNL     1     -47.049 -51.353  14.483  1.00  0.00     0.035 C 
BRANCH   7   9
HETATM    9  C   UNL     1     -46.625 -51.550  17.013  1.00  0.00     0.143 C 
HETATM   10  C   UNL     1     -48.087 -51.159  17.210  1.00  0.00     0.036 C 
HETATM   11  C   UNL     1     -48.043 -49.958  18.134  1.00  0.00     0.029 C 
HETATM   12  C   UNL     1     -46.574 -49.759  18.440  1.00  0.00     0.168 C 
HETATM   13  O   UNL     1     -45.865 -50.375  17.360  1.00  0.00    -0.384 OA
ENDBRANCH   7   9
ENDBRANCH   1   7
BRANCH   4  14
HETATM   14  C   UNL     1     -42.050 -52.892  13.293  1.00  0.00     0.070 A 
HETATM   15  C   UNL     1     -41.365 -54.127  13.354  1.00  0.00     0.138 A 
HETATM   16  N   UNL     1     -40.646 -54.367  12.251  1.00  0.00    -0.310 N 
HETATM   17  N   UNL     1     -40.886 -53.295  11.482  1.00  0.00    -0.310 N 
ATOM     18  HN  UNL     1     -40.056 -55.173  12.045  1.00  0.00     0.186 HD
HETATM   19  C   UNL     1     -41.704 -52.370  12.069  1.00  0.00     0.138 A 
HETATM   20  H   UNL     1     -40.457 -53.262  10.562  1.00  0.00     0.186 HD
ENDBRANCH   4  14
TORSDOF 3
ENDMDL
MODEL 7
REMARK VINA RESULT:      -4.8      3.929      6.089
REMARK  3 active torsions:
REMARK  status: ('A' for Active; 'I' for Inactive)
REMARK    1  A    between atoms: C_2  and  N_3 
REMARK    2  A    between atoms: C_2  and  C_13 
REMARK       I    between atoms: N_3  and  C_4 
REMARK       I    between atoms: C_4  and  N_6 
REMARK    3  A    between atoms: N_6  and  C_7 
ROOT
HETATM    1  N   UNL     1     -44.378 -51.424  13.587  1.00  0.00    -0.336 N 
HETATM    2  C   UNL     1     -43.215 -51.629  12.873  1.00  0.00     0.321 C 
HETATM    3  O   UNL     1     -43.031 -52.628  12.188  1.00  0.00    -0.247 OA
HETATM    4  N   UNL     1     -42.357 -50.558  12.991  1.00  0.00    -0.306 N 
HETATM    5  H   UNL     1     -44.242 -51.026  14.506  1.00  0.00     0.164 HD
HETATM    6  H   UNL     1     -42.728 -49.706  13.386  1.00  0.00     0.171 HD
ENDROOT
BRANCH   1   7
HETATM    7  C   UNL     1     -45.472 -52.400  13.499  1.00  0.00     0.111 C 
HETATM    8  C   UNL     1     -46.434 -51.944  12.404  1.00  0.00     0.035 C 
BRANCH   7   9
HETATM    9  C   UNL     1     -46.144 -52.601  14.874  1.00  0.00     0.143 C 
HETATM   10  C   UNL     1     -47.101 -51.490  15.297  1.00  0.00     0.036 C 
HETATM   11  C   UNL     1     -46.894 -51.349  16.791  1.00  0.00     0.029 C 
HETATM   12  C   UNL     1     -45.867 -52.406  17.140  1.00  0.00     0.168 C 
HETATM   13  O   UNL     1     -45.159 -52.677  15.926  1.00  0.00    -0.384 OA
ENDBRANCH   7   9
ENDBRANCH   1   7
BRANCH   4  14
HETATM   14  C   UNL     1     -41.135 -50.491  12.349  1.00  0.00     0.070 A 
HETATM   15  C   UNL     1     -40.736 -49.790  11.189  1.00  0.00     0.138 A 
HETATM   16  N   UNL     1     -39.444 -49.979  10.896  1.00  0.00    -0.310 N 
HETATM   17  N   UNL     1     -39.016 -50.786  11.879  1.00  0.00    -0.310 N 
ATOM     18  HN  UNL     1     -38.911 -49.600  10.113  1.00  0.00     0.186 HD
HETATM   19  C   UNL     1     -39.996 -51.140  12.764  1.00  0.00     0.138 A 
HETATM   20  H   UNL     1     -38.037 -51.055  11.883  1.00  0.00     0.186 HD
ENDBRANCH   4  14
TORSDOF 3
ENDMDL
MODEL 8
REMARK VINA RESULT:      -4.8      4.229      7.630
REMARK  3 active torsions:
REMARK  status: ('A' for Active; 'I' for Inactive)
REMARK    1  A    between atoms: C_2  and  N_3 
REMARK    2  A    between atoms: C_2  and  C_13 
REMARK       I    between atoms: N_3  and  C_4 
REMARK       I    between atoms: C_4  and  N_6 
REMARK    3  A    between atoms: N_6  and  C_7 
ROOT
HETATM    1  N   UNL     1     -42.663 -43.903  12.317  1.00  0.00    -0.336 N 
HETATM    2  C   UNL     1     -42.325 -44.619  11.186  1.00  0.00     0.321 C 
HETATM    3  O   UNL     1     -41.283 -44.422  10.572  1.00  0.00    -0.247 OA
HETATM    4  N   UNL     1     -43.263 -45.585  10.903  1.00  0.00    -0.306 N 
HETATM    5  H   UNL     1     -43.639 -43.647  12.376  1.00  0.00     0.164 HD
HETATM    6  H   UNL     1     -43.944 -45.797  11.618  1.00  0.00     0.171 HD
ENDROOT
BRANCH   1   7
HETATM    7  C   UNL     1     -41.734 -42.901  12.854  1.00  0.00     0.111 C 
HETATM    8  C   UNL     1     -41.447 -43.246  14.314  1.00  0.00     0.035 C 
BRANCH   7   9
HETATM    9  C   UNL     1     -42.285 -41.473  12.649  1.00  0.00     0.143 C 
HETATM   10  C   UNL     1     -43.805 -41.370  12.567  1.00  0.00     0.036 C 
HETATM   11  C   UNL     1     -44.063 -40.296  11.529  1.00  0.00     0.029 C 
HETATM   12  C   UNL     1     -42.687 -39.824  11.111  1.00  0.00     0.168 C 
HETATM   13  O   UNL     1     -41.796 -40.901  11.418  1.00  0.00    -0.384 OA
ENDBRANCH   7   9
ENDBRANCH   1   7
BRANCH   4  14
HETATM   14  C   UNL     1     -43.150 -46.464   9.842  1.00  0.00     0.070 A 
HETATM   15  C   UNL     1     -43.504 -46.323   8.481  1.00  0.00     0.138 A 
HETATM   16  N   UNL     1     -43.218 -47.415   7.763  1.00  0.00    -0.310 N 
HETATM   17  N   UNL     1     -42.667 -48.245   8.662  1.00  0.00    -0.310 N 
ATOM     18  HN  UNL     1     -43.380 -47.578   6.769  1.00  0.00     0.186 HD
HETATM   19  C   UNL     1     -42.622 -47.731   9.927  1.00  0.00     0.138 A 
HETATM   20  H   UNL     1     -42.340 -49.150   8.338  1.00  0.00     0.186 HD
ENDBRANCH   4  14
TORSDOF 3
ENDMDL
MODEL 9
REMARK VINA RESULT:      -4.8      3.623      5.884
REMARK  3 active torsions:
REMARK  status: ('A' for Active; 'I' for Inactive)
REMARK    1  A    between atoms: C_2  and  N_3 
REMARK    2  A    between atoms: C_2  and  C_13 
REMARK       I    between atoms: N_3  and  C_4 
REMARK       I    between atoms: C_4  and  N_6 
REMARK    3  A    between atoms: N_6  and  C_7 
ROOT
HETATM    1  N   UNL     1     -41.296 -51.865  11.542  1.00  0.00    -0.336 N 
HETATM    2  C   UNL     1     -42.332 -52.110  12.421  1.00  0.00     0.321 C 
HETATM    3  O   UNL     1     -42.398 -51.579  13.523  1.00  0.00    -0.247 OA
HETATM    4  N   UNL     1     -43.270 -52.954  11.870  1.00  0.00    -0.306 N 
HETATM    5  H   UNL     1     -40.965 -52.681  11.045  1.00  0.00     0.164 HD
HETATM    6  H   UNL     1     -43.215 -53.126  10.877  1.00  0.00     0.171 HD
ENDROOT
BRANCH   1   7
HETATM    7  C   UNL     1     -40.249 -50.898  11.897  1.00  0.00     0.111 C 
HETATM    8  C   UNL     1     -39.484 -51.440  13.102  1.00  0.00     0.035 C 
BRANCH   7   9
HETATM    9  C   UNL     1     -40.850 -49.493  12.121  1.00  0.00     0.143 C 
HETATM   10  C   UNL     1     -41.262 -48.754  10.851  1.00  0.00     0.036 C 
HETATM   11  C   UNL     1     -40.914 -47.303  11.118  1.00  0.00     0.029 C 
HETATM   12  C   UNL     1     -40.362 -47.292  12.528  1.00  0.00     0.168 C 
HETATM   13  O   UNL     1     -39.903 -48.624  12.778  1.00  0.00    -0.384 OA
ENDBRANCH   7   9
ENDBRANCH   1   7
BRANCH   4  14
HETATM   14  C   UNL     1     -44.426 -53.335  12.526  1.00  0.00     0.070 A 
HETATM   15  C   UNL     1     -44.712 -54.474  13.312  1.00  0.00     0.138 A 
HETATM   16  N   UNL     1     -45.963 -54.466  13.787  1.00  0.00    -0.310 N 
HETATM   17  N   UNL     1     -46.468 -53.315  13.318  1.00  0.00    -0.310 N 
ATOM     18  HN  UNL     1     -46.423 -55.168  14.367  1.00  0.00     0.186 HD
HETATM   19  C   UNL     1     -45.594 -52.609  12.539  1.00  0.00     0.138 A 
HETATM   20  H   UNL     1     -47.420 -53.073  13.573  1.00  0.00     0.186 HD
ENDBRANCH   4  14
TORSDOF 3
ENDMDL
