MODEL 1
REMARK VINA RESULT:      -4.3      0.000      0.000
REMARK  1 active torsions:
REMARK  status: ('A' for Active; 'I' for Inactive)
REMARK    1  A    between atoms: C_7  and  C_8 
ROOT
HETATM    1  C   UNL     1     -24.403 -64.338  17.043  1.00  0.00     0.156 C 
HETATM    2  N   UNL     1     -24.936 -64.826  15.794  1.00  0.00    -0.349 N 
HETATM    3  C   UNL     1     -24.329 -65.738  14.978  1.00  0.00     0.108 A 
HETATM    4  C   UNL     1     -25.191 -65.901  13.921  1.00  0.00     0.106 A 
HETATM    5  N   UNL     1     -26.303 -65.117  14.081  1.00  0.00    -0.354 N 
ATOM      6  HN  UNL     1     -27.098 -65.045  13.445  1.00  0.00     0.166 HD
HETATM    7  C   UNL     1     -26.139 -64.475  15.222  1.00  0.00     0.088 A 
ENDROOT
BRANCH   7   8
HETATM    8  C   UNL     1     -27.108 -63.533  15.854  1.00  0.00     0.083 C 
HETATM    9  C   UNL     1     -28.546 -63.793  15.425  1.00  0.00     0.044 C 
HETATM   10  C   UNL     1     -29.230 -62.433  15.527  1.00  0.00     0.270 C 
HETATM   11  N   UNL     1     -28.194 -61.447  15.867  1.00  0.00     0.084 N 
HETATM   12  C   UNL     1     -26.921 -62.074  15.461  1.00  0.00     0.281 C 
HETATM   13  H   UNL     1     -28.182 -61.319  16.879  1.00  0.00     0.315 HD
ENDBRANCH   7   8
TORSDOF 1
ENDMDL
MODEL 2
REMARK VINA RESULT:      -4.3     20.990     23.278
REMARK  1 active torsions:
REMARK  status: ('A' for Active; 'I' for Inactive)
REMARK    1  A    between atoms: C_7  and  C_8 
ROOT
HETATM    1  C   UNL     1     -40.329 -45.936  10.780  1.00  0.00     0.156 C 
HETATM    2  N   UNL     1     -40.629 -47.337  10.950  1.00  0.00    -0.349 N 
HETATM    3  C   UNL     1     -39.824 -48.249  11.573  1.00  0.00     0.108 A 
HETATM    4  C   UNL     1     -40.509 -49.437  11.502  1.00  0.00     0.106 A 
HETATM    5  N   UNL     1     -41.706 -49.266  10.859  1.00  0.00    -0.354 N 
ATOM      6  HN  UNL     1     -42.408 -49.982  10.669  1.00  0.00     0.166 HD
HETATM    7  C   UNL     1     -41.770 -47.989  10.535  1.00  0.00     0.088 A 
ENDROOT
BRANCH   7   8
HETATM    8  C   UNL     1     -42.908 -47.303   9.857  1.00  0.00     0.083 C 
HETATM    9  C   UNL     1     -44.243 -47.561  10.544  1.00  0.00     0.044 C 
HETATM   10  C   UNL     1     -45.278 -47.454   9.428  1.00  0.00     0.270 C 
HETATM   11  N   UNL     1     -44.544 -47.278   8.167  1.00  0.00     0.084 N 
HETATM   12  C   UNL     1     -43.185 -47.787   8.440  1.00  0.00     0.281 C 
HETATM   13  H   UNL     1     -44.480 -46.280   7.961  1.00  0.00     0.315 HD
ENDBRANCH   7   8
TORSDOF 1
ENDMDL
MODEL 3
REMARK VINA RESULT:      -4.1     20.669     22.991
REMARK  1 active torsions:
REMARK  status: ('A' for Active; 'I' for Inactive)
REMARK    1  A    between atoms: C_7  and  C_8 
ROOT
HETATM    1  C   UNL     1     -43.113 -49.014  13.318  1.00  0.00     0.156 C 
HETATM    2  N   UNL     1     -42.115 -49.214  12.295  1.00  0.00    -0.349 N 
HETATM    3  C   UNL     1     -41.081 -50.104  12.361  1.00  0.00     0.108 A 
HETATM    4  C   UNL     1     -40.401 -49.951  11.178  1.00  0.00     0.106 A 
HETATM    5  N   UNL     1     -41.000 -48.998  10.397  1.00  0.00    -0.354 N 
ATOM      6  HN  UNL     1     -40.702 -48.687   9.473  1.00  0.00     0.166 HD
HETATM    7  C   UNL     1     -42.041 -48.563  11.083  1.00  0.00     0.088 A 
ENDROOT
BRANCH   7   8
HETATM    8  C   UNL     1     -43.037 -47.549  10.631  1.00  0.00     0.083 C 
HETATM    9  C   UNL     1     -43.283 -47.596   9.128  1.00  0.00     0.044 C 
HETATM   10  C   UNL     1     -43.680 -46.169   8.758  1.00  0.00     0.270 C 
HETATM   11  N   UNL     1     -43.531 -45.347   9.967  1.00  0.00     0.084 N 
HETATM   12  C   UNL     1     -42.605 -46.103  10.833  1.00  0.00     0.281 C 
HETATM   13  H   UNL     1     -44.436 -45.287  10.436  1.00  0.00     0.315 HD
ENDBRANCH   7   8
TORSDOF 1
ENDMDL
MODEL 4
REMARK VINA RESULT:      -4.1     18.960     20.242
REMARK  1 active torsions:
REMARK  status: ('A' for Active; 'I' for Inactive)
REMARK    1  A    between atoms: C_7  and  C_8 
ROOT
HETATM    1  C   UNL     1     -41.568 -52.310  15.288  1.00  0.00     0.156 C 
HETATM    2  N   UNL     1     -41.668 -52.345  13.849  1.00  0.00    -0.349 N 
HETATM    3  C   UNL     1     -40.659 -52.049  12.978  1.00  0.00     0.108 A 
HETATM    4  C   UNL     1     -41.203 -52.219  11.729  1.00  0.00     0.106 A 
HETATM    5  N   UNL     1     -42.511 -52.614  11.823  1.00  0.00    -0.354 N 
ATOM      6  HN  UNL     1     -43.150 -52.809  11.051  1.00  0.00     0.166 HD
HETATM    7  C   UNL     1     -42.779 -52.692  13.113  1.00  0.00     0.088 A 
ENDROOT
BRANCH   7   8
HETATM    8  C   UNL     1     -44.068 -53.129  13.724  1.00  0.00     0.083 C 
HETATM    9  C   UNL     1     -44.110 -54.626  14.002  1.00  0.00     0.044 C 
HETATM   10  C   UNL     1     -45.588 -54.995  13.908  1.00  0.00     0.270 C 
HETATM   11  N   UNL     1     -46.311 -53.792  13.470  1.00  0.00     0.084 N 
HETATM   12  C   UNL     1     -45.288 -52.941  12.832  1.00  0.00     0.281 C 
HETATM   13  H   UNL     1     -46.667 -53.306  14.294  1.00  0.00     0.315 HD
ENDBRANCH   7   8
TORSDOF 1
ENDMDL
MODEL 5
REMARK VINA RESULT:      -3.9     20.616     23.015
REMARK  1 active torsions:
REMARK  status: ('A' for Active; 'I' for Inactive)
REMARK    1  A    between atoms: C_7  and  C_8 
ROOT
HETATM    1  C   UNL     1     -42.045 -44.872  12.660  1.00  0.00     0.156 C 
HETATM    2  N   UNL     1     -41.044 -45.037  11.634  1.00  0.00    -0.349 N 
HETATM    3  C   UNL     1     -40.421 -44.022  10.965  1.00  0.00     0.108 A 
HETATM    4  C   UNL     1     -39.557 -44.644  10.097  1.00  0.00     0.106 A 
HETATM    5  N   UNL     1     -39.638 -46.005  10.228  1.00  0.00    -0.354 N 
ATOM      6  HN  UNL     1     -39.109 -46.704   9.706  1.00  0.00     0.166 HD
HETATM    7  C   UNL     1     -40.538 -46.230  11.166  1.00  0.00     0.088 A 
ENDROOT
BRANCH   7   8
HETATM    8  C   UNL     1     -40.946 -47.563  11.700  1.00  0.00     0.083 C 
HETATM    9  C   UNL     1     -39.784 -48.545  11.778  1.00  0.00     0.044 C 
HETATM   10  C   UNL     1     -40.429 -49.919  11.620  1.00  0.00     0.270 C 
HETATM   11  N   UNL     1     -41.855 -49.701  11.335  1.00  0.00     0.084 N 
HETATM   12  C   UNL     1     -41.937 -48.318  10.826  1.00  0.00     0.281 C 
HETATM   13  H   UNL     1     -42.376 -49.754  12.211  1.00  0.00     0.315 HD
ENDBRANCH   7   8
TORSDOF 1
ENDMDL
MODEL 6
REMARK VINA RESULT:      -3.9     17.364     19.321
REMARK  1 active torsions:
REMARK  status: ('A' for Active; 'I' for Inactive)
REMARK    1  A    between atoms: C_7  and  C_8 
ROOT
HETATM    1  C   UNL     1     -41.136 -55.070  16.085  1.00  0.00     0.156 C 
HETATM    2  N   UNL     1     -41.373 -54.586  14.746  1.00  0.00    -0.349 N 
HETATM    3  C   UNL     1     -40.405 -54.231  13.850  1.00  0.00     0.108 A 
HETATM    4  C   UNL     1     -41.087 -53.840  12.723  1.00  0.00     0.106 A 
HETATM    5  N   UNL     1     -42.438 -53.956  12.914  1.00  0.00    -0.354 N 
ATOM      6  HN  UNL     1     -43.173 -53.733  12.242  1.00  0.00     0.166 HD
HETATM    7  C   UNL     1     -42.599 -54.414  14.141  1.00  0.00     0.088 A 
ENDROOT
BRANCH   7   8
HETATM    8  C   UNL     1     -43.896 -54.749  14.798  1.00  0.00     0.083 C 
HETATM    9  C   UNL     1     -45.021 -54.975  13.796  1.00  0.00     0.044 C 
HETATM   10  C   UNL     1     -46.290 -54.584  14.548  1.00  0.00     0.270 C 
HETATM   11  N   UNL     1     -45.877 -54.044  15.851  1.00  0.00     0.084 N 
HETATM   12  C   UNL     1     -44.469 -53.641  15.670  1.00  0.00     0.281 C 
HETATM   13  H   UNL     1     -45.911 -54.794  16.542  1.00  0.00     0.315 HD
ENDBRANCH   7   8
TORSDOF 1
ENDMDL
MODEL 7
REMARK VINA RESULT:      -3.8     17.642     20.741
REMARK  1 active torsions:
REMARK  status: ('A' for Active; 'I' for Inactive)
REMARK    1  A    between atoms: C_7  and  C_8 
ROOT
HETATM    1  C   UNL     1     -39.828 -46.167  12.484  1.00  0.00     0.156 C 
HETATM    2  N   UNL     1     -40.434 -47.197  11.676  1.00  0.00    -0.349 N 
HETATM    3  C   UNL     1     -41.516 -47.029  10.860  1.00  0.00     0.108 A 
HETATM    4  C   UNL     1     -41.733 -48.261  10.295  1.00  0.00     0.106 A 
HETATM    5  N   UNL     1     -40.809 -49.167  10.743  1.00  0.00    -0.354 N 
ATOM      6  HN  UNL     1     -40.741 -50.152  10.486  1.00  0.00     0.166 HD
HETATM    7  C   UNL     1     -40.024 -48.509  11.575  1.00  0.00     0.088 A 
ENDROOT
BRANCH   7   8
HETATM    8  C   UNL     1     -38.833 -49.056  12.288  1.00  0.00     0.083 C 
HETATM    9  C   UNL     1     -37.929 -49.876  11.377  1.00  0.00     0.044 C 
HETATM   10  C   UNL     1     -37.262 -50.887  12.306  1.00  0.00     0.270 C 
HETATM   11  N   UNL     1     -37.865 -50.723  13.636  1.00  0.00     0.084 N 
HETATM   12  C   UNL     1     -39.158 -50.054  13.390  1.00  0.00     0.281 C 
HETATM   13  H   UNL     1     -37.277 -50.096  14.187  1.00  0.00     0.315 HD
ENDBRANCH   7   8
TORSDOF 1
ENDMDL
MODEL 8
REMARK VINA RESULT:      -3.7     18.519     21.417
REMARK  1 active torsions:
REMARK  status: ('A' for Active; 'I' for Inactive)
REMARK    1  A    between atoms: C_7  and  C_8 
ROOT
HETATM    1  C   UNL     1     -44.810 -51.023  15.394  1.00  0.00     0.156 C 
HETATM    2  N   UNL     1     -45.252 -51.564  14.131  1.00  0.00    -0.349 N 
HETATM    3  C   UNL     1     -46.514 -51.452  13.621  1.00  0.00     0.108 A 
HETATM    4  C   UNL     1     -46.471 -52.107  12.414  1.00  0.00     0.106 A 
HETATM    5  N   UNL     1     -45.216 -52.604  12.180  1.00  0.00    -0.354 N 
ATOM      6  HN  UNL     1     -44.908 -53.132  11.363  1.00  0.00     0.166 HD
HETATM    7  C   UNL     1     -44.486 -52.264  13.225  1.00  0.00     0.088 A 
ENDROOT
BRANCH   7   8
HETATM    8  C   UNL     1     -43.032 -52.540  13.416  1.00  0.00     0.083 C 
HETATM    9  C   UNL     1     -42.166 -51.901  12.339  1.00  0.00     0.044 C 
HETATM   10  C   UNL     1     -40.943 -52.808  12.239  1.00  0.00     0.270 C 
HETATM   11  N   UNL     1     -41.181 -53.961  13.118  1.00  0.00     0.084 N 
HETATM   12  C   UNL     1     -42.646 -54.008  13.300  1.00  0.00     0.281 C 
HETATM   13  H   UNL     1     -40.750 -53.777  14.025  1.00  0.00     0.315 HD
ENDBRANCH   7   8
TORSDOF 1
ENDMDL
MODEL 9
REMARK VINA RESULT:      -3.7     18.823     21.109
REMARK  1 active torsions:
REMARK  status: ('A' for Active; 'I' for Inactive)
REMARK    1  A    between atoms: C_7  and  C_8 
ROOT
HETATM    1  C   UNL     1     -38.836 -47.522  13.956  1.00  0.00     0.156 C 
HETATM    2  N   UNL     1     -38.727 -48.524  12.924  1.00  0.00    -0.349 N 
HETATM    3  C   UNL     1     -37.814 -49.539  12.900  1.00  0.00     0.108 A 
HETATM    4  C   UNL     1     -38.085 -50.237  11.748  1.00  0.00     0.106 A 
HETATM    5  N   UNL     1     -39.140 -49.674  11.080  1.00  0.00    -0.354 N 
ATOM      6  HN  UNL     1     -39.547 -49.990  10.200  1.00  0.00     0.166 HD
HETATM    7  C   UNL     1     -39.524 -48.640  11.805  1.00  0.00     0.088 A 
ENDROOT
BRANCH   7   8
HETATM    8  C   UNL     1     -40.672 -47.733  11.515  1.00  0.00     0.083 C 
HETATM    9  C   UNL     1     -41.713 -48.375  10.608  1.00  0.00     0.044 C 
HETATM   10  C   UNL     1     -42.350 -47.205   9.863  1.00  0.00     0.270 C 
HETATM   11  N   UNL     1     -41.609 -45.993  10.239  1.00  0.00     0.084 N 
HETATM   12  C   UNL     1     -40.305 -46.479  10.733  1.00  0.00     0.281 C 
HETATM   13  H   UNL     1     -42.097 -45.536  11.011  1.00  0.00     0.315 HD
ENDBRANCH   7   8
TORSDOF 1
ENDMDL
