MODEL 1
REMARK VINA RESULT:      -6.0      0.000      0.000
REMARK  5 active torsions:
REMARK  status: ('A' for Active; 'I' for Inactive)
REMARK    1  A    between atoms: C_2  and  N_4 
REMARK    2  A    between atoms: C_9  and  C_10 
REMARK       I    between atoms: C_10  and  N_12 
REMARK    3  A    between atoms: N_12  and  C_13 
REMARK    4  A    between atoms: C_13  and  C_14 
REMARK    5  A    between atoms: C_14  and  C_15 
ROOT
HETATM    1  C   UNL     1     -42.531 -51.033  13.219  1.00  0.00     0.240 C 
HETATM    2  O   UNL     1     -42.097 -50.469  14.225  1.00  0.00    -0.271 OA
HETATM    3  N   UNL     1     -42.501 -50.428  11.982  1.00  0.00    -0.359 N 
HETATM    4  H   UNL     1     -42.840 -50.928  11.169  1.00  0.00     0.162 HD
ENDROOT
BRANCH   1   5
HETATM    5  C   UNL     1     -43.063 -52.478  13.239  1.00  0.00     0.172 C 
HETATM    6  N   UNL     1     -44.447 -52.685  12.738  1.00  0.00    -0.396 N 
HETATM    7  C   UNL     1     -44.826 -54.112  12.842  1.00  0.00     0.118 C 
HETATM    8  C   UNL     1     -44.575 -54.764  14.209  1.00  0.00     0.020 C 
HETATM    9  C   UNL     1     -43.137 -54.574  14.655  1.00  0.00     0.004 C 
HETATM   10  C   UNL     1     -42.773 -53.097  14.614  1.00  0.00     0.035 C 
BRANCH   6  11
HETATM   11  C   UNL     1     -45.568 -51.780  13.070  1.00  0.00     0.071 C 
HETATM   12  C   UNL     1     -46.811 -51.824  12.176  1.00  0.00     0.031 C 
HETATM   13  C   UNL     1     -46.004 -51.790  14.537  1.00  0.00     0.031 C 
ENDBRANCH   6  11
ENDBRANCH   1   5
BRANCH   3  14
HETATM   14  C   UNL     1     -41.927 -49.103  11.796  1.00  0.00     0.130 C 
BRANCH  14  15
HETATM   15  C   UNL     1     -42.939 -47.968  11.989  1.00  0.00     0.096 C 
BRANCH  15  16
HETATM   16  C   UNL     1     -43.453 -47.456  10.680  1.00  0.00     0.084 A 
HETATM   17  N   UNL     1     -44.528 -47.909  10.061  1.00  0.00    -0.354 N 
HETATM   18  C   UNL     1     -44.647 -47.166   8.917  1.00  0.00     0.106 A 
ATOM     19  HN  UNL     1     -45.144 -48.660  10.373  1.00  0.00     0.166 HD
HETATM   20  C   UNL     1     -43.631 -46.248   8.830  1.00  0.00     0.108 A 
HETATM   21  N   UNL     1     -42.878 -46.436   9.956  1.00  0.00    -0.350 N 
HETATM   22  C   UNL     1     -41.703 -45.676  10.311  1.00  0.00     0.156 C 
ENDBRANCH  15  16
ENDBRANCH  14  15
ENDBRANCH   3  14
TORSDOF 5
ENDMDL
MODEL 2
REMARK VINA RESULT:      -5.7      1.715      2.174
REMARK  5 active torsions:
REMARK  status: ('A' for Active; 'I' for Inactive)
REMARK    1  A    between atoms: C_2  and  N_4 
REMARK    2  A    between atoms: C_9  and  C_10 
REMARK       I    between atoms: C_10  and  N_12 
REMARK    3  A    between atoms: N_12  and  C_13 
REMARK    4  A    between atoms: C_13  and  C_14 
REMARK    5  A    between atoms: C_14  and  C_15 
ROOT
HETATM    1  C   UNL     1     -41.946 -51.156  12.924  1.00  0.00     0.240 C 
HETATM    2  O   UNL     1     -41.621 -50.493  13.911  1.00  0.00    -0.271 OA
HETATM    3  N   UNL     1     -41.649 -50.740  11.645  1.00  0.00    -0.359 N 
HETATM    4  H   UNL     1     -41.905 -51.321  10.855  1.00  0.00     0.162 HD
ENDROOT
BRANCH   1   5
HETATM    5  C   UNL     1     -42.630 -52.531  13.033  1.00  0.00     0.172 C 
HETATM    6  N   UNL     1     -44.088 -52.574  12.748  1.00  0.00    -0.396 N 
HETATM    7  C   UNL     1     -44.607 -53.949  12.917  1.00  0.00     0.118 C 
HETATM    8  C   UNL     1     -44.230 -54.641  14.235  1.00  0.00     0.020 C 
HETATM    9  C   UNL     1     -42.729 -54.620  14.459  1.00  0.00     0.004 C 
HETATM   10  C   UNL     1     -42.210 -53.193  14.354  1.00  0.00     0.035 C 
BRANCH   6  11
HETATM   11  C   UNL     1     -45.036 -51.551  13.238  1.00  0.00     0.071 C 
HETATM   12  C   UNL     1     -46.482 -51.618  12.739  1.00  0.00     0.031 C 
HETATM   13  C   UNL     1     -45.037 -51.334  14.753  1.00  0.00     0.031 C 
ENDBRANCH   6  11
ENDBRANCH   1   5
BRANCH   3  14
HETATM   14  C   UNL     1     -40.910 -49.511  11.396  1.00  0.00     0.130 C 
BRANCH  14  15
HETATM   15  C   UNL     1     -41.728 -48.447  10.657  1.00  0.00     0.096 C 
BRANCH  15  16
HETATM   16  C   UNL     1     -41.262 -47.063  10.985  1.00  0.00     0.084 A 
HETATM   17  N   UNL     1     -40.304 -46.418  10.345  1.00  0.00    -0.354 N 
HETATM   18  C   UNL     1     -40.204 -45.193  10.949  1.00  0.00     0.106 A 
ATOM     19  HN  UNL     1     -39.750 -46.762   9.561  1.00  0.00     0.166 HD
HETATM   20  C   UNL     1     -41.110 -45.086  11.975  1.00  0.00     0.108 A 
HETATM   21  N   UNL     1     -41.781 -46.277  11.989  1.00  0.00    -0.350 N 
HETATM   22  C   UNL     1     -42.853 -46.621  12.892  1.00  0.00     0.156 C 
ENDBRANCH  15  16
ENDBRANCH  14  15
ENDBRANCH   3  14
TORSDOF 5
ENDMDL
MODEL 3
REMARK VINA RESULT:      -5.7      3.829      6.141
REMARK  5 active torsions:
REMARK  status: ('A' for Active; 'I' for Inactive)
REMARK    1  A    between atoms: C_2  and  N_4 
REMARK    2  A    between atoms: C_9  and  C_10 
REMARK       I    between atoms: C_10  and  N_12 
REMARK    3  A    between atoms: N_12  and  C_13 
REMARK    4  A    between atoms: C_13  and  C_14 
REMARK    5  A    between atoms: C_14  and  C_15 
ROOT
HETATM    1  C   UNL     1     -44.204 -53.366  12.517  1.00  0.00     0.240 C 
HETATM    2  O   UNL     1     -44.866 -54.404  12.544  1.00  0.00    -0.271 OA
HETATM    3  N   UNL     1     -44.802 -52.126  12.540  1.00  0.00    -0.359 N 
HETATM    4  H   UNL     1     -44.229 -51.291  12.545  1.00  0.00     0.162 HD
ENDROOT
BRANCH   1   5
HETATM    5  C   UNL     1     -42.664 -53.360  12.539  1.00  0.00     0.172 C 
HETATM    6  N   UNL     1     -42.011 -54.140  13.623  1.00  0.00    -0.396 N 
HETATM    7  C   UNL     1     -40.539 -54.020  13.530  1.00  0.00     0.118 C 
HETATM    8  C   UNL     1     -39.999 -52.588  13.408  1.00  0.00     0.020 C 
HETATM    9  C   UNL     1     -40.655 -51.848  12.257  1.00  0.00     0.004 C 
HETATM   10  C   UNL     1     -42.169 -51.914  12.394  1.00  0.00     0.035 C 
BRANCH   6  11
HETATM   11  C   UNL     1     -42.489 -54.132  15.022  1.00  0.00     0.071 C 
HETATM   12  C   UNL     1     -42.380 -55.433  15.822  1.00  0.00     0.031 C 
HETATM   13  C   UNL     1     -41.980 -52.971  15.880  1.00  0.00     0.031 C 
ENDBRANCH   6  11
ENDBRANCH   1   5
BRANCH   3  14
HETATM   14  C   UNL     1     -46.248 -51.979  12.628  1.00  0.00     0.130 C 
BRANCH  14  15
HETATM   15  C   UNL     1     -46.724 -51.432  13.977  1.00  0.00     0.096 C 
BRANCH  15  16
HETATM   16  C   UNL     1     -46.320 -52.324  15.110  1.00  0.00     0.084 A 
HETATM   17  N   UNL     1     -46.527 -53.627  15.156  1.00  0.00    -0.354 N 
HETATM   18  C   UNL     1     -45.998 -54.052  16.345  1.00  0.00     0.106 A 
ATOM     19  HN  UNL     1     -46.989 -54.200  14.450  1.00  0.00     0.166 HD
HETATM   20  C   UNL     1     -45.461 -52.996  17.039  1.00  0.00     0.108 A 
HETATM   21  N   UNL     1     -45.666 -51.902  16.245  1.00  0.00    -0.350 N 
HETATM   22  C   UNL     1     -45.247 -50.556  16.555  1.00  0.00     0.156 C 
ENDBRANCH  15  16
ENDBRANCH  14  15
ENDBRANCH   3  14
TORSDOF 5
ENDMDL
MODEL 4
REMARK VINA RESULT:      -5.7      1.126      2.462
REMARK  5 active torsions:
REMARK  status: ('A' for Active; 'I' for Inactive)
REMARK    1  A    between atoms: C_2  and  N_4 
REMARK    2  A    between atoms: C_9  and  C_10 
REMARK       I    between atoms: C_10  and  N_12 
REMARK    3  A    between atoms: N_12  and  C_13 
REMARK    4  A    between atoms: C_13  and  C_14 
REMARK    5  A    between atoms: C_14  and  C_15 
ROOT
HETATM    1  C   UNL     1     -43.487 -50.462  14.197  1.00  0.00     0.240 C 
HETATM    2  O   UNL     1     -42.476 -50.116  14.810  1.00  0.00    -0.271 OA
HETATM    3  N   UNL     1     -43.693 -50.105  12.883  1.00  0.00    -0.359 N 
HETATM    4  H   UNL     1     -44.522 -50.429  12.398  1.00  0.00     0.162 HD
ENDROOT
BRANCH   1   5
HETATM    5  C   UNL     1     -44.558 -51.383  14.810  1.00  0.00     0.172 C 
HETATM    6  N   UNL     1     -44.138 -52.773  15.129  1.00  0.00    -0.396 N 
HETATM    7  C   UNL     1     -45.274 -53.541  15.685  1.00  0.00     0.118 C 
HETATM    8  C   UNL     1     -46.576 -53.476  14.874  1.00  0.00     0.020 C 
HETATM    9  C   UNL     1     -46.994 -52.040  14.617  1.00  0.00     0.004 C 
HETATM   10  C   UNL     1     -45.846 -51.271  13.981  1.00  0.00     0.035 C 
BRANCH   6  11
HETATM   11  C   UNL     1     -43.296 -53.587  14.228  1.00  0.00     0.071 C 
HETATM   12  C   UNL     1     -42.721 -54.897  14.776  1.00  0.00     0.031 C 
HETATM   13  C   UNL     1     -43.881 -53.840  12.837  1.00  0.00     0.031 C 
ENDBRANCH   6  11
ENDBRANCH   1   5
BRANCH   3  14
HETATM   14  C   UNL     1     -42.712 -49.325  12.142  1.00  0.00     0.130 C 
BRANCH  14  15
HETATM   15  C   UNL     1     -43.044 -47.831  12.077  1.00  0.00     0.096 C 
BRANCH  15  16
HETATM   16  C   UNL     1     -43.448 -47.414  10.697  1.00  0.00     0.084 A 
HETATM   17  N   UNL     1     -44.495 -47.883  10.043  1.00  0.00    -0.354 N 
HETATM   18  C   UNL     1     -44.508 -47.235   8.837  1.00  0.00     0.106 A 
ATOM     19  HN  UNL     1     -45.158 -48.586  10.369  1.00  0.00     0.166 HD
HETATM   20  C   UNL     1     -43.455 -46.359   8.748  1.00  0.00     0.108 A 
HETATM   21  N   UNL     1     -42.789 -46.476   9.936  1.00  0.00    -0.350 N 
HETATM   22  C   UNL     1     -41.614 -45.725  10.311  1.00  0.00     0.156 C 
ENDBRANCH  15  16
ENDBRANCH  14  15
ENDBRANCH   3  14
TORSDOF 5
ENDMDL
MODEL 5
REMARK VINA RESULT:      -5.6      2.469      3.804
REMARK  5 active torsions:
REMARK  status: ('A' for Active; 'I' for Inactive)
REMARK    1  A    between atoms: C_2  and  N_4 
REMARK    2  A    between atoms: C_9  and  C_10 
REMARK       I    between atoms: C_10  and  N_12 
REMARK    3  A    between atoms: N_12  and  C_13 
REMARK    4  A    between atoms: C_13  and  C_14 
REMARK    5  A    between atoms: C_14  and  C_15 
ROOT
HETATM    1  C   UNL     1     -43.190 -52.547  13.036  1.00  0.00     0.240 C 
HETATM    2  O   UNL     1     -43.430 -53.005  11.918  1.00  0.00    -0.271 OA
HETATM    3  N   UNL     1     -41.904 -52.269  13.443  1.00  0.00    -0.359 N 
HETATM    4  H   UNL     1     -41.742 -51.867  14.358  1.00  0.00     0.162 HD
ENDROOT
BRANCH   1   5
HETATM    5  C   UNL     1     -44.298 -52.170  14.037  1.00  0.00     0.172 C 
HETATM    6  N   UNL     1     -44.509 -53.099  15.178  1.00  0.00    -0.396 N 
HETATM    7  C   UNL     1     -45.617 -52.621  16.035  1.00  0.00     0.118 C 
HETATM    8  C   UNL     1     -46.917 -52.268  15.298  1.00  0.00     0.020 C 
HETATM    9  C   UNL     1     -46.663 -51.278  14.176  1.00  0.00     0.004 C 
HETATM   10  C   UNL     1     -45.570 -51.805  13.257  1.00  0.00     0.035 C 
BRANCH   6  11
HETATM   11  C   UNL     1     -44.504 -54.570  15.032  1.00  0.00     0.071 C 
HETATM   12  C   UNL     1     -45.317 -55.177  13.884  1.00  0.00     0.031 C 
HETATM   13  C   UNL     1     -43.122 -55.227  15.071  1.00  0.00     0.031 C 
ENDBRANCH   6  11
ENDBRANCH   1   5
BRANCH   3  14
HETATM   14  C   UNL     1     -40.765 -52.475  12.560  1.00  0.00     0.130 C 
BRANCH  14  15
HETATM   15  C   UNL     1     -39.799 -51.286  12.523  1.00  0.00     0.096 C 
BRANCH  15  16
HETATM   16  C   UNL     1     -40.452 -50.060  11.964  1.00  0.00     0.084 A 
HETATM   17  N   UNL     1     -40.650 -49.829  10.680  1.00  0.00    -0.354 N 
HETATM   18  C   UNL     1     -41.280 -48.616  10.606  1.00  0.00     0.106 A 
ATOM     19  HN  UNL     1     -40.387 -50.433   9.901  1.00  0.00     0.166 HD
HETATM   20  C   UNL     1     -41.468 -48.093  11.861  1.00  0.00     0.108 A 
HETATM   21  N   UNL     1     -40.942 -49.019  12.719  1.00  0.00    -0.350 N 
HETATM   22  C   UNL     1     -40.931 -48.911  14.159  1.00  0.00     0.156 C 
ENDBRANCH  15  16
ENDBRANCH  14  15
ENDBRANCH   3  14
TORSDOF 5
ENDMDL
MODEL 6
REMARK VINA RESULT:      -5.6      2.467      3.992
REMARK  5 active torsions:
REMARK  status: ('A' for Active; 'I' for Inactive)
REMARK    1  A    between atoms: C_2  and  N_4 
REMARK    2  A    between atoms: C_9  and  C_10 
REMARK       I    between atoms: C_10  and  N_12 
REMARK    3  A    between atoms: N_12  and  C_13 
REMARK    4  A    between atoms: C_13  and  C_14 
REMARK    5  A    between atoms: C_14  and  C_15 
ROOT
HETATM    1  C   UNL     1     -42.344 -50.471  12.654  1.00  0.00     0.240 C 
HETATM    2  O   UNL     1     -42.627 -49.593  13.470  1.00  0.00    -0.271 OA
HETATM    3  N   UNL     1     -41.677 -50.182  11.484  1.00  0.00    -0.359 N 
HETATM    4  H   UNL     1     -41.434 -50.931  10.846  1.00  0.00     0.162 HD
ENDROOT
BRANCH   1   5
HETATM    5  C   UNL     1     -42.635 -51.962  12.902  1.00  0.00     0.172 C 
HETATM    6  N   UNL     1     -44.030 -52.418  12.663  1.00  0.00    -0.396 N 
HETATM    7  C   UNL     1     -44.160 -53.861  12.966  1.00  0.00     0.118 C 
HETATM    8  C   UNL     1     -43.606 -54.303  14.328  1.00  0.00     0.020 C 
HETATM    9  C   UNL     1     -42.165 -53.862  14.507  1.00  0.00     0.004 C 
HETATM   10  C   UNL     1     -42.047 -52.365  14.262  1.00  0.00     0.035 C 
BRANCH   6  11
HETATM   11  C   UNL     1     -45.214 -51.644  13.089  1.00  0.00     0.071 C 
HETATM   12  C   UNL     1     -46.558 -51.973  12.431  1.00  0.00     0.031 C 
HETATM   13  C   UNL     1     -45.412 -51.531  14.603  1.00  0.00     0.031 C 
ENDBRANCH   6  11
ENDBRANCH   1   5
BRANCH   3  14
HETATM   14  C   UNL     1     -41.244 -48.829  11.168  1.00  0.00     0.130 C 
BRANCH  14  15
HETATM   15  C   UNL     1     -40.045 -48.362  11.999  1.00  0.00     0.096 C 
BRANCH  15  16
HETATM   16  C   UNL     1     -38.932 -49.364  11.976  1.00  0.00     0.084 A 
HETATM   17  N   UNL     1     -38.212 -49.668  10.912  1.00  0.00    -0.354 N 
HETATM   18  C   UNL     1     -37.306 -50.607  11.325  1.00  0.00     0.106 A 
ATOM     19  HN  UNL     1     -38.311 -49.281   9.974  1.00  0.00     0.166 HD
HETATM   20  C   UNL     1     -37.473 -50.887  12.658  1.00  0.00     0.108 A 
HETATM   21  N   UNL     1     -38.507 -50.089  13.066  1.00  0.00    -0.350 N 
HETATM   22  C   UNL     1     -39.030 -50.023  14.410  1.00  0.00     0.156 C 
ENDBRANCH  15  16
ENDBRANCH  14  15
ENDBRANCH   3  14
TORSDOF 5
ENDMDL
MODEL 7
REMARK VINA RESULT:      -5.6      2.869      4.709
REMARK  5 active torsions:
REMARK  status: ('A' for Active; 'I' for Inactive)
REMARK    1  A    between atoms: C_2  and  N_4 
REMARK    2  A    between atoms: C_9  and  C_10 
REMARK       I    between atoms: C_10  and  N_12 
REMARK    3  A    between atoms: N_12  and  C_13 
REMARK    4  A    between atoms: C_13  and  C_14 
REMARK    5  A    between atoms: C_14  and  C_15 
ROOT
HETATM    1  C   UNL     1     -43.128 -50.793  14.262  1.00  0.00     0.240 C 
HETATM    2  O   UNL     1     -42.160 -50.475  14.955  1.00  0.00    -0.271 OA
HETATM    3  N   UNL     1     -43.123 -50.629  12.895  1.00  0.00    -0.359 N 
HETATM    4  H   UNL     1     -43.924 -50.926  12.350  1.00  0.00     0.162 HD
ENDROOT
BRANCH   1   5
HETATM    5  C   UNL     1     -44.381 -51.472  14.844  1.00  0.00     0.172 C 
HETATM    6  N   UNL     1     -44.251 -52.906  15.216  1.00  0.00    -0.396 N 
HETATM    7  C   UNL     1     -45.536 -53.424  15.734  1.00  0.00     0.118 C 
HETATM    8  C   UNL     1     -46.765 -53.138  14.860  1.00  0.00     0.020 C 
HETATM    9  C   UNL     1     -46.888 -51.657  14.549  1.00  0.00     0.004 C 
HETATM   10  C   UNL     1     -45.587 -51.143  13.951  1.00  0.00     0.035 C 
BRANCH   6  11
HETATM   11  C   UNL     1     -43.543 -53.895  14.376  1.00  0.00     0.071 C 
HETATM   12  C   UNL     1     -43.168 -55.236  15.013  1.00  0.00     0.031 C 
HETATM   13  C   UNL     1     -44.165 -54.149  13.000  1.00  0.00     0.031 C 
ENDBRANCH   6  11
ENDBRANCH   1   5
BRANCH   3  14
HETATM   14  C   UNL     1     -41.962 -50.098  12.195  1.00  0.00     0.130 C 
BRANCH  14  15
HETATM   15  C   UNL     1     -40.982 -51.181  11.731  1.00  0.00     0.096 C 
BRANCH  15  16
HETATM   16  C   UNL     1     -39.559 -50.748  11.897  1.00  0.00     0.084 A 
HETATM   17  N   UNL     1     -38.917 -49.935  11.078  1.00  0.00    -0.354 N 
HETATM   18  C   UNL     1     -37.658 -49.792  11.597  1.00  0.00     0.106 A 
ATOM     19  HN  UNL     1     -39.285 -49.502  10.231  1.00  0.00     0.166 HD
HETATM   20  C   UNL     1     -37.524 -50.529  12.747  1.00  0.00     0.108 A 
HETATM   21  N   UNL     1     -38.738 -51.130  12.933  1.00  0.00    -0.350 N 
HETATM   22  C   UNL     1     -39.081 -51.995  14.037  1.00  0.00     0.156 C 
ENDBRANCH  15  16
ENDBRANCH  14  15
ENDBRANCH   3  14
TORSDOF 5
ENDMDL
MODEL 8
REMARK VINA RESULT:      -5.4      3.534      4.761
REMARK  5 active torsions:
REMARK  status: ('A' for Active; 'I' for Inactive)
REMARK    1  A    between atoms: C_2  and  N_4 
REMARK    2  A    between atoms: C_9  and  C_10 
REMARK       I    between atoms: C_10  and  N_12 
REMARK    3  A    between atoms: N_12  and  C_13 
REMARK    4  A    between atoms: C_13  and  C_14 
REMARK    5  A    between atoms: C_14  and  C_15 
ROOT
HETATM    1  C   UNL     1     -42.593 -53.146  12.729  1.00  0.00     0.240 C 
HETATM    2  O   UNL     1     -42.189 -52.358  11.872  1.00  0.00    -0.271 OA
HETATM    3  N   UNL     1     -41.722 -53.844  13.536  1.00  0.00    -0.359 N 
HETATM    4  H   UNL     1     -42.086 -54.464  14.250  1.00  0.00     0.162 HD
ENDROOT
BRANCH   1   5
HETATM    5  C   UNL     1     -44.088 -53.355  13.028  1.00  0.00     0.172 C 
HETATM    6  N   UNL     1     -44.837 -52.177  13.541  1.00  0.00    -0.396 N 
HETATM    7  C   UNL     1     -46.248 -52.537  13.805  1.00  0.00     0.118 C 
HETATM    8  C   UNL     1     -46.461 -53.801  14.650  1.00  0.00     0.020 C 
HETATM    9  C   UNL     1     -45.723 -54.988  14.061  1.00  0.00     0.004 C 
HETATM   10  C   UNL     1     -44.256 -54.638  13.856  1.00  0.00     0.035 C 
BRANCH   6  11
HETATM   11  C   UNL     1     -44.290 -51.257  14.560  1.00  0.00     0.071 C 
HETATM   12  C   UNL     1     -43.600 -49.979  14.074  1.00  0.00     0.031 C 
HETATM   13  C   UNL     1     -45.245 -50.907  15.704  1.00  0.00     0.031 C 
ENDBRANCH   6  11
ENDBRANCH   1   5
BRANCH   3  14
HETATM   14  C   UNL     1     -40.281 -53.664  13.437  1.00  0.00     0.130 C 
BRANCH  14  15
HETATM   15  C   UNL     1     -39.750 -52.515  14.300  1.00  0.00     0.096 C 
BRANCH  15  16
HETATM   16  C   UNL     1     -39.158 -51.423  13.464  1.00  0.00     0.084 A 
HETATM   17  N   UNL     1     -39.474 -51.180  12.205  1.00  0.00    -0.354 N 
HETATM   18  C   UNL     1     -38.721 -50.101  11.828  1.00  0.00     0.106 A 
ATOM     19  HN  UNL     1     -40.142 -51.693  11.631  1.00  0.00     0.166 HD
HETATM   20  C   UNL     1     -37.931 -49.676  12.867  1.00  0.00     0.108 A 
HETATM   21  N   UNL     1     -38.218 -50.520  13.905  1.00  0.00    -0.350 N 
HETATM   22  C   UNL     1     -37.638 -50.446  15.225  1.00  0.00     0.156 C 
ENDBRANCH  15  16
ENDBRANCH  14  15
ENDBRANCH   3  14
TORSDOF 5
ENDMDL
MODEL 9
REMARK VINA RESULT:      -5.3      1.743      2.423
REMARK  5 active torsions:
REMARK  status: ('A' for Active; 'I' for Inactive)
REMARK    1  A    between atoms: C_2  and  N_4 
REMARK    2  A    between atoms: C_9  and  C_10 
REMARK       I    between atoms: C_10  and  N_12 
REMARK    3  A    between atoms: N_12  and  C_13 
REMARK    4  A    between atoms: C_13  and  C_14 
REMARK    5  A    between atoms: C_14  and  C_15 
ROOT
HETATM    1  C   UNL     1     -42.510 -52.586  12.942  1.00  0.00     0.240 C 
HETATM    2  O   UNL     1     -41.572 -53.125  13.531  1.00  0.00    -0.271 OA
HETATM    3  N   UNL     1     -42.307 -51.570  12.036  1.00  0.00    -0.359 N 
HETATM    4  H   UNL     1     -43.096 -51.166  11.547  1.00  0.00     0.162 HD
ENDROOT
BRANCH   1   5
HETATM    5  C   UNL     1     -43.970 -53.050  13.102  1.00  0.00     0.172 C 
HETATM    6  N   UNL     1     -44.902 -52.099  13.763  1.00  0.00    -0.396 N 
HETATM    7  C   UNL     1     -46.255 -52.691  13.868  1.00  0.00     0.118 C 
HETATM    8  C   UNL     1     -46.313 -54.105  14.463  1.00  0.00     0.020 C 
HETATM    9  C   UNL     1     -45.387 -55.053  13.724  1.00  0.00     0.004 C 
HETATM   10  C   UNL     1     -43.980 -54.473  13.680  1.00  0.00     0.035 C 
BRANCH   6  11
HETATM   11  C   UNL     1     -44.537 -51.314  14.961  1.00  0.00     0.071 C 
HETATM   12  C   UNL     1     -43.759 -50.012  14.753  1.00  0.00     0.031 C 
HETATM   13  C   UNL     1     -45.677 -51.065  15.952  1.00  0.00     0.031 C 
ENDBRANCH   6  11
ENDBRANCH   1   5
BRANCH   3  14
HETATM   14  C   UNL     1     -40.968 -51.101  11.705  1.00  0.00     0.130 C 
BRANCH  14  15
HETATM   15  C   UNL     1     -40.647 -49.719  12.281  1.00  0.00     0.096 C 
BRANCH  15  16
HETATM   16  C   UNL     1     -41.203 -48.621  11.429  1.00  0.00     0.084 A 
HETATM   17  N   UNL     1     -42.157 -48.772  10.530  1.00  0.00    -0.354 N 
HETATM   18  C   UNL     1     -42.372 -47.531   9.993  1.00  0.00     0.106 A 
ATOM     19  HN  UNL     1     -42.637 -49.639  10.285  1.00  0.00     0.166 HD
HETATM   20  C   UNL     1     -41.536 -46.606  10.566  1.00  0.00     0.108 A 
HETATM   21  N   UNL     1     -40.799 -47.306  11.481  1.00  0.00    -0.350 N 
HETATM   22  C   UNL     1     -39.793 -46.741  12.349  1.00  0.00     0.156 C 
ENDBRANCH  15  16
ENDBRANCH  14  15
ENDBRANCH   3  14
TORSDOF 5
ENDMDL
