MODEL 1
REMARK VINA RESULT:      -5.3      0.000      0.000
REMARK  3 active torsions:
REMARK  status: ('A' for Active; 'I' for Inactive)
REMARK    1  A    between atoms: C_5  and  C_6 
REMARK    2  A    between atoms: C_6  and  C_7 
REMARK    3  A    between atoms: C_7  and  N_8 
REMARK       I    between atoms: N_8  and  C_9 
REMARK       I    between atoms: C_9  and  N_11 
ROOT
HETATM    1  C   UNL     1     -40.327 -49.943  11.105  1.00  0.00     0.130 C 
ENDROOT
BRANCH   1   2
HETATM    2  C   UNL     1     -40.707 -48.564  11.653  1.00  0.00     0.077 C 
BRANCH   2   3
HETATM    3  C   UNL     1     -41.657 -47.835  10.758  1.00  0.00     0.018 A 
HETATM    4  N   UNL     1     -42.049 -48.426   9.567  1.00  0.00    -0.357 N 
HETATM    5  C   UNL     1     -42.860 -47.624   8.912  1.00  0.00     0.046 A 
ATOM      6  HN  UNL     1     -41.751 -49.347   9.246  1.00  0.00     0.166 HD
HETATM    7  C   UNL     1     -43.469 -47.935   7.590  1.00  0.00     0.076 C 
HETATM    8  S   UNL     1     -43.203 -46.125   9.680  1.00  0.00    -0.087 SA
HETATM    9  C   UNL     1     -42.193 -46.580  10.984  1.00  0.00     0.076 A 
ENDBRANCH   2   3
ENDBRANCH   1   2
BRANCH   1  10
HETATM   10  N   UNL     1     -41.233 -51.005  11.523  1.00  0.00    -0.343 N 
HETATM   11  C   UNL     1     -40.777 -52.065  12.262  1.00  0.00     0.318 C 
HETATM   12  O   UNL     1     -39.589 -52.241  12.519  1.00  0.00    -0.247 OA
HETATM   13  N   UNL     1     -41.735 -52.933  12.669  1.00  0.00    -0.334 N 
HETATM   14  C   UNL     1     -41.588 -54.177  13.400  1.00  0.00     0.129 C 
HETATM   15  C   UNL     1     -43.173 -53.026  12.578  1.00  0.00     0.129 C 
HETATM   16  C   UNL     1     -43.069 -54.005  13.761  1.00  0.00     0.040 C 
HETATM   17  H   UNL     1     -42.198 -50.757  11.668  1.00  0.00     0.164 HD
ENDBRANCH   1  10
TORSDOF 3
ENDMDL
MODEL 2
REMARK VINA RESULT:      -5.3      1.428      1.505
REMARK  3 active torsions:
REMARK  status: ('A' for Active; 'I' for Inactive)
REMARK    1  A    between atoms: C_5  and  C_6 
REMARK    2  A    between atoms: C_6  and  C_7 
REMARK    3  A    between atoms: C_7  and  N_8 
REMARK       I    between atoms: N_8  and  C_9 
REMARK       I    between atoms: C_9  and  N_11 
ROOT
HETATM    1  C   UNL     1     -41.410 -49.077  11.421  1.00  0.00     0.130 C 
ENDROOT
BRANCH   1   2
HETATM    2  C   UNL     1     -42.304 -47.924  11.891  1.00  0.00     0.077 C 
BRANCH   2   3
HETATM    3  C   UNL     1     -43.156 -47.376  10.792  1.00  0.00     0.018 A 
HETATM    4  N   UNL     1     -44.335 -48.028  10.463  1.00  0.00    -0.357 N 
HETATM    5  C   UNL     1     -44.926 -47.412   9.462  1.00  0.00     0.046 A 
ATOM      6  HN  UNL     1     -44.691 -48.863  10.929  1.00  0.00     0.166 HD
HETATM    7  C   UNL     1     -46.210 -47.843   8.846  1.00  0.00     0.076 C 
HETATM    8  S   UNL     1     -44.114 -46.022   8.861  1.00  0.00    -0.087 SA
HETATM    9  C   UNL     1     -42.880 -46.260  10.023  1.00  0.00     0.076 A 
ENDBRANCH   2   3
ENDBRANCH   1   2
BRANCH   1  10
HETATM   10  N   UNL     1     -41.951 -50.395  11.726  1.00  0.00    -0.343 N 
HETATM   11  C   UNL     1     -41.133 -51.405  12.158  1.00  0.00     0.318 C 
HETATM   12  O   UNL     1     -39.910 -51.301  12.209  1.00  0.00    -0.247 OA
HETATM   13  N   UNL     1     -41.771 -52.551  12.500  1.00  0.00    -0.334 N 
HETATM   14  C   UNL     1     -41.205 -53.816  12.928  1.00  0.00     0.129 C 
HETATM   15  C   UNL     1     -43.139 -53.004  12.588  1.00  0.00     0.129 C 
HETATM   16  C   UNL     1     -42.593 -54.105  13.515  1.00  0.00     0.040 C 
HETATM   17  H   UNL     1     -42.904 -50.438  12.049  1.00  0.00     0.164 HD
ENDBRANCH   1  10
TORSDOF 3
ENDMDL
MODEL 3
REMARK VINA RESULT:      -5.0      2.762      5.928
REMARK  3 active torsions:
REMARK  status: ('A' for Active; 'I' for Inactive)
REMARK    1  A    between atoms: C_5  and  C_6 
REMARK    2  A    between atoms: C_6  and  C_7 
REMARK    3  A    between atoms: C_7  and  N_8 
REMARK       I    between atoms: N_8  and  C_9 
REMARK       I    between atoms: C_9  and  N_11 
ROOT
HETATM    1  C   UNL     1     -40.413 -48.447  11.547  1.00  0.00     0.130 C 
ENDROOT
BRANCH   1   2
HETATM    2  C   UNL     1     -39.867 -49.841  11.219  1.00  0.00     0.077 C 
BRANCH   2   3
HETATM    3  C   UNL     1     -40.507 -50.913  12.041  1.00  0.00     0.018 A 
HETATM    4  N   UNL     1     -41.772 -51.363  11.695  1.00  0.00    -0.357 N 
HETATM    5  C   UNL     1     -42.172 -52.283  12.546  1.00  0.00     0.046 A 
ATOM      6  HN  UNL     1     -42.313 -51.030  10.897  1.00  0.00     0.166 HD
HETATM    7  C   UNL     1     -43.485 -52.979  12.481  1.00  0.00     0.076 C 
HETATM    8  S   UNL     1     -41.063 -52.664  13.802  1.00  0.00    -0.087 SA
HETATM    9  C   UNL     1     -39.967 -51.516  13.163  1.00  0.00     0.076 A 
ENDBRANCH   2   3
ENDBRANCH   1   2
BRANCH   1  10
HETATM   10  N   UNL     1     -41.371 -47.952  10.567  1.00  0.00    -0.343 N 
HETATM   11  C   UNL     1     -42.719 -48.041  10.798  1.00  0.00     0.318 C 
HETATM   12  O   UNL     1     -43.195 -48.625  11.768  1.00  0.00    -0.247 OA
HETATM   13  N   UNL     1     -43.500 -47.459   9.856  1.00  0.00    -0.334 N 
HETATM   14  C   UNL     1     -44.947 -47.429   9.763  1.00  0.00     0.129 C 
HETATM   15  C   UNL     1     -43.295 -46.693   8.649  1.00  0.00     0.129 C 
HETATM   16  C   UNL     1     -44.747 -46.221   8.839  1.00  0.00     0.040 C 
HETATM   17  H   UNL     1     -41.079 -47.186   9.983  1.00  0.00     0.164 HD
ENDBRANCH   1  10
TORSDOF 3
ENDMDL
MODEL 4
REMARK VINA RESULT:      -5.0      3.332      5.138
REMARK  3 active torsions:
REMARK  status: ('A' for Active; 'I' for Inactive)
REMARK    1  A    between atoms: C_5  and  C_6 
REMARK    2  A    between atoms: C_6  and  C_7 
REMARK    3  A    between atoms: C_7  and  N_8 
REMARK       I    between atoms: N_8  and  C_9 
REMARK       I    between atoms: C_9  and  N_11 
ROOT
HETATM    1  C   UNL     1     -42.128 -54.434  13.998  1.00  0.00     0.130 C 
ENDROOT
BRANCH   1   2
HETATM    2  C   UNL     1     -41.093 -54.211  12.890  1.00  0.00     0.077 C 
BRANCH   2   3
HETATM    3  C   UNL     1     -40.531 -52.826  12.903  1.00  0.00     0.018 A 
HETATM    4  N   UNL     1     -40.825 -51.969  11.854  1.00  0.00    -0.357 N 
HETATM    5  C   UNL     1     -40.221 -50.814  12.034  1.00  0.00     0.046 A 
ATOM      6  HN  UNL     1     -41.421 -52.200  11.060  1.00  0.00     0.166 HD
HETATM    7  C   UNL     1     -40.310 -49.660  11.097  1.00  0.00     0.076 C 
HETATM    8  S   UNL     1     -39.274 -50.685  13.462  1.00  0.00    -0.087 SA
HETATM    9  C   UNL     1     -39.701 -52.290  13.872  1.00  0.00     0.076 A 
ENDBRANCH   2   3
ENDBRANCH   1   2
BRANCH   1  10
HETATM   10  N   UNL     1     -43.134 -53.382  14.075  1.00  0.00    -0.343 N 
HETATM   11  C   UNL     1     -44.263 -53.434  13.301  1.00  0.00     0.318 C 
HETATM   12  O   UNL     1     -44.445 -54.289  12.437  1.00  0.00    -0.247 OA
HETATM   13  N   UNL     1     -45.163 -52.449  13.537  1.00  0.00    -0.334 N 
HETATM   14  C   UNL     1     -46.416 -52.177  12.857  1.00  0.00     0.129 C 
HETATM   15  C   UNL     1     -45.290 -51.340  14.453  1.00  0.00     0.129 C 
HETATM   16  C   UNL     1     -46.791 -51.382  14.114  1.00  0.00     0.040 C 
HETATM   17  H   UNL     1     -43.230 -52.901  14.954  1.00  0.00     0.164 HD
ENDBRANCH   1  10
TORSDOF 3
ENDMDL
MODEL 5
REMARK VINA RESULT:      -4.9      4.152      5.866
REMARK  3 active torsions:
REMARK  status: ('A' for Active; 'I' for Inactive)
REMARK    1  A    between atoms: C_5  and  C_6 
REMARK    2  A    between atoms: C_6  and  C_7 
REMARK    3  A    between atoms: C_7  and  N_8 
REMARK       I    between atoms: N_8  and  C_9 
REMARK       I    between atoms: C_9  and  N_11 
ROOT
HETATM    1  C   UNL     1     -41.461 -53.123  14.211  1.00  0.00     0.130 C 
ENDROOT
BRANCH   1   2
HETATM    2  C   UNL     1     -42.279 -53.800  13.106  1.00  0.00     0.077 C 
BRANCH   2   3
HETATM    3  C   UNL     1     -43.751 -53.604  13.283  1.00  0.00     0.018 A 
HETATM    4  N   UNL     1     -44.427 -52.759  12.417  1.00  0.00    -0.357 N 
HETATM    5  C   UNL     1     -45.699 -52.699  12.749  1.00  0.00     0.046 A 
ATOM      6  HN  UNL     1     -44.002 -52.258  11.638  1.00  0.00     0.166 HD
HETATM    7  C   UNL     1     -46.719 -51.880  12.039  1.00  0.00     0.076 C 
HETATM    8  S   UNL     1     -46.158 -53.648  14.106  1.00  0.00    -0.087 SA
HETATM    9  C   UNL     1     -44.539 -54.178  14.264  1.00  0.00     0.076 A 
ENDBRANCH   2   3
ENDBRANCH   1   2
BRANCH   1  10
HETATM   10  N   UNL     1     -40.627 -52.029  13.730  1.00  0.00    -0.343 N 
HETATM   11  C   UNL     1     -39.297 -52.226  13.464  1.00  0.00     0.318 C 
HETATM   12  O   UNL     1     -38.713 -53.278  13.710  1.00  0.00    -0.247 OA
HETATM   13  N   UNL     1     -38.656 -51.158  12.931  1.00  0.00    -0.334 N 
HETATM   14  C   UNL     1     -37.253 -51.009  12.598  1.00  0.00     0.129 C 
HETATM   15  C   UNL     1     -39.015 -49.826  12.501  1.00  0.00     0.129 C 
HETATM   16  C   UNL     1     -37.710 -49.864  11.686  1.00  0.00     0.040 C 
HETATM   17  H   UNL     1     -41.078 -51.311  13.187  1.00  0.00     0.164 HD
ENDBRANCH   1  10
TORSDOF 3
ENDMDL
MODEL 6
REMARK VINA RESULT:      -4.9      1.963      2.165
REMARK  3 active torsions:
REMARK  status: ('A' for Active; 'I' for Inactive)
REMARK    1  A    between atoms: C_5  and  C_6 
REMARK    2  A    between atoms: C_6  and  C_7 
REMARK    3  A    between atoms: C_7  and  N_8 
REMARK       I    between atoms: N_8  and  C_9 
REMARK       I    between atoms: C_9  and  N_11 
ROOT
HETATM    1  C   UNL     1     -40.746 -49.588  11.146  1.00  0.00     0.130 C 
ENDROOT
BRANCH   1   2
HETATM    2  C   UNL     1     -40.657 -48.517  12.239  1.00  0.00     0.077 C 
BRANCH   2   3
HETATM    3  C   UNL     1     -40.716 -47.129  11.687  1.00  0.00     0.018 A 
HETATM    4  N   UNL     1     -39.768 -46.733  10.756  1.00  0.00    -0.357 N 
HETATM    5  C   UNL     1     -39.971 -45.479  10.413  1.00  0.00     0.046 A 
ATOM      6  HN  UNL     1     -39.023 -47.326  10.392  1.00  0.00     0.166 HD
HETATM    7  C   UNL     1     -39.136 -44.726   9.438  1.00  0.00     0.076 C 
HETATM    8  S   UNL     1     -41.302 -44.706  11.176  1.00  0.00    -0.087 SA
HETATM    9  C   UNL     1     -41.633 -46.152  12.029  1.00  0.00     0.076 A 
ENDBRANCH   2   3
ENDBRANCH   1   2
BRANCH   1  10
HETATM   10  N   UNL     1     -41.573 -50.729  11.515  1.00  0.00    -0.343 N 
HETATM   11  C   UNL     1     -41.025 -51.818  12.140  1.00  0.00     0.318 C 
HETATM   12  O   UNL     1     -39.818 -51.947  12.326  1.00  0.00    -0.247 OA
HETATM   13  N   UNL     1     -41.914 -52.769  12.517  1.00  0.00    -0.334 N 
HETATM   14  C   UNL     1     -41.665 -54.058  13.134  1.00  0.00     0.129 C 
HETATM   15  C   UNL     1     -43.349 -52.935  12.486  1.00  0.00     0.129 C 
HETATM   16  C   UNL     1     -43.133 -54.000  13.577  1.00  0.00     0.040 C 
HETATM   17  H   UNL     1     -42.541 -50.548  11.726  1.00  0.00     0.164 HD
ENDBRANCH   1  10
TORSDOF 3
ENDMDL
MODEL 7
REMARK VINA RESULT:      -4.7      1.386      1.508
REMARK  3 active torsions:
REMARK  status: ('A' for Active; 'I' for Inactive)
REMARK    1  A    between atoms: C_5  and  C_6 
REMARK    2  A    between atoms: C_6  and  C_7 
REMARK    3  A    between atoms: C_7  and  N_8 
REMARK       I    between atoms: N_8  and  C_9 
REMARK       I    between atoms: C_9  and  N_11 
ROOT
HETATM    1  C   UNL     1     -41.416 -50.019  12.462  1.00  0.00     0.130 C 
ENDROOT
BRANCH   1   2
HETATM    2  C   UNL     1     -40.922 -49.549  11.089  1.00  0.00     0.077 C 
BRANCH   2   3
HETATM    3  C   UNL     1     -41.514 -48.236  10.688  1.00  0.00     0.018 A 
HETATM    4  N   UNL     1     -42.642 -48.222   9.883  1.00  0.00    -0.357 N 
HETATM    5  C   UNL     1     -42.993 -46.982   9.620  1.00  0.00     0.046 A 
ATOM      6  HN  UNL     1     -43.128 -49.052   9.545  1.00  0.00     0.166 HD
HETATM    7  C   UNL     1     -44.157 -46.595   8.778  1.00  0.00     0.076 C 
HETATM    8  S   UNL     1     -42.001 -45.765  10.319  1.00  0.00    -0.087 SA
HETATM    9  C   UNL     1     -41.030 -46.984  11.026  1.00  0.00     0.076 A 
ENDBRANCH   2   3
ENDBRANCH   1   2
BRANCH   1  10
HETATM   10  N   UNL     1     -42.295 -51.180  12.397  1.00  0.00    -0.343 N 
HETATM   11  C   UNL     1     -42.204 -52.181  13.328  1.00  0.00     0.318 C 
HETATM   12  O   UNL     1     -41.328 -52.218  14.188  1.00  0.00    -0.247 OA
HETATM   13  N   UNL     1     -43.140 -53.154  13.215  1.00  0.00    -0.334 N 
HETATM   14  C   UNL     1     -43.286 -54.373  13.986  1.00  0.00     0.129 C 
HETATM   15  C   UNL     1     -44.289 -53.413  12.378  1.00  0.00     0.129 C 
HETATM   16  C   UNL     1     -44.738 -54.375  13.493  1.00  0.00     0.040 C 
HETATM   17  H   UNL     1     -43.207 -51.044  11.991  1.00  0.00     0.164 HD
ENDBRANCH   1  10
TORSDOF 3
ENDMDL
MODEL 8
REMARK VINA RESULT:      -4.5      2.869      4.258
REMARK  3 active torsions:
REMARK  status: ('A' for Active; 'I' for Inactive)
REMARK    1  A    between atoms: C_5  and  C_6 
REMARK    2  A    between atoms: C_6  and  C_7 
REMARK    3  A    between atoms: C_7  and  N_8 
REMARK       I    between atoms: N_8  and  C_9 
REMARK       I    between atoms: C_9  and  N_11 
ROOT
HETATM    1  C   UNL     1     -40.381 -49.846  11.216  1.00  0.00     0.130 C 
ENDROOT
BRANCH   1   2
HETATM    2  C   UNL     1     -40.572 -48.580  12.058  1.00  0.00     0.077 C 
BRANCH   2   3
HETATM    3  C   UNL     1     -39.466 -48.376  13.043  1.00  0.00     0.018 A 
HETATM    4  N   UNL     1     -38.792 -49.481  13.538  1.00  0.00    -0.357 N 
HETATM    5  C   UNL     1     -37.878 -49.100  14.404  1.00  0.00     0.046 A 
ATOM      6  HN  UNL     1     -38.977 -50.447  13.271  1.00  0.00     0.166 HD
HETATM    7  C   UNL     1     -36.972 -50.025  15.137  1.00  0.00     0.076 C 
HETATM    8  S   UNL     1     -37.769 -47.406  14.673  1.00  0.00    -0.087 SA
HETATM    9  C   UNL     1     -39.037 -47.162  13.550  1.00  0.00     0.076 A 
ENDBRANCH   2   3
ENDBRANCH   1   2
BRANCH   1  10
HETATM   10  N   UNL     1     -41.311 -50.915  11.553  1.00  0.00    -0.343 N 
HETATM   11  C   UNL     1     -40.889 -52.016  12.252  1.00  0.00     0.318 C 
HETATM   12  O   UNL     1     -39.711 -52.219  12.535  1.00  0.00    -0.247 OA
HETATM   13  N   UNL     1     -41.868 -52.891  12.587  1.00  0.00    -0.334 N 
HETATM   14  C   UNL     1     -41.756 -54.171  13.259  1.00  0.00     0.129 C 
HETATM   15  C   UNL     1     -43.304 -52.962  12.449  1.00  0.00     0.129 C 
HETATM   16  C   UNL     1     -43.246 -53.999  13.584  1.00  0.00     0.040 C 
HETATM   17  H   UNL     1     -42.277 -50.662  11.682  1.00  0.00     0.164 HD
ENDBRANCH   1  10
TORSDOF 3
ENDMDL
MODEL 9
REMARK VINA RESULT:      -4.5      2.895      6.634
REMARK  3 active torsions:
REMARK  status: ('A' for Active; 'I' for Inactive)
REMARK    1  A    between atoms: C_5  and  C_6 
REMARK    2  A    between atoms: C_6  and  C_7 
REMARK    3  A    between atoms: C_7  and  N_8 
REMARK       I    between atoms: N_8  and  C_9 
REMARK       I    between atoms: C_9  and  N_11 
ROOT
HETATM    1  C   UNL     1     -41.590 -50.587  12.438  1.00  0.00     0.130 C 
ENDROOT
BRANCH   1   2
HETATM    2  C   UNL     1     -41.690 -51.993  11.838  1.00  0.00     0.077 C 
BRANCH   2   3
HETATM    3  C   UNL     1     -42.600 -52.886  12.619  1.00  0.00     0.018 A 
HETATM    4  N   UNL     1     -42.083 -53.616  13.677  1.00  0.00    -0.357 N 
HETATM    5  C   UNL     1     -43.026 -54.355  14.219  1.00  0.00     0.046 A 
ATOM      6  HN  UNL     1     -41.112 -53.586  13.989  1.00  0.00     0.166 HD
HETATM    7  C   UNL     1     -42.823 -55.271  15.374  1.00  0.00     0.076 C 
HETATM    8  S   UNL     1     -44.581 -54.217  13.501  1.00  0.00    -0.087 SA
HETATM    9  C   UNL     1     -43.948 -53.088  12.382  1.00  0.00     0.076 A 
ENDBRANCH   2   3
ENDBRANCH   1   2
BRANCH   1  10
HETATM   10  N   UNL     1     -42.449 -49.611  11.781  1.00  0.00    -0.343 N 
HETATM   11  C   UNL     1     -41.913 -48.527  11.136  1.00  0.00     0.318 C 
HETATM   12  O   UNL     1     -40.716 -48.256  11.164  1.00  0.00    -0.247 OA
HETATM   13  N   UNL     1     -42.811 -47.749  10.484  1.00  0.00    -0.334 N 
HETATM   14  C   UNL     1     -42.590 -46.507   9.767  1.00  0.00     0.129 C 
HETATM   15  C   UNL     1     -44.232 -47.775  10.226  1.00  0.00     0.129 C 
HETATM   16  C   UNL     1     -43.922 -46.808   9.069  1.00  0.00     0.040 C 
HETATM   17  H   UNL     1     -43.329 -49.942  11.418  1.00  0.00     0.164 HD
ENDBRANCH   1  10
TORSDOF 3
ENDMDL
