MODEL 1
REMARK VINA RESULT:      -5.8      0.000      0.000
REMARK  2 active torsions:
REMARK  status: ('A' for Active; 'I' for Inactive)
REMARK       I    between atoms: N_8  and  C_9 
REMARK       I    between atoms: C_9  and  N_11 
REMARK    1  A    between atoms: N_11  and  C_12 
REMARK    2  A    between atoms: C_12  and  C_13 
ROOT
HETATM    1  C   UNL     1     -38.865 -50.440  12.362  1.00  0.00     0.078 C 
HETATM    2  C   UNL     1     -40.193 -51.091  12.261  1.00  0.00     0.066 A 
HETATM    3  N   UNL     1     -41.314 -50.455  11.987  1.00  0.00    -0.296 N 
ATOM      4  HN  UNL     1     -41.367 -49.461  11.765  1.00  0.00     0.187 HD
HETATM    5  N   UNL     1     -42.403 -51.291  12.035  1.00  0.00    -0.279 N 
ATOM      6  HN  UNL     1     -43.362 -50.989  11.864  1.00  0.00     0.189 HD
HETATM    7  C   UNL     1     -42.063 -52.525  12.329  1.00  0.00     0.169 A 
HETATM    8  N   UNL     1     -42.883 -53.600  12.511  1.00  0.00    -0.288 N 
HETATM    9  C   UNL     1     -44.244 -53.538  12.564  1.00  0.00     0.322 C 
HETATM   10  O   UNL     1     -44.897 -54.570  12.703  1.00  0.00    -0.247 OA
HETATM   11  N   UNL     1     -44.812 -52.300  12.512  1.00  0.00    -0.342 N 
HETATM   12  S   UNL     1     -40.392 -52.783  12.529  1.00  0.00    -0.038 SA
HETATM   13  H   UNL     1     -42.472 -54.511  12.654  1.00  0.00     0.172 HD
HETATM   14  H   UNL     1     -44.208 -51.525  12.253  1.00  0.00     0.164 HD
ENDROOT
BRANCH  11  15
HETATM   15  C   UNL     1     -46.240 -52.084  12.588  1.00  0.00     0.131 C 
BRANCH  15  16
HETATM   16  C   UNL     1     -46.736 -51.698  13.979  1.00  0.00     0.029 C 
HETATM   17  C   UNL     1     -45.720 -51.008  14.872  1.00  0.00     0.034 C 
HETATM   18  C   UNL     1     -46.130 -51.405  16.281  1.00  0.00     0.168 C 
HETATM   19  O   UNL     1     -47.220 -52.329  16.173  1.00  0.00    -0.391 OA
HETATM   20  C   UNL     1     -47.204 -52.855  14.841  1.00  0.00     0.173 C 
ENDBRANCH  15  16
ENDBRANCH  11  15
TORSDOF 2
ENDMDL
MODEL 2
REMARK VINA RESULT:      -5.5      2.143      2.658
REMARK  2 active torsions:
REMARK  status: ('A' for Active; 'I' for Inactive)
REMARK       I    between atoms: N_8  and  C_9 
REMARK       I    between atoms: C_9  and  N_11 
REMARK    1  A    between atoms: N_11  and  C_12 
REMARK    2  A    between atoms: C_12  and  C_13 
ROOT
HETATM    1  C   UNL     1     -40.430 -46.935  11.141  1.00  0.00     0.078 C 
HETATM    2  C   UNL     1     -40.755 -48.375  11.274  1.00  0.00     0.066 A 
HETATM    3  N   UNL     1     -41.953 -48.888  11.075  1.00  0.00    -0.296 N 
ATOM      4  HN  UNL     1     -42.759 -48.350  10.758  1.00  0.00     0.187 HD
HETATM    5  N   UNL     1     -41.985 -50.234  11.345  1.00  0.00    -0.279 N 
ATOM      6  HN  UNL     1     -42.821 -50.813  11.263  1.00  0.00     0.189 HD
HETATM    7  C   UNL     1     -40.813 -50.688  11.723  1.00  0.00     0.169 A 
HETATM    8  N   UNL     1     -40.490 -51.954  12.118  1.00  0.00    -0.288 N 
HETATM    9  C   UNL     1     -41.393 -52.954  12.332  1.00  0.00     0.322 C 
HETATM   10  O   UNL     1     -41.000 -54.072  12.658  1.00  0.00    -0.247 OA
HETATM   11  N   UNL     1     -42.714 -52.633  12.220  1.00  0.00    -0.342 N 
HETATM   12  S   UNL     1     -39.564 -49.531  11.741  1.00  0.00    -0.038 SA
HETATM   13  H   UNL     1     -39.524 -52.178  12.304  1.00  0.00     0.172 HD
HETATM   14  H   UNL     1     -42.936 -51.731  11.808  1.00  0.00     0.164 HD
ENDROOT
BRANCH  11  15
HETATM   15  C   UNL     1     -43.778 -53.585  12.448  1.00  0.00     0.131 C 
BRANCH  15  16
HETATM   16  C   UNL     1     -45.122 -52.944  12.784  1.00  0.00     0.029 C 
HETATM   17  C   UNL     1     -45.058 -51.531  13.338  1.00  0.00     0.034 C 
HETATM   18  C   UNL     1     -46.279 -51.426  14.237  1.00  0.00     0.168 C 
HETATM   19  O   UNL     1     -46.910 -52.712  14.266  1.00  0.00    -0.391 OA
HETATM   20  C   UNL     1     -45.942 -53.674  13.831  1.00  0.00     0.173 C 
ENDBRANCH  15  16
ENDBRANCH  11  15
TORSDOF 2
ENDMDL
MODEL 3
REMARK VINA RESULT:      -5.3      4.545      6.411
REMARK  2 active torsions:
REMARK  status: ('A' for Active; 'I' for Inactive)
REMARK       I    between atoms: N_8  and  C_9 
REMARK       I    between atoms: C_9  and  N_11 
REMARK    1  A    between atoms: N_11  and  C_12 
REMARK    2  A    between atoms: C_12  and  C_13 
ROOT
HETATM    1  C   UNL     1     -44.208 -54.162  12.853  1.00  0.00     0.078 C 
HETATM    2  C   UNL     1     -43.275 -53.023  12.670  1.00  0.00     0.066 A 
HETATM    3  N   UNL     1     -43.648 -51.762  12.587  1.00  0.00    -0.296 N 
ATOM      4  HN  UNL     1     -44.612 -51.444  12.695  1.00  0.00     0.187 HD
HETATM    5  N   UNL     1     -42.586 -50.928  12.338  1.00  0.00    -0.279 N 
ATOM      6  HN  UNL     1     -42.667 -49.918  12.229  1.00  0.00     0.189 HD
HETATM    7  C   UNL     1     -41.453 -51.587  12.256  1.00  0.00     0.169 A 
HETATM    8  N   UNL     1     -40.214 -51.092  11.970  1.00  0.00    -0.288 N 
HETATM    9  C   UNL     1     -39.963 -49.815  11.563  1.00  0.00     0.322 C 
HETATM   10  O   UNL     1     -38.806 -49.456  11.357  1.00  0.00    -0.247 OA
HETATM   11  N   UNL     1     -41.041 -49.007  11.353  1.00  0.00    -0.342 N 
HETATM   12  S   UNL     1     -41.575 -53.265  12.517  1.00  0.00    -0.038 SA
HETATM   13  H   UNL     1     -39.416 -51.709  12.021  1.00  0.00     0.172 HD
HETATM   14  H   UNL     1     -41.941 -49.342  11.686  1.00  0.00     0.164 HD
ENDROOT
BRANCH  11  15
HETATM   15  C   UNL     1     -40.924 -47.641  10.894  1.00  0.00     0.131 C 
BRANCH  15  16
HETATM   16  C   UNL     1     -42.257 -46.993  10.528  1.00  0.00     0.029 C 
HETATM   17  C   UNL     1     -42.964 -47.581   9.319  1.00  0.00     0.034 C 
HETATM   18  C   UNL     1     -43.746 -46.413   8.738  1.00  0.00     0.168 C 
HETATM   19  O   UNL     1     -43.413 -45.245   9.499  1.00  0.00    -0.391 OA
HETATM   20  C   UNL     1     -42.185 -45.517  10.185  1.00  0.00     0.173 C 
ENDBRANCH  15  16
ENDBRANCH  11  15
TORSDOF 2
ENDMDL
MODEL 4
REMARK VINA RESULT:      -5.3      3.536      5.012
REMARK  2 active torsions:
REMARK  status: ('A' for Active; 'I' for Inactive)
REMARK       I    between atoms: N_8  and  C_9 
REMARK       I    between atoms: C_9  and  N_11 
REMARK    1  A    between atoms: N_11  and  C_12 
REMARK    2  A    between atoms: C_12  and  C_13 
ROOT
HETATM    1  C   UNL     1     -42.768 -45.360  10.285  1.00  0.00     0.078 C 
HETATM    2  C   UNL     1     -42.122 -46.680  10.487  1.00  0.00     0.066 A 
HETATM    3  N   UNL     1     -42.714 -47.838  10.275  1.00  0.00    -0.296 N 
ATOM      4  HN  UNL     1     -43.657 -47.936   9.899  1.00  0.00     0.187 HD
HETATM    5  N   UNL     1     -41.909 -48.896  10.620  1.00  0.00    -0.279 N 
ATOM      6  HN  UNL     1     -42.187 -49.873  10.540  1.00  0.00     0.189 HD
HETATM    7  C   UNL     1     -40.739 -48.499  11.065  1.00  0.00     0.169 A 
HETATM    8  N   UNL     1     -39.718 -49.269  11.542  1.00  0.00    -0.288 N 
HETATM    9  C   UNL     1     -39.802 -50.609  11.779  1.00  0.00     0.322 C 
HETATM   10  O   UNL     1     -38.815 -51.220  12.183  1.00  0.00    -0.247 OA
HETATM   11  N   UNL     1     -41.020 -51.196  11.603  1.00  0.00    -0.342 N 
HETATM   12  S   UNL     1     -40.501 -46.813  11.062  1.00  0.00    -0.038 SA
HETATM   13  H   UNL     1     -38.841 -48.828  11.775  1.00  0.00     0.172 HD
HETATM   14  H   UNL     1     -41.733 -50.647  11.132  1.00  0.00     0.164 HD
ENDROOT
BRANCH  11  15
HETATM   15  C   UNL     1     -41.260 -52.601  11.846  1.00  0.00     0.131 C 
BRANCH  15  16
HETATM   16  C   UNL     1     -42.251 -52.875  12.975  1.00  0.00     0.029 C 
HETATM   17  C   UNL     1     -41.938 -54.079  13.847  1.00  0.00     0.034 C 
HETATM   18  C   UNL     1     -43.301 -54.565  14.314  1.00  0.00     0.168 C 
HETATM   19  O   UNL     1     -44.296 -53.764  13.665  1.00  0.00    -0.391 OA
HETATM   20  C   UNL     1     -43.675 -53.149  12.530  1.00  0.00     0.173 C 
ENDBRANCH  15  16
ENDBRANCH  11  15
TORSDOF 2
ENDMDL
MODEL 5
REMARK VINA RESULT:      -5.1      1.612      1.987
REMARK  2 active torsions:
REMARK  status: ('A' for Active; 'I' for Inactive)
REMARK       I    between atoms: N_8  and  C_9 
REMARK       I    between atoms: C_9  and  N_11 
REMARK    1  A    between atoms: N_11  and  C_12 
REMARK    2  A    between atoms: C_12  and  C_13 
ROOT
HETATM    1  C   UNL     1     -38.033 -49.704  12.127  1.00  0.00     0.078 C 
HETATM    2  C   UNL     1     -39.022 -50.786  12.349  1.00  0.00     0.066 A 
HETATM    3  N   UNL     1     -40.038 -51.041  11.549  1.00  0.00    -0.296 N 
ATOM      4  HN  UNL     1     -40.209 -50.551  10.671  1.00  0.00     0.187 HD
HETATM    5  N   UNL     1     -40.837 -52.045  12.038  1.00  0.00    -0.279 N 
ATOM      6  HN  UNL     1     -41.679 -52.382  11.572  1.00  0.00     0.189 HD
HETATM    7  C   UNL     1     -40.389 -52.518  13.178  1.00  0.00     0.169 A 
HETATM    8  N   UNL     1     -40.954 -53.476  13.969  1.00  0.00    -0.288 N 
HETATM    9  C   UNL     1     -42.192 -54.013  13.773  1.00  0.00     0.322 C 
HETATM   10  O   UNL     1     -42.601 -54.894  14.526  1.00  0.00    -0.247 OA
HETATM   11  N   UNL     1     -42.943 -53.491  12.761  1.00  0.00    -0.342 N 
HETATM   12  S   UNL     1     -38.939 -51.816  13.730  1.00  0.00    -0.038 SA
HETATM   13  H   UNL     1     -40.451 -53.798  14.783  1.00  0.00     0.172 HD
HETATM   14  H   UNL     1     -42.470 -52.873  12.108  1.00  0.00     0.164 HD
ENDROOT
BRANCH  11  15
HETATM   15  C   UNL     1     -44.282 -53.944  12.460  1.00  0.00     0.131 C 
BRANCH  15  16
HETATM   16  C   UNL     1     -45.382 -53.079  13.073  1.00  0.00     0.029 C 
HETATM   17  C   UNL     1     -44.969 -51.672  13.469  1.00  0.00     0.034 C 
HETATM   18  C   UNL     1     -45.878 -51.332  14.639  1.00  0.00     0.168 C 
HETATM   19  O   UNL     1     -46.658 -52.496  14.938  1.00  0.00    -0.391 OA
HETATM   20  C   UNL     1     -45.989 -53.620  14.353  1.00  0.00     0.173 C 
ENDBRANCH  15  16
ENDBRANCH  11  15
TORSDOF 2
ENDMDL
MODEL 6
REMARK VINA RESULT:      -5.0      4.392      6.245
REMARK  2 active torsions:
REMARK  status: ('A' for Active; 'I' for Inactive)
REMARK       I    between atoms: N_8  and  C_9 
REMARK       I    between atoms: C_9  and  N_11 
REMARK    1  A    between atoms: N_11  and  C_12 
REMARK    2  A    between atoms: C_12  and  C_13 
ROOT
HETATM    1  C   UNL     1     -44.603 -54.472  13.387  1.00  0.00     0.078 C 
HETATM    2  C   UNL     1     -43.723 -53.334  13.026  1.00  0.00     0.066 A 
HETATM    3  N   UNL     1     -44.152 -52.118  12.756  1.00  0.00    -0.296 N 
ATOM      4  HN  UNL     1     -45.129 -51.830  12.823  1.00  0.00     0.187 HD
HETATM    5  N   UNL     1     -43.129 -51.285  12.375  1.00  0.00    -0.279 N 
ATOM      6  HN  UNL     1     -43.256 -50.307  12.115  1.00  0.00     0.189 HD
HETATM    7  C   UNL     1     -41.968 -51.898  12.384  1.00  0.00     0.169 A 
HETATM    8  N   UNL     1     -40.753 -51.398  12.015  1.00  0.00    -0.288 N 
HETATM    9  C   UNL     1     -40.561 -50.186  11.418  1.00  0.00     0.322 C 
HETATM   10  O   UNL     1     -39.421 -49.812  11.150  1.00  0.00    -0.247 OA
HETATM   11  N   UNL     1     -41.674 -49.468  11.098  1.00  0.00    -0.342 N 
HETATM   12  S   UNL     1     -42.013 -53.521  12.896  1.00  0.00    -0.038 SA
HETATM   13  H   UNL     1     -39.928 -51.964  12.152  1.00  0.00     0.172 HD
HETATM   14  H   UNL     1     -42.557 -49.788  11.486  1.00  0.00     0.164 HD
ENDROOT
BRANCH  11  15
HETATM   15  C   UNL     1     -41.620 -48.184  10.436  1.00  0.00     0.131 C 
BRANCH  15  16
HETATM   16  C   UNL     1     -41.377 -47.009  11.382  1.00  0.00     0.029 C 
HETATM   17  C   UNL     1     -42.592 -46.522  12.152  1.00  0.00     0.034 C 
HETATM   18  C   UNL     1     -42.326 -45.041  12.372  1.00  0.00     0.168 C 
HETATM   19  O   UNL     1     -41.114 -44.710  11.683  1.00  0.00    -0.391 OA
HETATM   20  C   UNL     1     -40.874 -45.741  10.719  1.00  0.00     0.173 C 
ENDBRANCH  15  16
ENDBRANCH  11  15
TORSDOF 2
ENDMDL
MODEL 7
REMARK VINA RESULT:      -5.0      3.492      5.731
REMARK  2 active torsions:
REMARK  status: ('A' for Active; 'I' for Inactive)
REMARK       I    between atoms: N_8  and  C_9 
REMARK       I    between atoms: C_9  and  N_11 
REMARK    1  A    between atoms: N_11  and  C_12 
REMARK    2  A    between atoms: C_12  and  C_13 
ROOT
HETATM    1  C   UNL     1     -45.321 -54.747  13.504  1.00  0.00     0.078 C 
HETATM    2  C   UNL     1     -44.186 -53.822  13.268  1.00  0.00     0.066 A 
HETATM    3  N   UNL     1     -44.287 -52.664  12.648  1.00  0.00    -0.296 N 
ATOM      4  HN  UNL     1     -45.167 -52.269  12.318  1.00  0.00     0.187 HD
HETATM    5  N   UNL     1     -43.066 -52.054  12.500  1.00  0.00    -0.279 N 
ATOM      6  HN  UNL     1     -42.929 -51.155  12.038  1.00  0.00     0.189 HD
HETATM    7  C   UNL     1     -42.094 -52.764  13.025  1.00  0.00     0.169 A 
HETATM    8  N   UNL     1     -40.757 -52.492  13.017  1.00  0.00    -0.288 N 
HETATM    9  C   UNL     1     -40.175 -51.479  12.312  1.00  0.00     0.322 C 
HETATM   10  O   UNL     1     -38.962 -51.298  12.393  1.00  0.00    -0.247 OA
HETATM   11  N   UNL     1     -40.985 -50.744  11.499  1.00  0.00    -0.342 N 
HETATM   12  S   UNL     1     -42.585 -54.210  13.778  1.00  0.00    -0.038 SA
HETATM   13  H   UNL     1     -40.131 -53.093  13.533  1.00  0.00     0.172 HD
HETATM   14  H   UNL     1     -41.987 -50.872  11.607  1.00  0.00     0.164 HD
ENDROOT
BRANCH  11  15
HETATM   15  C   UNL     1     -40.498 -49.661  10.674  1.00  0.00     0.131 C 
BRANCH  15  16
HETATM   16  C   UNL     1     -41.370 -48.407  10.717  1.00  0.00     0.029 C 
HETATM   17  C   UNL     1     -40.690 -47.151  11.232  1.00  0.00     0.034 C 
HETATM   18  C   UNL     1     -41.815 -46.350  11.868  1.00  0.00     0.168 C 
HETATM   19  O   UNL     1     -43.004 -47.148  11.809  1.00  0.00    -0.391 OA
HETATM   20  C   UNL     1     -42.597 -48.506  11.602  1.00  0.00     0.173 C 
ENDBRANCH  15  16
ENDBRANCH  11  15
TORSDOF 2
ENDMDL
MODEL 8
REMARK VINA RESULT:      -4.9      2.645      3.374
REMARK  2 active torsions:
REMARK  status: ('A' for Active; 'I' for Inactive)
REMARK       I    between atoms: N_8  and  C_9 
REMARK       I    between atoms: C_9  and  N_11 
REMARK    1  A    between atoms: N_11  and  C_12 
REMARK    2  A    between atoms: C_12  and  C_13 
ROOT
HETATM    1  C   UNL     1     -42.114 -46.265  12.150  1.00  0.00     0.078 C 
HETATM    2  C   UNL     1     -42.042 -47.739  12.001  1.00  0.00     0.066 A 
HETATM    3  N   UNL     1     -43.085 -48.518  11.802  1.00  0.00    -0.296 N 
ATOM      4  HN  UNL     1     -44.038 -48.176  11.677  1.00  0.00     0.187 HD
HETATM    5  N   UNL     1     -42.737 -49.847  11.781  1.00  0.00    -0.279 N 
ATOM      6  HN  UNL     1     -43.401 -50.609  11.650  1.00  0.00     0.189 HD
HETATM    7  C   UNL     1     -41.446 -50.019  11.951  1.00  0.00     0.169 A 
HETATM    8  N   UNL     1     -40.761 -51.196  12.038  1.00  0.00    -0.288 N 
HETATM    9  C   UNL     1     -41.342 -52.428  12.112  1.00  0.00     0.322 C 
HETATM   10  O   UNL     1     -40.636 -53.434  12.158  1.00  0.00    -0.247 OA
HETATM   11  N   UNL     1     -42.703 -52.471  12.185  1.00  0.00    -0.342 N 
HETATM   12  S   UNL     1     -40.542 -48.585  12.107  1.00  0.00    -0.038 SA
HETATM   13  H   UNL     1     -39.754 -51.174  12.089  1.00  0.00     0.172 HD
HETATM   14  H   UNL     1     -43.202 -51.606  11.995  1.00  0.00     0.164 HD
ENDROOT
BRANCH  11  15
HETATM   15  C   UNL     1     -43.448 -53.705  12.296  1.00  0.00     0.131 C 
BRANCH  15  16
HETATM   16  C   UNL     1     -44.098 -53.916  13.662  1.00  0.00     0.029 C 
HETATM   17  C   UNL     1     -45.270 -54.882  13.690  1.00  0.00     0.034 C 
HETATM   18  C   UNL     1     -46.145 -54.375  14.824  1.00  0.00     0.168 C 
HETATM   19  O   UNL     1     -45.562 -53.161  15.315  1.00  0.00    -0.391 OA
HETATM   20  C   UNL     1     -44.681 -52.669  14.298  1.00  0.00     0.173 C 
ENDBRANCH  15  16
ENDBRANCH  11  15
TORSDOF 2
ENDMDL
MODEL 9
REMARK VINA RESULT:      -4.6      5.741      7.513
REMARK  2 active torsions:
REMARK  status: ('A' for Active; 'I' for Inactive)
REMARK       I    between atoms: N_8  and  C_9 
REMARK       I    between atoms: C_9  and  N_11 
REMARK    1  A    between atoms: N_11  and  C_12 
REMARK    2  A    between atoms: C_12  and  C_13 
ROOT
HETATM    1  C   UNL     1     -38.040 -51.456  13.943  1.00  0.00     0.078 C 
HETATM    2  C   UNL     1     -38.753 -50.567  12.993  1.00  0.00     0.066 A 
HETATM    3  N   UNL     1     -38.363 -49.347  12.682  1.00  0.00    -0.296 N 
ATOM      4  HN  UNL     1     -37.503 -48.918  13.024  1.00  0.00     0.187 HD
HETATM    5  N   UNL     1     -39.252 -48.724  11.841  1.00  0.00    -0.279 N 
ATOM      6  HN  UNL     1     -39.137 -47.773  11.493  1.00  0.00     0.189 HD
HETATM    7  C   UNL     1     -40.269 -49.498  11.540  1.00  0.00     0.169 A 
HETATM    8  N   UNL     1     -41.359 -49.193  10.778  1.00  0.00    -0.288 N 
HETATM    9  C   UNL     1     -41.654 -47.946  10.310  1.00  0.00     0.322 C 
HETATM   10  O   UNL     1     -42.648 -47.778   9.606  1.00  0.00    -0.247 OA
HETATM   11  N   UNL     1     -40.841 -46.926  10.705  1.00  0.00    -0.342 N 
HETATM   12  S   UNL     1     -40.210 -51.060  12.215  1.00  0.00    -0.038 SA
HETATM   13  H   UNL     1     -42.027 -49.919  10.564  1.00  0.00     0.172 HD
HETATM   14  H   UNL     1     -39.970 -47.180  11.163  1.00  0.00     0.164 HD
ENDROOT
BRANCH  11  15
HETATM   15  C   UNL     1     -41.053 -45.551  10.309  1.00  0.00     0.131 C 
BRANCH  15  16
HETATM   16  C   UNL     1     -40.960 -44.553  11.460  1.00  0.00     0.029 C 
HETATM   17  C   UNL     1     -40.988 -43.087  11.064  1.00  0.00     0.034 C 
HETATM   18  C   UNL     1     -40.173 -42.392  12.143  1.00  0.00     0.168 C 
HETATM   19  O   UNL     1     -39.643 -43.404  13.008  1.00  0.00    -0.391 OA
HETATM   20  C   UNL     1     -39.698 -44.646  12.295  1.00  0.00     0.173 C 
ENDBRANCH  15  16
ENDBRANCH  11  15
TORSDOF 2
ENDMDL
