MODEL 1
REMARK VINA RESULT:      -6.1      0.000      0.000
REMARK  2 active torsions:
REMARK  status: ('A' for Active; 'I' for Inactive)
REMARK       I    between atoms: N_8  and  C_9 
REMARK       I    between atoms: C_9  and  N_11 
REMARK    1  A    between atoms: N_11  and  C_12 
REMARK    2  A    between atoms: C_12  and  C_13 
ROOT
HETATM    1  C   UNL     1     -39.068 -50.210  12.250  1.00  0.00     0.078 C 
HETATM    2  C   UNL     1     -40.370 -50.916  12.178  1.00  0.00     0.066 A 
HETATM    3  N   UNL     1     -41.519 -50.330  11.907  1.00  0.00    -0.296 N 
ATOM      4  HN  UNL     1     -41.615 -49.341  11.677  1.00  0.00     0.187 HD
HETATM    5  N   UNL     1     -42.572 -51.213  11.973  1.00  0.00    -0.279 N 
ATOM      6  HN  UNL     1     -43.545 -50.958  11.800  1.00  0.00     0.189 HD
HETATM    7  C   UNL     1     -42.172 -52.424  12.285  1.00  0.00     0.169 A 
HETATM    8  N   UNL     1     -42.936 -53.538  12.486  1.00  0.00    -0.288 N 
HETATM    9  C   UNL     1     -44.298 -53.543  12.546  1.00  0.00     0.322 C 
HETATM   10  O   UNL     1     -44.887 -54.607  12.741  1.00  0.00    -0.247 OA
HETATM   11  N   UNL     1     -44.941 -52.344  12.448  1.00  0.00    -0.342 N 
HETATM   12  S   UNL     1     -40.495 -52.608  12.479  1.00  0.00    -0.038 SA
HETATM   13  H   UNL     1     -42.482 -54.420  12.664  1.00  0.00     0.172 HD
HETATM   14  H   UNL     1     -44.403 -51.537  12.142  1.00  0.00     0.164 HD
ENDROOT
BRANCH  11  15
HETATM   15  C   UNL     1     -46.372 -52.239  12.577  1.00  0.00     0.129 C 
BRANCH  15  16
HETATM   16  C   UNL     1     -46.688 -51.468  13.844  1.00  0.00     0.003 C 
HETATM   17  C   UNL     1     -45.412 -51.035  14.610  1.00  0.00     0.006 C 
HETATM   18  C   UNL     1     -46.181 -51.281  15.919  1.00  0.00     0.001 C 
HETATM   19  C   UNL     1     -47.087 -52.249  15.129  1.00  0.00     0.006 C 
ENDBRANCH  15  16
ENDBRANCH  11  15
TORSDOF 2
ENDMDL
MODEL 2
REMARK VINA RESULT:      -5.6      6.131      7.735
REMARK  2 active torsions:
REMARK  status: ('A' for Active; 'I' for Inactive)
REMARK       I    between atoms: N_8  and  C_9 
REMARK       I    between atoms: C_9  and  N_11 
REMARK    1  A    between atoms: N_11  and  C_12 
REMARK    2  A    between atoms: C_12  and  C_13 
ROOT
HETATM    1  C   UNL     1     -46.549 -47.342   9.118  1.00  0.00     0.078 C 
HETATM    2  C   UNL     1     -45.112 -47.295   9.480  1.00  0.00     0.066 A 
HETATM    3  N   UNL     1     -44.525 -48.138  10.304  1.00  0.00    -0.296 N 
ATOM      4  HN  UNL     1     -44.995 -48.932  10.739  1.00  0.00     0.187 HD
HETATM    5  N   UNL     1     -43.203 -47.818  10.509  1.00  0.00    -0.279 N 
ATOM      6  HN  UNL     1     -42.573 -48.343  11.116  1.00  0.00     0.189 HD
HETATM    7  C   UNL     1     -42.850 -46.752   9.827  1.00  0.00     0.169 A 
HETATM    8  N   UNL     1     -41.640 -46.118   9.821  1.00  0.00    -0.288 N 
HETATM    9  C   UNL     1     -40.610 -46.407  10.666  1.00  0.00     0.322 C 
HETATM   10  O   UNL     1     -39.563 -45.765  10.578  1.00  0.00    -0.247 OA
HETATM   11  N   UNL     1     -40.818 -47.363  11.616  1.00  0.00    -0.342 N 
HETATM   12  S   UNL     1     -44.066 -46.078   8.851  1.00  0.00    -0.038 SA
HETATM   13  H   UNL     1     -41.497 -45.339   9.198  1.00  0.00     0.172 HD
HETATM   14  H   UNL     1     -41.646 -47.947  11.532  1.00  0.00     0.164 HD
ENDROOT
BRANCH  11  15
HETATM   15  C   UNL     1     -39.817 -47.683  12.601  1.00  0.00     0.129 C 
BRANCH  15  16
HETATM   16  C   UNL     1     -39.388 -49.123  12.404  1.00  0.00     0.003 C 
HETATM   17  C   UNL     1     -38.622 -49.688  13.628  1.00  0.00     0.006 C 
HETATM   18  C   UNL     1     -37.745 -50.480  12.644  1.00  0.00     0.001 C 
HETATM   19  C   UNL     1     -38.108 -49.428  11.574  1.00  0.00     0.006 C 
ENDBRANCH  15  16
ENDBRANCH  11  15
TORSDOF 2
ENDMDL
MODEL 3
REMARK VINA RESULT:      -5.6      1.984      2.547
REMARK  2 active torsions:
REMARK  status: ('A' for Active; 'I' for Inactive)
REMARK       I    between atoms: N_8  and  C_9 
REMARK       I    between atoms: C_9  and  N_11 
REMARK    1  A    between atoms: N_11  and  C_12 
REMARK    2  A    between atoms: C_12  and  C_13 
ROOT
HETATM    1  C   UNL     1     -40.210 -46.971  11.199  1.00  0.00     0.078 C 
HETATM    2  C   UNL     1     -40.631 -48.388  11.321  1.00  0.00     0.066 A 
HETATM    3  N   UNL     1     -41.862 -48.816  11.136  1.00  0.00    -0.296 N 
ATOM      4  HN  UNL     1     -42.637 -48.219  10.845  1.00  0.00     0.187 HD
HETATM    5  N   UNL     1     -41.978 -50.165  11.380  1.00  0.00    -0.279 N 
ATOM      6  HN  UNL     1     -42.849 -50.690  11.297  1.00  0.00     0.189 HD
HETATM    7  C   UNL     1     -40.830 -50.694  11.735  1.00  0.00     0.169 A 
HETATM    8  N   UNL     1     -40.575 -51.986  12.099  1.00  0.00    -0.288 N 
HETATM    9  C   UNL     1     -41.530 -52.935  12.308  1.00  0.00     0.322 C 
HETATM   10  O   UNL     1     -41.187 -54.069  12.643  1.00  0.00    -0.247 OA
HETATM   11  N   UNL     1     -42.836 -52.557  12.193  1.00  0.00    -0.342 N 
HETATM   12  S   UNL     1     -39.511 -49.624  11.757  1.00  0.00    -0.038 SA
HETATM   13  H   UNL     1     -39.625 -52.263  12.290  1.00  0.00     0.172 HD
HETATM   14  H   UNL     1     -43.035 -51.653  11.772  1.00  0.00     0.164 HD
ENDROOT
BRANCH  11  15
HETATM   15  C   UNL     1     -43.916 -53.469  12.470  1.00  0.00     0.129 C 
BRANCH  15  16
HETATM   16  C   UNL     1     -45.202 -52.674  12.586  1.00  0.00     0.003 C 
HETATM   17  C   UNL     1     -44.996 -51.311  13.295  1.00  0.00     0.006 C 
HETATM   18  C   UNL     1     -46.383 -51.496  13.932  1.00  0.00     0.001 C 
HETATM   19  C   UNL     1     -46.205 -53.015  13.725  1.00  0.00     0.006 C 
ENDBRANCH  15  16
ENDBRANCH  11  15
TORSDOF 2
ENDMDL
MODEL 4
REMARK VINA RESULT:      -5.6      1.530      1.973
REMARK  2 active torsions:
REMARK  status: ('A' for Active; 'I' for Inactive)
REMARK       I    between atoms: N_8  and  C_9 
REMARK       I    between atoms: C_9  and  N_11 
REMARK    1  A    between atoms: N_11  and  C_12 
REMARK    2  A    between atoms: C_12  and  C_13 
ROOT
HETATM    1  C   UNL     1     -38.570 -49.067  11.465  1.00  0.00     0.078 C 
HETATM    2  C   UNL     1     -39.443 -50.229  11.761  1.00  0.00     0.066 A 
HETATM    3  N   UNL     1     -40.538 -50.525  11.093  1.00  0.00    -0.296 N 
ATOM      4  HN  UNL     1     -40.867 -50.009  10.277  1.00  0.00     0.187 HD
HETATM    5  N   UNL     1     -41.186 -51.616  11.627  1.00  0.00    -0.279 N 
ATOM      6  HN  UNL     1     -42.054 -52.004  11.258  1.00  0.00     0.189 HD
HETATM    7  C   UNL     1     -40.548 -52.096  12.671  1.00  0.00     0.169 A 
HETATM    8  N   UNL     1     -40.916 -53.133  13.478  1.00  0.00    -0.288 N 
HETATM    9  C   UNL     1     -42.121 -53.768  13.425  1.00  0.00     0.322 C 
HETATM   10  O   UNL     1     -42.351 -54.689  14.208  1.00  0.00    -0.247 OA
HETATM   11  N   UNL     1     -43.044 -53.301  12.534  1.00  0.00    -0.342 N 
HETATM   12  S   UNL     1     -39.098 -51.304  13.064  1.00  0.00    -0.038 SA
HETATM   13  H   UNL     1     -40.292 -53.430  14.212  1.00  0.00     0.172 HD
HETATM   14  H   UNL     1     -42.732 -52.642  11.825  1.00  0.00     0.164 HD
ENDROOT
BRANCH  11  15
HETATM   15  C   UNL     1     -44.371 -53.856  12.458  1.00  0.00     0.129 C 
BRANCH  15  16
HETATM   16  C   UNL     1     -45.375 -52.729  12.596  1.00  0.00     0.003 C 
HETATM   17  C   UNL     1     -44.820 -51.536  13.416  1.00  0.00     0.006 C 
HETATM   18  C   UNL     1     -46.233 -51.347  13.993  1.00  0.00     0.001 C 
HETATM   19  C   UNL     1     -46.493 -52.835  13.673  1.00  0.00     0.006 C 
ENDBRANCH  15  16
ENDBRANCH  11  15
TORSDOF 2
ENDMDL
MODEL 5
REMARK VINA RESULT:      -5.5      2.600      3.427
REMARK  2 active torsions:
REMARK  status: ('A' for Active; 'I' for Inactive)
REMARK       I    between atoms: N_8  and  C_9 
REMARK       I    between atoms: C_9  and  N_11 
REMARK    1  A    between atoms: N_11  and  C_12 
REMARK    2  A    between atoms: C_12  and  C_13 
ROOT
HETATM    1  C   UNL     1     -41.218 -45.829  11.226  1.00  0.00     0.078 C 
HETATM    2  C   UNL     1     -41.316 -47.308  11.272  1.00  0.00     0.066 A 
HETATM    3  N   UNL     1     -42.443 -47.982  11.177  1.00  0.00    -0.296 N 
ATOM      4  HN  UNL     1     -43.354 -47.552  11.016  1.00  0.00     0.187 HD
HETATM    5  N   UNL     1     -42.245 -49.336  11.319  1.00  0.00    -0.279 N 
ATOM      6  HN  UNL     1     -42.990 -50.032  11.280  1.00  0.00     0.189 HD
HETATM    7  C   UNL     1     -40.978 -49.624  11.511  1.00  0.00     0.169 A 
HETATM    8  N   UNL     1     -40.417 -50.848  11.739  1.00  0.00    -0.288 N 
HETATM    9  C   UNL     1     -41.121 -51.993  11.964  1.00  0.00     0.322 C 
HETATM   10  O   UNL     1     -40.512 -53.043  12.168  1.00  0.00    -0.247 OA
HETATM   11  N   UNL     1     -42.482 -51.902  12.013  1.00  0.00    -0.342 N 
HETATM   12  S   UNL     1     -39.920 -48.295  11.489  1.00  0.00    -0.038 SA
HETATM   13  H   UNL     1     -39.415 -50.923  11.810  1.00  0.00     0.172 HD
HETATM   14  H   UNL     1     -42.914 -51.039  11.690  1.00  0.00     0.164 HD
ENDROOT
BRANCH  11  15
HETATM   15  C   UNL     1     -43.307 -53.041  12.321  1.00  0.00     0.129 C 
BRANCH  15  16
HETATM   16  C   UNL     1     -44.422 -52.595  13.247  1.00  0.00     0.003 C 
HETATM   17  C   UNL     1     -45.822 -52.714  12.592  1.00  0.00     0.006 C 
HETATM   18  C   UNL     1     -46.221 -51.433  13.343  1.00  0.00     0.001 C 
HETATM   19  C   UNL     1     -44.720 -51.076  13.400  1.00  0.00     0.006 C 
ENDBRANCH  15  16
ENDBRANCH  11  15
TORSDOF 2
ENDMDL
MODEL 6
REMARK VINA RESULT:      -5.4      3.576      4.919
REMARK  2 active torsions:
REMARK  status: ('A' for Active; 'I' for Inactive)
REMARK       I    between atoms: N_8  and  C_9 
REMARK       I    between atoms: C_9  and  N_11 
REMARK    1  A    between atoms: N_11  and  C_12 
REMARK    2  A    between atoms: C_12  and  C_13 
ROOT
HETATM    1  C   UNL     1     -42.754 -45.731  10.061  1.00  0.00     0.078 C 
HETATM    2  C   UNL     1     -42.082 -47.012  10.389  1.00  0.00     0.066 A 
HETATM    3  N   UNL     1     -42.587 -48.201  10.135  1.00  0.00    -0.296 N 
ATOM      4  HN  UNL     1     -43.470 -48.355   9.646  1.00  0.00     0.187 HD
HETATM    5  N   UNL     1     -41.781 -49.212  10.607  1.00  0.00    -0.279 N 
ATOM      6  HN  UNL     1     -41.995 -50.205  10.515  1.00  0.00     0.189 HD
HETATM    7  C   UNL     1     -40.703 -48.740  11.191  1.00  0.00     0.169 A 
HETATM    8  N   UNL     1     -39.710 -49.439  11.815  1.00  0.00    -0.288 N 
HETATM    9  C   UNL     1     -39.748 -50.776  12.075  1.00  0.00     0.322 C 
HETATM   10  O   UNL     1     -38.798 -51.304  12.652  1.00  0.00    -0.247 OA
HETATM   11  N   UNL     1     -40.881 -51.457  11.733  1.00  0.00    -0.342 N 
HETATM   12  S   UNL     1     -40.551 -47.049  11.178  1.00  0.00    -0.038 SA
HETATM   13  H   UNL     1     -38.908 -48.942  12.169  1.00  0.00     0.172 HD
HETATM   14  H   UNL     1     -41.555 -50.989  11.132  1.00  0.00     0.164 HD
ENDROOT
BRANCH  11  15
HETATM   15  C   UNL     1     -41.046 -52.854  12.038  1.00  0.00     0.129 C 
BRANCH  15  16
HETATM   16  C   UNL     1     -42.110 -52.994  13.108  1.00  0.00     0.003 C 
HETATM   17  C   UNL     1     -41.985 -54.320  13.901  1.00  0.00     0.006 C 
HETATM   18  C   UNL     1     -43.521 -54.360  13.968  1.00  0.00     0.001 C 
HETATM   19  C   UNL     1     -43.535 -53.471  12.706  1.00  0.00     0.006 C 
ENDBRANCH  15  16
ENDBRANCH  11  15
TORSDOF 2
ENDMDL
MODEL 7
REMARK VINA RESULT:      -5.1      6.292      7.789
REMARK  2 active torsions:
REMARK  status: ('A' for Active; 'I' for Inactive)
REMARK       I    between atoms: N_8  and  C_9 
REMARK       I    between atoms: C_9  and  N_11 
REMARK    1  A    between atoms: N_11  and  C_12 
REMARK    2  A    between atoms: C_12  and  C_13 
ROOT
HETATM    1  C   UNL     1     -46.556 -47.453   9.120  1.00  0.00     0.078 C 
HETATM    2  C   UNL     1     -45.121 -47.357   9.477  1.00  0.00     0.066 A 
HETATM    3  N   UNL     1     -44.516 -48.146  10.341  1.00  0.00    -0.296 N 
ATOM      4  HN  UNL     1     -44.968 -48.929  10.814  1.00  0.00     0.187 HD
HETATM    5  N   UNL     1     -43.201 -47.788  10.530  1.00  0.00    -0.279 N 
ATOM      6  HN  UNL     1     -42.560 -48.270  11.161  1.00  0.00     0.189 HD
HETATM    7  C   UNL     1     -42.871 -46.748   9.797  1.00  0.00     0.169 A 
HETATM    8  N   UNL     1     -41.676 -46.089   9.760  1.00  0.00    -0.288 N 
HETATM    9  C   UNL     1     -40.640 -46.314  10.616  1.00  0.00     0.322 C 
HETATM   10  O   UNL     1     -39.607 -45.654  10.497  1.00  0.00    -0.247 OA
HETATM   11  N   UNL     1     -40.827 -47.228  11.612  1.00  0.00    -0.342 N 
HETATM   12  S   UNL     1     -44.101 -46.149   8.791  1.00  0.00    -0.038 SA
HETATM   13  H   UNL     1     -41.549 -45.338   9.100  1.00  0.00     0.172 HD
HETATM   14  H   UNL     1     -41.642 -47.834  11.556  1.00  0.00     0.164 HD
ENDROOT
BRANCH  11  15
HETATM   15  C   UNL     1     -39.820 -47.478  12.611  1.00  0.00     0.129 C 
BRANCH  15  16
HETATM   16  C   UNL     1     -40.119 -46.621  13.825  1.00  0.00     0.003 C 
HETATM   17  C   UNL     1     -39.115 -45.452  13.989  1.00  0.00     0.006 C 
HETATM   18  C   UNL     1     -39.220 -45.648  15.510  1.00  0.00     0.001 C 
HETATM   19  C   UNL     1     -39.652 -47.103  15.228  1.00  0.00     0.006 C 
ENDBRANCH  15  16
ENDBRANCH  11  15
TORSDOF 2
ENDMDL
MODEL 8
REMARK VINA RESULT:      -5.0      4.921      6.387
REMARK  2 active torsions:
REMARK  status: ('A' for Active; 'I' for Inactive)
REMARK       I    between atoms: N_8  and  C_9 
REMARK       I    between atoms: C_9  and  N_11 
REMARK    1  A    between atoms: N_11  and  C_12 
REMARK    2  A    between atoms: C_12  and  C_13 
ROOT
HETATM    1  C   UNL     1     -37.659 -50.787  12.440  1.00  0.00     0.078 C 
HETATM    2  C   UNL     1     -38.815 -50.033  11.897  1.00  0.00     0.066 A 
HETATM    3  N   UNL     1     -38.727 -48.853  11.318  1.00  0.00    -0.296 N 
ATOM      4  HN  UNL     1     -37.848 -48.365  11.146  1.00  0.00     0.187 HD
HETATM    5  N   UNL     1     -39.963 -48.359  10.971  1.00  0.00    -0.279 N 
ATOM      6  HN  UNL     1     -40.114 -47.459  10.514  1.00  0.00     0.189 HD
HETATM    7  C   UNL     1     -40.927 -49.189  11.299  1.00  0.00     0.169 A 
HETATM    8  N   UNL     1     -42.274 -49.014  11.155  1.00  0.00    -0.288 N 
HETATM    9  C   UNL     1     -42.868 -47.849  10.773  1.00  0.00     0.322 C 
HETATM   10  O   UNL     1     -44.095 -47.801  10.683  1.00  0.00    -0.247 OA
HETATM   11  N   UNL     1     -42.065 -46.765  10.567  1.00  0.00    -0.342 N 
HETATM   12  S   UNL     1     -40.421 -50.647  12.008  1.00  0.00    -0.038 SA
HETATM   13  H   UNL     1     -42.896 -49.769  11.400  1.00  0.00     0.172 HD
HETATM   14  H   UNL     1     -41.061 -46.919  10.515  1.00  0.00     0.164 HD
ENDROOT
BRANCH  11  15
HETATM   15  C   UNL     1     -42.606 -45.472  10.236  1.00  0.00     0.129 C 
BRANCH  15  16
HETATM   16  C   UNL     1     -41.926 -44.428  11.100  1.00  0.00     0.003 C 
HETATM   17  C   UNL     1     -40.392 -44.633  11.183  1.00  0.00     0.006 C 
HETATM   18  C   UNL     1     -40.463 -44.155  12.643  1.00  0.00     0.001 C 
HETATM   19  C   UNL     1     -41.943 -44.593  12.647  1.00  0.00     0.006 C 
ENDBRANCH  15  16
ENDBRANCH  11  15
TORSDOF 2
ENDMDL
MODEL 9
REMARK VINA RESULT:      -4.9      5.018      6.585
REMARK  2 active torsions:
REMARK  status: ('A' for Active; 'I' for Inactive)
REMARK       I    between atoms: N_8  and  C_9 
REMARK       I    between atoms: C_9  and  N_11 
REMARK    1  A    between atoms: N_11  and  C_12 
REMARK    2  A    between atoms: C_12  and  C_13 
ROOT
HETATM    1  C   UNL     1     -46.609 -46.946   8.816  1.00  0.00     0.078 C 
HETATM    2  C   UNL     1     -45.227 -47.139   9.319  1.00  0.00     0.066 A 
HETATM    3  N   UNL     1     -44.871 -48.080  10.169  1.00  0.00    -0.296 N 
ATOM      4  HN  UNL     1     -45.503 -48.795  10.528  1.00  0.00     0.187 HD
HETATM    5  N   UNL     1     -43.542 -47.982  10.514  1.00  0.00    -0.279 N 
ATOM      6  HN  UNL     1     -43.071 -48.613  11.162  1.00  0.00     0.189 HD
HETATM    7  C   UNL     1     -42.955 -46.976   9.906  1.00  0.00     0.169 A 
HETATM    8  N   UNL     1     -41.666 -46.547  10.041  1.00  0.00    -0.288 N 
HETATM    9  C   UNL     1     -40.788 -47.014  10.973  1.00  0.00     0.322 C 
HETATM   10  O   UNL     1     -39.648 -46.549  11.011  1.00  0.00    -0.247 OA
HETATM   11  N   UNL     1     -41.243 -47.940  11.866  1.00  0.00    -0.342 N 
HETATM   12  S   UNL     1     -43.941 -46.097   8.838  1.00  0.00    -0.038 SA
HETATM   13  H   UNL     1     -41.337 -45.792   9.461  1.00  0.00     0.172 HD
HETATM   14  H   UNL     1     -42.140 -48.381  11.680  1.00  0.00     0.164 HD
ENDROOT
BRANCH  11  15
HETATM   15  C   UNL     1     -40.413 -48.435  12.934  1.00  0.00     0.129 C 
BRANCH  15  16
HETATM   16  C   UNL     1     -41.308 -48.962  14.037  1.00  0.00     0.003 C 
HETATM   17  C   UNL     1     -41.944 -50.331  13.683  1.00  0.00     0.006 C 
HETATM   18  C   UNL     1     -43.210 -49.872  14.426  1.00  0.00     0.001 C 
HETATM   19  C   UNL     1     -42.760 -48.419  14.163  1.00  0.00     0.006 C 
ENDBRANCH  15  16
ENDBRANCH  11  15
TORSDOF 2
ENDMDL
