MODEL 1
REMARK VINA RESULT:      -5.9      0.000      0.000
REMARK  5 active torsions:
REMARK  status: ('A' for Active; 'I' for Inactive)
REMARK    1  A    between atoms: C_2  and  C_3 
REMARK    2  A    between atoms: C_7  and  N_9 
REMARK    3  A    between atoms: N_9  and  C_10 
REMARK    4  A    between atoms: C_10  and  C_11 
REMARK    5  A    between atoms: C_11  and  C_12 
ROOT
HETATM    1  N   UNL     1     -42.243 -52.520  11.670  1.00  0.00     0.088 N 
HETATM    2  H   UNL     1     -42.800 -51.885  11.096  1.00  0.00     0.316 HD
ENDROOT
BRANCH   1   3
HETATM    3  C   UNL     1     -43.077 -52.993  12.796  1.00  0.00     0.220 C 
HETATM    4  C   UNL     1     -42.449 -54.193  13.529  1.00  0.00     0.035 C 
HETATM    5  C   UNL     1     -43.333 -54.718  14.660  1.00  0.00     0.002 C 
HETATM    6  C   UNL     1     -44.758 -54.996  14.196  1.00  0.00     0.005 C 
HETATM    7  C   UNL     1     -45.397 -53.788  13.492  1.00  0.00    -0.013 C 
HETATM    8  C   UNL     1     -44.492 -53.358  12.313  1.00  0.00     0.040 C 
BRANCH   7   9
HETATM    9  C   UNL     1     -45.673 -52.587  14.424  1.00  0.00     0.000 C 
HETATM   10  C   UNL     1     -46.426 -51.433  13.783  1.00  0.00     0.005 C 
ENDBRANCH   7   9
ENDBRANCH   1   3
BRANCH   1  11
HETATM   11  C   UNL     1     -41.068 -51.798  12.181  1.00  0.00     0.274 C 
BRANCH  11  12
HETATM   12  C   UNL     1     -41.408 -50.554  13.005  1.00  0.00     0.070 C 
BRANCH  12  13
HETATM   13  C   UNL     1     -41.837 -49.458  12.063  1.00  0.00    -0.041 A 
HETATM   14  C   UNL     1     -43.041 -48.775  12.252  1.00  0.00     0.010 A 
HETATM   15  C   UNL     1     -43.476 -47.865  11.293  1.00  0.00     0.018 A 
HETATM   16  C   UNL     1     -42.687 -47.668  10.173  1.00  0.00     0.087 A 
HETATM   17  N   UNL     1     -41.516 -48.302   9.956  1.00  0.00    -0.375 N 
HETATM   18  C   UNL     1     -41.119 -49.183  10.902  1.00  0.00     0.094 A 
ATOM     19  HN  UNL     1     -40.958 -48.126   9.121  1.00  0.00     0.164 HD
ENDBRANCH  12  13
ENDBRANCH  11  12
ENDBRANCH   1  11
TORSDOF 5
ENDMDL
MODEL 2
REMARK VINA RESULT:      -5.6      2.583      4.078
REMARK  5 active torsions:
REMARK  status: ('A' for Active; 'I' for Inactive)
REMARK    1  A    between atoms: C_2  and  C_3 
REMARK    2  A    between atoms: C_7  and  N_9 
REMARK    3  A    between atoms: N_9  and  C_10 
REMARK    4  A    between atoms: C_10  and  C_11 
REMARK    5  A    between atoms: C_11  and  C_12 
ROOT
HETATM    1  N   UNL     1     -44.016 -54.490  15.887  1.00  0.00     0.088 N 
HETATM    2  H   UNL     1     -44.554 -55.234  16.333  1.00  0.00     0.316 HD
ENDROOT
BRANCH   1   3
HETATM    3  C   UNL     1     -44.943 -53.629  15.123  1.00  0.00     0.220 C 
HETATM    4  C   UNL     1     -44.804 -53.821  13.602  1.00  0.00     0.035 C 
HETATM    5  C   UNL     1     -45.724 -52.895  12.806  1.00  0.00     0.002 C 
HETATM    6  C   UNL     1     -45.576 -51.438  13.228  1.00  0.00     0.005 C 
HETATM    7  C   UNL     1     -45.746 -51.239  14.742  1.00  0.00    -0.013 C 
HETATM    8  C   UNL     1     -44.735 -52.147  15.483  1.00  0.00     0.040 C 
BRANCH   7   9
HETATM    9  C   UNL     1     -47.180 -51.499  15.257  1.00  0.00     0.000 C 
HETATM   10  C   UNL     1     -47.399 -51.202  16.731  1.00  0.00     0.005 C 
ENDBRANCH   7   9
ENDBRANCH   1   3
BRANCH   1  11
HETATM   11  C   UNL     1     -43.024 -55.093  14.984  1.00  0.00     0.274 C 
BRANCH  11  12
HETATM   12  C   UNL     1     -41.603 -54.558  15.169  1.00  0.00     0.070 C 
BRANCH  12  13
HETATM   13  C   UNL     1     -41.303 -53.599  14.044  1.00  0.00    -0.041 A 
HETATM   14  C   UNL     1     -41.432 -52.219  14.219  1.00  0.00     0.010 A 
HETATM   15  C   UNL     1     -41.280 -51.368  13.129  1.00  0.00     0.018 A 
HETATM   16  C   UNL     1     -41.004 -51.929  11.894  1.00  0.00     0.087 A 
HETATM   17  N   UNL     1     -40.865 -53.255  11.685  1.00  0.00    -0.375 N 
HETATM   18  C   UNL     1     -41.020 -54.059  12.761  1.00  0.00     0.094 A 
ATOM     19  HN  UNL     1     -40.654 -53.632  10.761  1.00  0.00     0.164 HD
ENDBRANCH  12  13
ENDBRANCH  11  12
ENDBRANCH   1  11
TORSDOF 5
ENDMDL
MODEL 3
REMARK VINA RESULT:      -5.5      1.371      1.990
REMARK  5 active torsions:
REMARK  status: ('A' for Active; 'I' for Inactive)
REMARK    1  A    between atoms: C_2  and  C_3 
REMARK    2  A    between atoms: C_7  and  N_9 
REMARK    3  A    between atoms: N_9  and  C_10 
REMARK    4  A    between atoms: C_10  and  C_11 
REMARK    5  A    between atoms: C_11  and  C_12 
ROOT
HETATM    1  N   UNL     1     -43.669 -52.905  12.043  1.00  0.00     0.088 N 
HETATM    2  H   UNL     1     -43.962 -52.133  11.441  1.00  0.00     0.316 HD
ENDROOT
BRANCH   1   3
HETATM    3  C   UNL     1     -44.480 -52.875  13.279  1.00  0.00     0.220 C 
HETATM    4  C   UNL     1     -45.327 -54.148  13.455  1.00  0.00     0.035 C 
HETATM    5  C   UNL     1     -46.208 -54.099  14.705  1.00  0.00     0.002 C 
HETATM    6  C   UNL     1     -47.043 -52.826  14.770  1.00  0.00     0.005 C 
HETATM    7  C   UNL     1     -46.194 -51.553  14.625  1.00  0.00    -0.013 C 
HETATM    8  C   UNL     1     -45.390 -51.634  13.306  1.00  0.00     0.040 C 
BRANCH   7   9
HETATM    9  C   UNL     1     -45.247 -51.286  15.817  1.00  0.00     0.000 C 
HETATM   10  C   UNL     1     -44.351 -50.068  15.668  1.00  0.00     0.005 C 
ENDBRANCH   7   9
ENDBRANCH   1   3
BRANCH   1  11
HETATM   11  C   UNL     1     -42.244 -52.741  12.370  1.00  0.00     0.274 C 
BRANCH  11  12
HETATM   12  C   UNL     1     -41.941 -51.531  13.256  1.00  0.00     0.070 C 
BRANCH  12  13
HETATM   13  C   UNL     1     -41.811 -50.315  12.374  1.00  0.00    -0.041 A 
HETATM   14  C   UNL     1     -42.746 -49.279  12.431  1.00  0.00     0.010 A 
HETATM   15  C   UNL     1     -42.678 -48.235  11.514  1.00  0.00     0.018 A 
HETATM   16  C   UNL     1     -41.670 -48.263  10.565  1.00  0.00     0.087 A 
HETATM   17  N   UNL     1     -40.744 -49.241  10.481  1.00  0.00    -0.375 N 
HETATM   18  C   UNL     1     -40.836 -50.244  11.383  1.00  0.00     0.094 A 
ATOM     19  HN  UNL     1     -40.011 -49.224   9.771  1.00  0.00     0.164 HD
ENDBRANCH  12  13
ENDBRANCH  11  12
ENDBRANCH   1  11
TORSDOF 5
ENDMDL
MODEL 4
REMARK VINA RESULT:      -5.4      3.047      5.169
REMARK  5 active torsions:
REMARK  status: ('A' for Active; 'I' for Inactive)
REMARK    1  A    between atoms: C_2  and  C_3 
REMARK    2  A    between atoms: C_7  and  N_9 
REMARK    3  A    between atoms: N_9  and  C_10 
REMARK    4  A    between atoms: C_10  and  C_11 
REMARK    5  A    between atoms: C_11  and  C_12 
ROOT
HETATM    1  N   UNL     1     -44.047 -53.007  12.046  1.00  0.00     0.088 N 
HETATM    2  H   UNL     1     -44.067 -53.533  11.170  1.00  0.00     0.316 HD
ENDROOT
BRANCH   1   3
HETATM    3  C   UNL     1     -43.129 -53.687  12.985  1.00  0.00     0.220 C 
HETATM    4  C   UNL     1     -43.880 -54.473  14.074  1.00  0.00     0.035 C 
HETATM    5  C   UNL     1     -42.935 -55.134  15.078  1.00  0.00     0.002 C 
HETATM    6  C   UNL     1     -41.928 -54.147  15.657  1.00  0.00     0.005 C 
HETATM    7  C   UNL     1     -41.155 -53.383  14.569  1.00  0.00    -0.013 C 
HETATM    8  C   UNL     1     -42.168 -52.677  13.637  1.00  0.00     0.040 C 
BRANCH   7   9
HETATM    9  C   UNL     1     -40.189 -54.264  13.746  1.00  0.00     0.000 C 
HETATM   10  C   UNL     1     -39.009 -54.826  14.522  1.00  0.00     0.005 C 
ENDBRANCH   7   9
ENDBRANCH   1   3
BRANCH   1  11
HETATM   11  C   UNL     1     -45.405 -52.964  12.608  1.00  0.00     0.274 C 
BRANCH  11  12
HETATM   12  C   UNL     1     -45.917 -51.552  12.899  1.00  0.00     0.070 C 
BRANCH  12  13
HETATM   13  C   UNL     1     -45.925 -51.344  14.392  1.00  0.00    -0.041 A 
HETATM   14  C   UNL     1     -47.074 -51.588  15.148  1.00  0.00     0.010 A 
HETATM   15  C   UNL     1     -47.095 -51.259  16.500  1.00  0.00     0.018 A 
HETATM   16  C   UNL     1     -45.958 -50.694  17.053  1.00  0.00     0.087 A 
HETATM   17  N   UNL     1     -44.827 -50.449  16.359  1.00  0.00    -0.375 N 
HETATM   18  C   UNL     1     -44.836 -50.775  15.047  1.00  0.00     0.094 A 
ATOM     19  HN  UNL     1     -44.006 -50.037  16.803  1.00  0.00     0.164 HD
ENDBRANCH  12  13
ENDBRANCH  11  12
ENDBRANCH   1  11
TORSDOF 5
ENDMDL
MODEL 5
REMARK VINA RESULT:      -5.4      2.028      3.038
REMARK  5 active torsions:
REMARK  status: ('A' for Active; 'I' for Inactive)
REMARK    1  A    between atoms: C_2  and  C_3 
REMARK    2  A    between atoms: C_7  and  N_9 
REMARK    3  A    between atoms: N_9  and  C_10 
REMARK    4  A    between atoms: C_10  and  C_11 
REMARK    5  A    between atoms: C_11  and  C_12 
ROOT
HETATM    1  N   UNL     1     -43.453 -52.809  12.018  1.00  0.00     0.088 N 
HETATM    2  H   UNL     1     -43.664 -51.984  11.455  1.00  0.00     0.316 HD
ENDROOT
BRANCH   1   3
HETATM    3  C   UNL     1     -44.361 -52.831  13.185  1.00  0.00     0.220 C 
HETATM    4  C   UNL     1     -44.893 -54.242  13.490  1.00  0.00     0.035 C 
HETATM    5  C   UNL     1     -45.873 -54.260  14.663  1.00  0.00     0.002 C 
HETATM    6  C   UNL     1     -46.990 -53.237  14.495  1.00  0.00     0.005 C 
HETATM    7  C   UNL     1     -46.459 -51.820  14.222  1.00  0.00    -0.013 C 
HETATM    8  C   UNL     1     -45.538 -51.861  12.980  1.00  0.00     0.040 C 
BRANCH   7   9
HETATM    9  C   UNL     1     -45.720 -51.181  15.419  1.00  0.00     0.000 C 
HETATM   10  C   UNL     1     -46.561 -50.995  16.671  1.00  0.00     0.005 C 
ENDBRANCH   7   9
ENDBRANCH   1   3
BRANCH   1  11
HETATM   11  C   UNL     1     -42.054 -52.736  12.468  1.00  0.00     0.274 C 
BRANCH  11  12
HETATM   12  C   UNL     1     -41.658 -51.382  13.059  1.00  0.00     0.070 C 
BRANCH  12  13
HETATM   13  C   UNL     1     -40.320 -50.984  12.488  1.00  0.00    -0.041 A 
HETATM   14  C   UNL     1     -39.131 -51.291  13.153  1.00  0.00     0.010 A 
HETATM   15  C   UNL     1     -37.923 -50.795  12.673  1.00  0.00     0.018 A 
HETATM   16  C   UNL     1     -37.946 -50.004  11.538  1.00  0.00     0.087 A 
HETATM   17  N   UNL     1     -39.071 -49.689  10.863  1.00  0.00    -0.375 N 
HETATM   18  C   UNL     1     -40.231 -50.183  11.353  1.00  0.00     0.094 A 
ATOM     19  HN  UNL     1     -39.048 -49.108  10.025  1.00  0.00     0.164 HD
ENDBRANCH  12  13
ENDBRANCH  11  12
ENDBRANCH   1  11
TORSDOF 5
ENDMDL
MODEL 6
REMARK VINA RESULT:      -5.3      2.304      3.555
REMARK  5 active torsions:
REMARK  status: ('A' for Active; 'I' for Inactive)
REMARK    1  A    between atoms: C_2  and  C_3 
REMARK    2  A    between atoms: C_7  and  N_9 
REMARK    3  A    between atoms: N_9  and  C_10 
REMARK    4  A    between atoms: C_10  and  C_11 
REMARK    5  A    between atoms: C_11  and  C_12 
ROOT
HETATM    1  N   UNL     1     -43.308 -54.482  14.322  1.00  0.00     0.088 N 
HETATM    2  H   UNL     1     -43.155 -55.056  13.490  1.00  0.00     0.316 HD
ENDROOT
BRANCH   1   3
HETATM    3  C   UNL     1     -44.159 -53.331  13.951  1.00  0.00     0.220 C 
HETATM    4  C   UNL     1     -43.940 -52.118  14.874  1.00  0.00     0.035 C 
HETATM    5  C   UNL     1     -44.855 -50.944  14.527  1.00  0.00     0.002 C 
HETATM    6  C   UNL     1     -46.319 -51.360  14.444  1.00  0.00     0.005 C 
HETATM    7  C   UNL     1     -46.543 -52.551  13.498  1.00  0.00    -0.013 C 
HETATM    8  C   UNL     1     -45.646 -53.727  13.952  1.00  0.00     0.040 C 
BRANCH   7   9
HETATM    9  C   UNL     1     -46.295 -52.229  12.007  1.00  0.00     0.000 C 
HETATM   10  C   UNL     1     -47.466 -51.585  11.284  1.00  0.00     0.005 C 
ENDBRANCH   7   9
ENDBRANCH   1   3
BRANCH   1  11
HETATM   11  C   UNL     1     -42.009 -54.010  14.823  1.00  0.00     0.274 C 
BRANCH  11  12
HETATM   12  C   UNL     1     -40.840 -54.267  13.871  1.00  0.00     0.070 C 
BRANCH  12  13
HETATM   13  C   UNL     1     -40.486 -52.970  13.188  1.00  0.00    -0.041 A 
HETATM   14  C   UNL     1     -39.674 -52.022  13.816  1.00  0.00     0.010 A 
HETATM   15  C   UNL     1     -39.476 -50.780  13.221  1.00  0.00     0.018 A 
HETATM   16  C   UNL     1     -40.099 -50.527  12.011  1.00  0.00     0.087 A 
HETATM   17  N   UNL     1     -40.884 -51.418  11.369  1.00  0.00    -0.375 N 
HETATM   18  C   UNL     1     -41.062 -52.615  11.971  1.00  0.00     0.094 A 
ATOM     19  HN  UNL     1     -41.322 -51.198  10.474  1.00  0.00     0.164 HD
ENDBRANCH  12  13
ENDBRANCH  11  12
ENDBRANCH   1  11
TORSDOF 5
ENDMDL
MODEL 7
REMARK VINA RESULT:      -5.2      2.938      5.054
REMARK  5 active torsions:
REMARK  status: ('A' for Active; 'I' for Inactive)
REMARK    1  A    between atoms: C_2  and  C_3 
REMARK    2  A    between atoms: C_7  and  N_9 
REMARK    3  A    between atoms: N_9  and  C_10 
REMARK    4  A    between atoms: C_10  and  C_11 
REMARK    5  A    between atoms: C_11  and  C_12 
ROOT
HETATM    1  N   UNL     1     -42.311 -49.210  11.316  1.00  0.00     0.088 N 
HETATM    2  H   UNL     1     -42.711 -48.720  12.117  1.00  0.00     0.316 HD
ENDROOT
BRANCH   1   3
HETATM    3  C   UNL     1     -41.290 -50.161  11.804  1.00  0.00     0.220 C 
HETATM    4  C   UNL     1     -41.912 -51.460  12.351  1.00  0.00     0.035 C 
HETATM    5  C   UNL     1     -40.863 -52.425  12.905  1.00  0.00     0.002 C 
HETATM    6  C   UNL     1     -39.936 -51.751  13.909  1.00  0.00     0.005 C 
HETATM    7  C   UNL     1     -39.290 -50.471  13.354  1.00  0.00    -0.013 C 
HETATM    8  C   UNL     1     -40.407 -49.510  12.883  1.00  0.00     0.040 C 
BRANCH   7   9
HETATM    9  C   UNL     1     -38.277 -50.719  12.213  1.00  0.00     0.000 C 
HETATM   10  C   UNL     1     -37.698 -49.464  11.581  1.00  0.00     0.005 C 
ENDBRANCH   7   9
ENDBRANCH   1   3
BRANCH   1  11
HETATM   11  C   UNL     1     -41.694 -48.226  10.413  1.00  0.00     0.274 C 
BRANCH  11  12
HETATM   12  C   UNL     1     -42.555 -46.988  10.155  1.00  0.00     0.070 C 
BRANCH  12  13
HETATM   13  C   UNL     1     -43.740 -47.397   9.317  1.00  0.00    -0.041 A 
HETATM   14  C   UNL     1     -45.023 -47.461   9.864  1.00  0.00     0.010 A 
HETATM   15  C   UNL     1     -46.073 -47.970   9.107  1.00  0.00     0.018 A 
HETATM   16  C   UNL     1     -45.802 -48.400   7.819  1.00  0.00     0.087 A 
HETATM   17  N   UNL     1     -44.579 -48.349   7.251  1.00  0.00    -0.375 N 
HETATM   18  C   UNL     1     -43.577 -47.853   8.011  1.00  0.00     0.094 A 
ATOM     19  HN  UNL     1     -44.418 -48.670   6.296  1.00  0.00     0.164 HD
ENDBRANCH  12  13
ENDBRANCH  11  12
ENDBRANCH   1  11
TORSDOF 5
ENDMDL
MODEL 8
REMARK VINA RESULT:      -5.0      2.757      5.345
REMARK  5 active torsions:
REMARK  status: ('A' for Active; 'I' for Inactive)
REMARK    1  A    between atoms: C_2  and  C_3 
REMARK    2  A    between atoms: C_7  and  N_9 
REMARK    3  A    between atoms: N_9  and  C_10 
REMARK    4  A    between atoms: C_10  and  C_11 
REMARK    5  A    between atoms: C_11  and  C_12 
ROOT
HETATM    1  N   UNL     1     -42.497 -51.429  13.282  1.00  0.00     0.088 N 
HETATM    2  H   UNL     1     -42.026 -51.257  14.172  1.00  0.00     0.316 HD
ENDROOT
BRANCH   1   3
HETATM    3  C   UNL     1     -43.958 -51.382  13.505  1.00  0.00     0.220 C 
HETATM    4  C   UNL     1     -44.322 -51.302  14.999  1.00  0.00     0.035 C 
HETATM    5  C   UNL     1     -45.833 -51.306  15.236  1.00  0.00     0.002 C 
HETATM    6  C   UNL     1     -46.523 -52.464  14.526  1.00  0.00     0.005 C 
HETATM    7  C   UNL     1     -46.185 -52.526  13.028  1.00  0.00    -0.013 C 
HETATM    8  C   UNL     1     -44.649 -52.598  12.863  1.00  0.00     0.040 C 
BRANCH   7   9
HETATM    9  C   UNL     1     -46.761 -51.354  12.201  1.00  0.00     0.000 C 
HETATM   10  C   UNL     1     -47.491 -51.758  10.931  1.00  0.00     0.005 C 
ENDBRANCH   7   9
ENDBRANCH   1   3
BRANCH   1  11
HETATM   11  C   UNL     1     -42.105 -52.754  12.781  1.00  0.00     0.274 C 
BRANCH  11  12
HETATM   12  C   UNL     1     -40.781 -53.271  13.348  1.00  0.00     0.070 C 
BRANCH  12  13
HETATM   13  C   UNL     1     -41.084 -54.276  14.430  1.00  0.00    -0.041 A 
HETATM   14  C   UNL     1     -42.397 -54.664  14.707  1.00  0.00     0.010 A 
HETATM   15  C   UNL     1     -42.659 -55.488  15.797  1.00  0.00     0.018 A 
HETATM   16  C   UNL     1     -41.592 -55.898  16.578  1.00  0.00     0.087 A 
HETATM   17  N   UNL     1     -40.309 -55.551  16.341  1.00  0.00    -0.375 N 
HETATM   18  C   UNL     1     -40.085 -54.747  15.277  1.00  0.00     0.094 A 
ATOM     19  HN  UNL     1     -39.548 -55.878  16.936  1.00  0.00     0.164 HD
ENDBRANCH  12  13
ENDBRANCH  11  12
ENDBRANCH   1  11
TORSDOF 5
ENDMDL
MODEL 9
REMARK VINA RESULT:      -4.9      2.691      4.350
REMARK  5 active torsions:
REMARK  status: ('A' for Active; 'I' for Inactive)
REMARK    1  A    between atoms: C_2  and  C_3 
REMARK    2  A    between atoms: C_7  and  N_9 
REMARK    3  A    between atoms: N_9  and  C_10 
REMARK    4  A    between atoms: C_10  and  C_11 
REMARK    5  A    between atoms: C_11  and  C_12 
ROOT
HETATM    1  N   UNL     1     -43.761 -53.932  16.531  1.00  0.00     0.088 N 
HETATM    2  H   UNL     1     -44.277 -54.480  17.221  1.00  0.00     0.316 HD
ENDROOT
BRANCH   1   3
HETATM    3  C   UNL     1     -44.646 -52.865  16.018  1.00  0.00     0.220 C 
HETATM    4  C   UNL     1     -45.144 -51.927  17.132  1.00  0.00     0.035 C 
HETATM    5  C   UNL     1     -46.101 -50.854  16.614  1.00  0.00     0.002 C 
HETATM    6  C   UNL     1     -47.241 -51.447  15.795  1.00  0.00     0.005 C 
HETATM    7  C   UNL     1     -46.745 -52.359  14.662  1.00  0.00    -0.013 C 
HETATM    8  C   UNL     1     -45.847 -53.465  15.265  1.00  0.00     0.040 C 
BRANCH   7   9
HETATM    9  C   UNL     1     -45.997 -51.614  13.534  1.00  0.00     0.000 C 
HETATM   10  C   UNL     1     -46.714 -51.584  12.194  1.00  0.00     0.005 C 
ENDBRANCH   7   9
ENDBRANCH   1   3
BRANCH   1  11
HETATM   11  C   UNL     1     -43.345 -54.816  15.432  1.00  0.00     0.274 C 
BRANCH  11  12
HETATM   12  C   UNL     1     -41.855 -54.735  15.095  1.00  0.00     0.070 C 
BRANCH  12  13
HETATM   13  C   UNL     1     -41.657 -53.662  14.054  1.00  0.00    -0.041 A 
HETATM   14  C   UNL     1     -42.626 -53.416  13.079  1.00  0.00     0.010 A 
HETATM   15  C   UNL     1     -42.360 -52.516  12.052  1.00  0.00     0.018 A 
HETATM   16  C   UNL     1     -41.126 -51.888  12.036  1.00  0.00     0.087 A 
HETATM   17  N   UNL     1     -40.166 -52.093  12.962  1.00  0.00    -0.375 N 
HETATM   18  C   UNL     1     -40.451 -52.975  13.947  1.00  0.00     0.094 A 
ATOM     19  HN  UNL     1     -39.270 -51.607  12.921  1.00  0.00     0.164 HD
ENDBRANCH  12  13
ENDBRANCH  11  12
ENDBRANCH   1  11
TORSDOF 5
ENDMDL
