MODEL 1
REMARK VINA RESULT:      -4.9      0.000      0.000
REMARK  1 active torsions:
REMARK  status: ('A' for Active; 'I' for Inactive)
REMARK    1  A    between atoms: C_12  and  C_13 
ROOT
HETATM    1  C   UNL     3     -40.656 -54.011  14.396  1.00  0.00     0.158 C 
HETATM    2  N   UNL     3     -41.404 -53.440  13.278  1.00  0.00    -0.333 N 
HETATM    3  C   UNL     3     -40.880 -52.774  12.238  1.00  0.00     0.200 A 
HETATM    4  N   UNL     3     -41.840 -52.407  11.371  1.00  0.00    -0.295 N 
ATOM      5  HN  UNL     3     -41.706 -51.888  10.503  1.00  0.00     0.187 HD
HETATM    6  N   UNL     3     -42.995 -52.846  11.853  1.00  0.00    -0.286 N 
ATOM      7  HN  UNL     3     -43.913 -52.734  11.421  1.00  0.00     0.188 HD
HETATM    8  C   UNL     3     -42.730 -53.468  13.019  1.00  0.00     0.130 A 
ENDROOT
BRANCH   8   9
HETATM    9  C   UNL     3     -43.787 -54.123  13.873  1.00  0.00     0.218 C 
HETATM   10  C   UNL     3     -44.370 -53.140  14.910  1.00  0.00     0.309 C 
HETATM   11  N   UNL     3     -45.359 -53.847  15.734  1.00  0.00     0.088 N 
HETATM   12  C   UNL     3     -46.401 -54.443  14.890  1.00  0.00     0.295 C 
HETATM   13  H   UNL     3     -45.803 -53.173  16.401  1.00  0.00     0.316 HD
HETATM   14  C   UNL     3     -45.756 -55.335  13.820  1.00  0.00     0.198 C 
HETATM   15  O   UNL     3     -44.835 -54.591  13.039  1.00  0.00    -0.375 OA
ENDBRANCH   8   9
TORSDOF 1
ENDMDL
MODEL 2
REMARK VINA RESULT:      -4.8      5.971      7.348
REMARK  1 active torsions:
REMARK  status: ('A' for Active; 'I' for Inactive)
REMARK    1  A    between atoms: C_12  and  C_13 
ROOT
HETATM    1  C   UNL     3     -42.082 -48.564  13.368  1.00  0.00     0.158 C 
HETATM    2  N   UNL     3     -41.506 -48.904  12.068  1.00  0.00    -0.333 N 
HETATM    3  C   UNL     3     -40.519 -49.786  11.850  1.00  0.00     0.200 A 
HETATM    4  N   UNL     3     -40.246 -49.883  10.537  1.00  0.00    -0.295 N 
ATOM      5  HN  UNL     3     -39.537 -50.479  10.110  1.00  0.00     0.187 HD
HETATM    6  N   UNL     3     -41.068 -49.060   9.900  1.00  0.00    -0.286 N 
ATOM      7  HN  UNL     3     -41.115 -48.911   8.892  1.00  0.00     0.188 HD
HETATM    8  C   UNL     3     -41.831 -48.457  10.834  1.00  0.00     0.130 A 
ENDROOT
BRANCH   8   9
HETATM    9  C   UNL     3     -42.909 -47.454  10.508  1.00  0.00     0.218 C 
HETATM   10  C   UNL     3     -42.352 -46.016  10.460  1.00  0.00     0.309 C 
HETATM   11  N   UNL     3     -43.455 -45.086  10.182  1.00  0.00     0.088 N 
HETATM   12  C   UNL     3     -44.139 -45.457   8.937  1.00  0.00     0.295 C 
HETATM   13  H   UNL     3     -43.078 -44.115  10.088  1.00  0.00     0.316 HD
HETATM   14  C   UNL     3     -44.587 -46.924   9.007  1.00  0.00     0.198 C 
HETATM   15  O   UNL     3     -43.477 -47.773   9.248  1.00  0.00    -0.375 OA
ENDBRANCH   8   9
TORSDOF 1
ENDMDL
MODEL 3
REMARK VINA RESULT:      -4.7      1.505      1.617
REMARK  1 active torsions:
REMARK  status: ('A' for Active; 'I' for Inactive)
REMARK    1  A    between atoms: C_12  and  C_13 
ROOT
HETATM    1  C   UNL     3     -41.184 -51.720  14.792  1.00  0.00     0.158 C 
HETATM    2  N   UNL     3     -41.507 -52.072  13.410  1.00  0.00    -0.333 N 
HETATM    3  C   UNL     3     -40.671 -52.002  12.364  1.00  0.00     0.200 A 
HETATM    4  N   UNL     3     -41.274 -52.425  11.239  1.00  0.00    -0.295 N 
ATOM      5  HN  UNL     3     -40.858 -52.466  10.308  1.00  0.00     0.187 HD
HETATM    6  N   UNL     3     -42.511 -52.778  11.564  1.00  0.00    -0.286 N 
ATOM      7  HN  UNL     3     -43.220 -53.149  10.931  1.00  0.00     0.188 HD
HETATM    8  C   UNL     3     -42.655 -52.555  12.885  1.00  0.00     0.130 A 
ENDROOT
BRANCH   8   9
HETATM    9  C   UNL     3     -43.925 -52.848  13.645  1.00  0.00     0.218 C 
HETATM   10  C   UNL     3     -45.108 -53.121  12.693  1.00  0.00     0.309 C 
HETATM   11  N   UNL     3     -46.318 -53.355  13.490  1.00  0.00     0.088 N 
HETATM   12  C   UNL     3     -46.105 -54.457  14.437  1.00  0.00     0.295 C 
HETATM   13  H   UNL     3     -47.113 -53.600  12.855  1.00  0.00     0.316 HD
HETATM   14  C   UNL     3     -44.862 -54.174  15.293  1.00  0.00     0.198 C 
HETATM   15  O   UNL     3     -43.723 -53.985  14.469  1.00  0.00    -0.375 OA
ENDBRANCH   8   9
TORSDOF 1
ENDMDL
MODEL 4
REMARK VINA RESULT:      -4.5      1.455      4.421
REMARK  1 active torsions:
REMARK  status: ('A' for Active; 'I' for Inactive)
REMARK    1  A    between atoms: C_12  and  C_13 
ROOT
HETATM    1  C   UNL     3     -44.008 -52.811  15.950  1.00  0.00     0.158 C 
HETATM    2  N   UNL     3     -44.873 -53.678  15.152  1.00  0.00    -0.333 N 
HETATM    3  C   UNL     3     -46.099 -54.099  15.495  1.00  0.00     0.200 A 
HETATM    4  N   UNL     3     -46.633 -54.862  14.525  1.00  0.00    -0.295 N 
ATOM      5  HN  UNL     3     -47.551 -55.306  14.541  1.00  0.00     0.187 HD
HETATM    6  N   UNL     3     -45.745 -54.928  13.542  1.00  0.00    -0.286 N 
ATOM      7  HN  UNL     3     -45.856 -55.427  12.659  1.00  0.00     0.188 HD
HETATM    8  C   UNL     3     -44.668 -54.214  13.928  1.00  0.00     0.130 A 
ENDROOT
BRANCH   8   9
HETATM    9  C   UNL     3     -43.440 -54.032  13.073  1.00  0.00     0.218 C 
HETATM   10  C   UNL     3     -43.354 -52.602  12.499  1.00  0.00     0.309 C 
HETATM   11  N   UNL     3     -42.164 -52.502  11.644  1.00  0.00     0.088 N 
HETATM   12  C   UNL     3     -40.958 -52.870  12.395  1.00  0.00     0.295 C 
HETATM   13  H   UNL     3     -42.064 -51.520  11.298  1.00  0.00     0.316 HD
HETATM   14  C   UNL     3     -41.139 -54.260  13.021  1.00  0.00     0.198 C 
HETATM   15  O   UNL     3     -42.285 -54.286  13.856  1.00  0.00    -0.375 OA
ENDBRANCH   8   9
TORSDOF 1
ENDMDL
MODEL 5
REMARK VINA RESULT:      -4.4      3.834      5.516
REMARK  1 active torsions:
REMARK  status: ('A' for Active; 'I' for Inactive)
REMARK    1  A    between atoms: C_12  and  C_13 
ROOT
HETATM    1  C   UNL     3     -40.193 -51.965  14.820  1.00  0.00     0.158 C 
HETATM    2  N   UNL     3     -40.480 -52.406  13.456  1.00  0.00    -0.333 N 
HETATM    3  C   UNL     3     -40.560 -53.679  13.039  1.00  0.00     0.200 A 
HETATM    4  N   UNL     3     -40.866 -53.737  11.731  1.00  0.00    -0.295 N 
ATOM      5  HN  UNL     3     -40.981 -54.583  11.174  1.00  0.00     0.187 HD
HETATM    6  N   UNL     3     -40.991 -52.489  11.299  1.00  0.00    -0.286 N 
ATOM      7  HN  UNL     3     -41.227 -52.197  10.351  1.00  0.00     0.188 HD
HETATM    8  C   UNL     3     -40.747 -51.678  12.348  1.00  0.00     0.130 A 
ENDROOT
BRANCH   8   9
HETATM    9  C   UNL     3     -40.807 -50.173  12.269  1.00  0.00     0.218 C 
HETATM   10  C   UNL     3     -39.737 -49.611  11.309  1.00  0.00     0.309 C 
HETATM   11  N   UNL     3     -39.820 -48.144  11.310  1.00  0.00     0.088 N 
HETATM   12  C   UNL     3     -41.173 -47.705  10.948  1.00  0.00     0.295 C 
HETATM   13  H   UNL     3     -39.138 -47.756  10.617  1.00  0.00     0.316 HD
HETATM   14  C   UNL     3     -42.201 -48.369  11.876  1.00  0.00     0.198 C 
HETATM   15  O   UNL     3     -42.091 -49.781  11.811  1.00  0.00    -0.375 OA
ENDBRANCH   8   9
TORSDOF 1
ENDMDL
MODEL 6
REMARK VINA RESULT:      -4.4      3.062      4.101
REMARK  1 active torsions:
REMARK  status: ('A' for Active; 'I' for Inactive)
REMARK    1  A    between atoms: C_12  and  C_13 
ROOT
HETATM    1  C   UNL     3     -39.033 -49.256  13.745  1.00  0.00     0.158 C 
HETATM    2  N   UNL     3     -39.696 -49.807  12.565  1.00  0.00    -0.333 N 
HETATM    3  C   UNL     3     -39.782 -49.219  11.362  1.00  0.00     0.200 A 
HETATM    4  N   UNL     3     -40.434 -50.007  10.489  1.00  0.00    -0.295 N 
ATOM      5  HN  UNL     3     -40.635 -49.791   9.513  1.00  0.00     0.187 HD
HETATM    6  N   UNL     3     -40.768 -51.118  11.133  1.00  0.00    -0.286 N 
ATOM      7  HN  UNL     3     -41.266 -51.917  10.742  1.00  0.00     0.188 HD
HETATM    8  C   UNL     3     -40.325 -50.992  12.400  1.00  0.00     0.130 A 
ENDROOT
BRANCH   8   9
HETATM    9  C   UNL     3     -40.496 -52.060  13.451  1.00  0.00     0.218 C 
HETATM   10  C   UNL     3     -41.960 -52.157  13.932  1.00  0.00     0.309 C 
HETATM   11  N   UNL     3     -42.051 -53.180  14.981  1.00  0.00     0.088 N 
HETATM   12  C   UNL     3     -41.544 -54.467  14.490  1.00  0.00     0.295 C 
HETATM   13  H   UNL     3     -43.050 -53.295  15.271  1.00  0.00     0.316 HD
HETATM   14  C   UNL     3     -40.121 -54.290  13.939  1.00  0.00     0.198 C 
HETATM   15  O   UNL     3     -40.103 -53.312  12.912  1.00  0.00    -0.375 OA
ENDBRANCH   8   9
TORSDOF 1
ENDMDL
MODEL 7
REMARK VINA RESULT:      -4.3      6.646      7.279
REMARK  1 active torsions:
REMARK  status: ('A' for Active; 'I' for Inactive)
REMARK    1  A    between atoms: C_12  and  C_13 
ROOT
HETATM    1  C   UNL     3     -38.725 -47.983  13.855  1.00  0.00     0.158 C 
HETATM    2  N   UNL     3     -38.756 -48.846  12.675  1.00  0.00    -0.333 N 
HETATM    3  C   UNL     3     -37.916 -49.861  12.420  1.00  0.00     0.200 A 
HETATM    4  N   UNL     3     -38.237 -50.468  11.263  1.00  0.00    -0.295 N 
ATOM      5  HN  UNL     3     -37.754 -51.262  10.843  1.00  0.00     0.187 HD
HETATM    6  N   UNL     3     -39.299 -49.843  10.771  1.00  0.00    -0.286 N 
ATOM      7  HN  UNL     3     -39.788 -50.072   9.906  1.00  0.00     0.188 HD
HETATM    8  C   UNL     3     -39.609 -48.849  11.627  1.00  0.00     0.130 A 
ENDROOT
BRANCH   8   9
HETATM    9  C   UNL     3     -40.775 -47.913  11.428  1.00  0.00     0.218 C 
HETATM   10  C   UNL     3     -40.313 -46.532  10.915  1.00  0.00     0.309 C 
HETATM   11  N   UNL     3     -41.485 -45.656  10.784  1.00  0.00     0.088 N 
HETATM   12  C   UNL     3     -42.488 -46.267   9.903  1.00  0.00     0.295 C 
HETATM   13  H   UNL     3     -41.190 -44.737  10.381  1.00  0.00     0.316 HD
HETATM   14  C   UNL     3     -42.837 -47.674  10.410  1.00  0.00     0.198 C 
HETATM   15  O   UNL     3     -41.673 -48.479  10.488  1.00  0.00    -0.375 OA
ENDBRANCH   8   9
TORSDOF 1
ENDMDL
MODEL 8
REMARK VINA RESULT:      -4.2      5.792      7.329
REMARK  1 active torsions:
REMARK  status: ('A' for Active; 'I' for Inactive)
REMARK    1  A    between atoms: C_12  and  C_13 
ROOT
HETATM    1  C   UNL     3     -41.955 -46.175  12.589  1.00  0.00     0.158 C 
HETATM    2  N   UNL     3     -42.042 -46.908  11.327  1.00  0.00    -0.333 N 
HETATM    3  C   UNL     3     -42.756 -46.544  10.252  1.00  0.00     0.200 A 
HETATM    4  N   UNL     3     -42.594 -47.426   9.249  1.00  0.00    -0.295 N 
ATOM      5  HN  UNL     3     -43.031 -47.381   8.328  1.00  0.00     0.187 HD
HETATM    6  N   UNL     3     -41.763 -48.366   9.680  1.00  0.00    -0.286 N 
ATOM      7  HN  UNL     3     -41.435 -49.173   9.149  1.00  0.00     0.188 HD
HETATM    8  C   UNL     3     -41.433 -48.055  10.949  1.00  0.00     0.130 A 
ENDROOT
BRANCH   8   9
HETATM    9  C   UNL     3     -40.486 -48.876  11.788  1.00  0.00     0.218 C 
HETATM   10  C   UNL     3     -40.422 -50.340  11.305  1.00  0.00     0.309 C 
HETATM   11  N   UNL     3     -39.521 -51.094  12.186  1.00  0.00     0.088 N 
HETATM   12  C   UNL     3     -38.195 -50.466  12.224  1.00  0.00     0.295 C 
HETATM   13  H   UNL     3     -39.425 -52.074  11.830  1.00  0.00     0.316 HD
HETATM   14  C   UNL     3     -38.331 -48.988  12.619  1.00  0.00     0.198 C 
HETATM   15  O   UNL     3     -39.188 -48.309  11.717  1.00  0.00    -0.375 OA
ENDBRANCH   8   9
TORSDOF 1
ENDMDL
MODEL 9
REMARK VINA RESULT:      -4.2      2.319      4.266
REMARK  1 active torsions:
REMARK  status: ('A' for Active; 'I' for Inactive)
REMARK    1  A    between atoms: C_12  and  C_13 
ROOT
HETATM    1  C   UNL     3     -45.193 -51.069  15.273  1.00  0.00     0.158 C 
HETATM    2  N   UNL     3     -45.463 -51.643  13.956  1.00  0.00    -0.333 N 
HETATM    3  C   UNL     3     -46.627 -51.580  13.292  1.00  0.00     0.200 A 
HETATM    4  N   UNL     3     -46.530 -52.186  12.096  1.00  0.00    -0.295 N 
ATOM      5  HN  UNL     3     -47.273 -52.280  11.403  1.00  0.00     0.187 HD
HETATM    6  N   UNL     3     -45.289 -52.639  11.983  1.00  0.00    -0.286 N 
ATOM      7  HN  UNL     3     -44.897 -53.139  11.184  1.00  0.00     0.188 HD
HETATM    8  C   UNL     3     -44.641 -52.316  13.120  1.00  0.00     0.130 A 
ENDROOT
BRANCH   8   9
HETATM    9  C   UNL     3     -43.191 -52.644  13.375  1.00  0.00     0.218 C 
HETATM   10  C   UNL     3     -43.021 -54.075  13.927  1.00  0.00     0.309 C 
HETATM   11  N   UNL     3     -41.597 -54.317  14.194  1.00  0.00     0.088 N 
HETATM   12  C   UNL     3     -40.801 -54.095  12.981  1.00  0.00     0.295 C 
HETATM   13  H   UNL     3     -41.465 -55.306  14.512  1.00  0.00     0.316 HD
HETATM   14  C   UNL     3     -41.083 -52.691  12.425  1.00  0.00     0.198 C 
HETATM   15  O   UNL     3     -42.466 -52.528  12.161  1.00  0.00    -0.375 OA
ENDBRANCH   8   9
TORSDOF 1
ENDMDL
