MODEL 1
REMARK VINA RESULT:      -6.2      0.000      0.000
REMARK  4 active torsions:
REMARK  status: ('A' for Active; 'I' for Inactive)
REMARK    1  A    between atoms: C_5  and  N_8 
REMARK       I    between atoms: N_8  and  C_9 
REMARK       I    between atoms: C_9  and  N_11 
REMARK    2  A    between atoms: N_11  and  C_12 
REMARK    3  A    between atoms: N_16  and  C_17 
REMARK    4  A    between atoms: C_17  and  C_18 
REMARK       I    between atoms: C_18  and  N_20 
ROOT
HETATM    1  N   UNL     1     -43.087 -51.022  12.644  1.00  0.00    -0.338 N 
HETATM    2  C   UNL     1     -42.790 -49.683  12.501  1.00  0.00     0.321 C 
HETATM    3  O   UNL     1     -43.129 -48.842  13.327  1.00  0.00    -0.247 OA
HETATM    4  N   UNL     1     -42.148 -49.424  11.308  1.00  0.00    -0.306 N 
HETATM    5  H   UNL     1     -42.415 -51.663  12.250  1.00  0.00     0.164 HD
HETATM    6  H   UNL     1     -42.155 -50.145  10.604  1.00  0.00     0.171 HD
ENDROOT
BRANCH   4   7
HETATM    7  C   UNL     1     -41.858 -48.136  10.895  1.00  0.00     0.070 C 
HETATM    8  C   UNL     1     -42.488 -47.314   9.938  1.00  0.00     0.138 C 
HETATM    9  N   UNL     1     -41.848 -46.156   9.761  1.00  0.00    -0.307 N 
HETATM   10  N   UNL     1     -40.780 -46.253  10.583  1.00  0.00    -0.293 N 
ATOM     11  HN  UNL     1     -42.104 -45.380   9.149  1.00  0.00     0.186 HD
HETATM   12  C   UNL     1     -40.806 -47.381  11.359  1.00  0.00     0.141 C 
BRANCH  10  13
HETATM   13  C   UNL     1     -39.787 -45.194  10.527  1.00  0.00     0.250 C 
BRANCH  13  14
HETATM   14  C   UNL     1     -40.260 -43.881  11.099  1.00  0.00     0.235 C 
HETATM   15  O   UNL     1     -41.051 -43.136  10.534  1.00  0.00    -0.272 OA
HETATM   16  N   UNL     1     -39.730 -43.515  12.306  1.00  0.00    -0.369 N 
HETATM   17  H   UNL     1     -39.200 -44.148  12.894  1.00  0.00     0.159 HD
HETATM   18  H   UNL     1     -40.067 -42.654  12.717  1.00  0.00     0.159 HD
ENDBRANCH  13  14
ENDBRANCH  10  13
ENDBRANCH   4   7
BRANCH   1  19
HETATM   19  C   UNL     1     -43.862 -51.474  13.797  1.00  0.00     0.086 C 
HETATM   20  C   UNL     1     -43.301 -52.778  14.381  1.00  0.00     0.026 C 
HETATM   21  C   UNL     1     -43.604 -53.992  13.502  1.00  0.00     0.006 C 
HETATM   22  C   UNL     1     -45.095 -54.128  13.162  1.00  0.00    -0.019 C 
HETATM   23  C   UNL     1     -45.911 -54.581  14.377  1.00  0.00     0.010 C 
HETATM   24  C   UNL     1     -45.642 -52.824  12.568  1.00  0.00     0.006 C 
HETATM   25  C   UNL     1     -45.344 -51.600  13.434  1.00  0.00     0.026 C 
ENDBRANCH   1  19
TORSDOF 4
ENDMDL
MODEL 2
REMARK VINA RESULT:      -5.8      3.909      7.150
REMARK  4 active torsions:
REMARK  status: ('A' for Active; 'I' for Inactive)
REMARK    1  A    between atoms: C_5  and  N_8 
REMARK       I    between atoms: N_8  and  C_9 
REMARK       I    between atoms: C_9  and  N_11 
REMARK    2  A    between atoms: N_11  and  C_12 
REMARK    3  A    between atoms: N_16  and  C_17 
REMARK    4  A    between atoms: C_17  and  C_18 
REMARK       I    between atoms: C_18  and  N_20 
ROOT
HETATM    1  N   UNL     1     -41.816 -48.415   9.683  1.00  0.00    -0.338 N 
HETATM    2  C   UNL     1     -41.210 -48.792  10.863  1.00  0.00     0.321 C 
HETATM    3  O   UNL     1     -41.295 -48.125  11.888  1.00  0.00    -0.247 OA
HETATM    4  N   UNL     1     -40.464 -49.942  10.712  1.00  0.00    -0.306 N 
HETATM    5  H   UNL     1     -42.115 -49.171   9.084  1.00  0.00     0.164 HD
HETATM    6  H   UNL     1     -40.262 -50.253   9.775  1.00  0.00     0.171 HD
ENDROOT
BRANCH   4   7
HETATM    7  C   UNL     1     -39.673 -50.442  11.731  1.00  0.00     0.070 C 
HETATM    8  C   UNL     1     -38.285 -50.335  11.953  1.00  0.00     0.138 C 
HETATM    9  N   UNL     1     -37.883 -51.040  13.014  1.00  0.00    -0.307 N 
HETATM   10  N   UNL     1     -39.015 -51.632  13.450  1.00  0.00    -0.293 N 
ATOM     11  HN  UNL     1     -36.942 -51.113  13.402  1.00  0.00     0.186 HD
HETATM   12  C   UNL     1     -40.130 -51.217  12.772  1.00  0.00     0.141 C 
BRANCH  10  13
HETATM   13  C   UNL     1     -38.899 -52.596  14.531  1.00  0.00     0.250 C 
BRANCH  13  14
HETATM   14  C   UNL     1     -39.569 -53.917  14.249  1.00  0.00     0.235 C 
HETATM   15  O   UNL     1     -40.729 -54.172  14.551  1.00  0.00    -0.272 OA
HETATM   16  N   UNL     1     -38.800 -54.875  13.647  1.00  0.00    -0.369 N 
HETATM   17  H   UNL     1     -37.896 -54.681  13.233  1.00  0.00     0.159 HD
HETATM   18  H   UNL     1     -39.249 -55.753  13.420  1.00  0.00     0.159 HD
ENDBRANCH  13  14
ENDBRANCH  10  13
ENDBRANCH   4   7
BRANCH   1  19
HETATM   19  C   UNL     1     -42.564 -47.162   9.619  1.00  0.00     0.086 C 
HETATM   20  C   UNL     1     -43.663 -47.101  10.688  1.00  0.00     0.026 C 
HETATM   21  C   UNL     1     -44.849 -48.009  10.361  1.00  0.00     0.006 C 
HETATM   22  C   UNL     1     -45.422 -47.764   8.959  1.00  0.00    -0.019 C 
HETATM   23  C   UNL     1     -46.186 -46.438   8.884  1.00  0.00     0.010 C 
HETATM   24  C   UNL     1     -44.317 -47.839   7.896  1.00  0.00     0.006 C 
HETATM   25  C   UNL     1     -43.122 -46.939   8.211  1.00  0.00     0.026 C 
ENDBRANCH   1  19
TORSDOF 4
ENDMDL
MODEL 3
REMARK VINA RESULT:      -5.7      3.264      4.470
REMARK  4 active torsions:
REMARK  status: ('A' for Active; 'I' for Inactive)
REMARK    1  A    between atoms: C_5  and  N_8 
REMARK       I    between atoms: N_8  and  C_9 
REMARK       I    between atoms: C_9  and  N_11 
REMARK    2  A    between atoms: N_11  and  C_12 
REMARK    3  A    between atoms: N_16  and  C_17 
REMARK    4  A    between atoms: C_17  and  C_18 
REMARK       I    between atoms: C_18  and  N_20 
ROOT
HETATM    1  N   UNL     1     -40.685 -52.505  13.819  1.00  0.00    -0.338 N 
HETATM    2  C   UNL     1     -41.319 -51.836  12.794  1.00  0.00     0.321 C 
HETATM    3  O   UNL     1     -41.962 -52.417  11.927  1.00  0.00    -0.247 OA
HETATM    4  N   UNL     1     -41.076 -50.479  12.839  1.00  0.00    -0.306 N 
HETATM    5  H   UNL     1     -40.617 -52.004  14.692  1.00  0.00     0.164 HD
HETATM    6  H   UNL     1     -40.332 -50.153  13.437  1.00  0.00     0.171 HD
ENDROOT
BRANCH   4   7
HETATM    7  C   UNL     1     -41.512 -49.622  11.845  1.00  0.00     0.070 C 
HETATM    8  C   UNL     1     -40.868 -49.168  10.675  1.00  0.00     0.138 C 
HETATM    9  N   UNL     1     -41.596 -48.268  10.009  1.00  0.00    -0.307 N 
HETATM   10  N   UNL     1     -42.696 -48.116  10.778  1.00  0.00    -0.293 N 
ATOM     11  HN  UNL     1     -41.374 -47.805   9.128  1.00  0.00     0.186 HD
HETATM   12  C   UNL     1     -42.733 -48.988  11.834  1.00  0.00     0.141 C 
BRANCH  10  13
HETATM   13  C   UNL     1     -43.647 -47.086  10.399  1.00  0.00     0.250 C 
BRANCH  13  14
HETATM   14  C   UNL     1     -43.724 -46.840   8.913  1.00  0.00     0.235 C 
HETATM   15  O   UNL     1     -43.093 -45.964   8.332  1.00  0.00    -0.272 OA
HETATM   16  N   UNL     1     -44.581 -47.637   8.205  1.00  0.00    -0.369 N 
HETATM   17  H   UNL     1     -45.007 -48.471   8.590  1.00  0.00     0.159 HD
HETATM   18  H   UNL     1     -44.614 -47.505   7.203  1.00  0.00     0.159 HD
ENDBRANCH  13  14
ENDBRANCH  10  13
ENDBRANCH   4   7
BRANCH   1  19
HETATM   19  C   UNL     1     -40.739 -53.964  13.876  1.00  0.00     0.086 C 
HETATM   20  C   UNL     1     -41.814 -54.454  14.855  1.00  0.00     0.026 C 
HETATM   21  C   UNL     1     -41.411 -54.254  16.316  1.00  0.00     0.006 C 
HETATM   22  C   UNL     1     -40.040 -54.858  16.647  1.00  0.00    -0.019 C 
HETATM   23  C   UNL     1     -40.090 -56.388  16.684  1.00  0.00     0.010 C 
HETATM   24  C   UNL     1     -38.969 -54.351  15.671  1.00  0.00     0.006 C 
HETATM   25  C   UNL     1     -39.360 -54.541  14.205  1.00  0.00     0.026 C 
ENDBRANCH   1  19
TORSDOF 4
ENDMDL
MODEL 4
REMARK VINA RESULT:      -5.3      4.267      6.510
REMARK  4 active torsions:
REMARK  status: ('A' for Active; 'I' for Inactive)
REMARK    1  A    between atoms: C_5  and  N_8 
REMARK       I    between atoms: N_8  and  C_9 
REMARK       I    between atoms: C_9  and  N_11 
REMARK    2  A    between atoms: N_11  and  C_12 
REMARK    3  A    between atoms: N_16  and  C_17 
REMARK    4  A    between atoms: C_17  and  C_18 
REMARK       I    between atoms: C_18  and  N_20 
ROOT
HETATM    1  N   UNL     1     -41.982 -48.437   9.573  1.00  0.00    -0.338 N 
HETATM    2  C   UNL     1     -41.149 -48.542  10.667  1.00  0.00     0.321 C 
HETATM    3  O   UNL     1     -41.007 -47.630  11.474  1.00  0.00    -0.247 OA
HETATM    4  N   UNL     1     -40.471 -49.742  10.684  1.00  0.00    -0.306 N 
HETATM    5  H   UNL     1     -42.412 -49.298   9.268  1.00  0.00     0.164 HD
HETATM    6  H   UNL     1     -40.475 -50.297   9.842  1.00  0.00     0.171 HD
ENDROOT
BRANCH   4   7
HETATM    7  C   UNL     1     -39.494 -50.020  11.622  1.00  0.00     0.070 C 
HETATM    8  C   UNL     1     -38.092 -50.110  11.490  1.00  0.00     0.138 C 
HETATM    9  N   UNL     1     -37.498 -50.490  12.624  1.00  0.00    -0.307 N 
HETATM   10  N   UNL     1     -38.528 -50.680  13.476  1.00  0.00    -0.293 N 
ATOM     11  HN  UNL     1     -36.500 -50.608  12.804  1.00  0.00     0.186 HD
HETATM   12  C   UNL     1     -39.734 -50.308  12.946  1.00  0.00     0.141 C 
BRANCH  10  13
HETATM   13  C   UNL     1     -38.228 -51.238  14.784  1.00  0.00     0.250 C 
BRANCH  13  14
HETATM   14  C   UNL     1     -37.372 -50.347  15.648  1.00  0.00     0.235 C 
HETATM   15  O   UNL     1     -36.993 -49.231  15.313  1.00  0.00    -0.272 OA
HETATM   16  N   UNL     1     -36.987 -50.856  16.858  1.00  0.00    -0.369 N 
HETATM   17  H   UNL     1     -37.389 -51.695  17.259  1.00  0.00     0.159 HD
HETATM   18  H   UNL     1     -36.443 -50.254  17.461  1.00  0.00     0.159 HD
ENDBRANCH  13  14
ENDBRANCH  10  13
ENDBRANCH   4   7
BRANCH   1  19
HETATM   19  C   UNL     1     -42.705 -47.192   9.327  1.00  0.00     0.086 C 
HETATM   20  C   UNL     1     -43.716 -46.893  10.442  1.00  0.00     0.026 C 
HETATM   21  C   UNL     1     -44.944 -47.803  10.379  1.00  0.00     0.006 C 
HETATM   22  C   UNL     1     -45.618 -47.804   9.000  1.00  0.00    -0.019 C 
HETATM   23  C   UNL     1     -46.357 -46.490   8.732  1.00  0.00     0.010 C 
HETATM   24  C   UNL     1     -44.601 -48.117   7.894  1.00  0.00     0.006 C 
HETATM   25  C   UNL     1     -43.366 -47.217   7.946  1.00  0.00     0.026 C 
ENDBRANCH   1  19
TORSDOF 4
ENDMDL
MODEL 5
REMARK VINA RESULT:      -5.2      2.398      8.419
REMARK  4 active torsions:
REMARK  status: ('A' for Active; 'I' for Inactive)
REMARK    1  A    between atoms: C_5  and  N_8 
REMARK       I    between atoms: N_8  and  C_9 
REMARK       I    between atoms: C_9  and  N_11 
REMARK    2  A    between atoms: N_11  and  C_12 
REMARK    3  A    between atoms: N_16  and  C_17 
REMARK    4  A    between atoms: C_17  and  C_18 
REMARK       I    between atoms: C_18  and  N_20 
ROOT
HETATM    1  N   UNL     1     -41.381 -47.050  12.325  1.00  0.00    -0.338 N 
HETATM    2  C   UNL     1     -41.776 -48.283  11.851  1.00  0.00     0.321 C 
HETATM    3  O   UNL     1     -42.391 -48.418  10.799  1.00  0.00    -0.247 OA
HETATM    4  N   UNL     1     -41.459 -49.296  12.731  1.00  0.00    -0.306 N 
HETATM    5  H   UNL     1     -40.527 -47.041  12.863  1.00  0.00     0.164 HD
HETATM    6  H   UNL     1     -41.190 -49.039  13.669  1.00  0.00     0.171 HD
ENDROOT
BRANCH   4   7
HETATM    7  C   UNL     1     -41.862 -50.602  12.523  1.00  0.00     0.070 C 
HETATM    8  C   UNL     1     -41.247 -51.652  11.810  1.00  0.00     0.138 C 
HETATM    9  N   UNL     1     -42.004 -52.752  11.767  1.00  0.00    -0.307 N 
HETATM   10  N   UNL     1     -43.128 -52.390  12.422  1.00  0.00    -0.293 N 
ATOM     11  HN  UNL     1     -41.785 -53.652  11.339  1.00  0.00     0.186 HD
HETATM   12  C   UNL     1     -43.041 -51.144  12.983  1.00  0.00     0.141 C 
BRANCH  10  13
HETATM   13  C   UNL     1     -44.233 -53.333  12.437  1.00  0.00     0.250 C 
BRANCH  13  14
HETATM   14  C   UNL     1     -44.143 -54.366  13.531  1.00  0.00     0.235 C 
HETATM   15  O   UNL     1     -43.115 -54.617  14.150  1.00  0.00    -0.272 OA
HETATM   16  N   UNL     1     -45.285 -55.068  13.804  1.00  0.00    -0.369 N 
HETATM   17  H   UNL     1     -46.195 -54.806  13.447  1.00  0.00     0.159 HD
HETATM   18  H   UNL     1     -45.246 -55.739  14.561  1.00  0.00     0.159 HD
ENDBRANCH  13  14
ENDBRANCH  10  13
ENDBRANCH   4   7
BRANCH   1  19
HETATM   19  C   UNL     1     -41.726 -45.842  11.579  1.00  0.00     0.086 C 
HETATM   20  C   UNL     1     -40.520 -45.288  10.808  1.00  0.00     0.026 C 
HETATM   21  C   UNL     1     -39.494 -44.620  11.724  1.00  0.00     0.006 C 
HETATM   22  C   UNL     1     -40.112 -43.551  12.635  1.00  0.00    -0.019 C 
HETATM   23  C   UNL     1     -40.496 -42.292  11.850  1.00  0.00     0.010 C 
HETATM   24  C   UNL     1     -41.309 -44.118  13.411  1.00  0.00     0.006 C 
HETATM   25  C   UNL     1     -42.341 -44.793  12.509  1.00  0.00     0.026 C 
ENDBRANCH   1  19
TORSDOF 4
ENDMDL
MODEL 6
REMARK VINA RESULT:      -5.1      4.706      6.716
REMARK  4 active torsions:
REMARK  status: ('A' for Active; 'I' for Inactive)
REMARK    1  A    between atoms: C_5  and  N_8 
REMARK       I    between atoms: N_8  and  C_9 
REMARK       I    between atoms: C_9  and  N_11 
REMARK    2  A    between atoms: N_11  and  C_12 
REMARK    3  A    between atoms: N_16  and  C_17 
REMARK    4  A    between atoms: C_17  and  C_18 
REMARK       I    between atoms: C_18  and  N_20 
ROOT
HETATM    1  N   UNL     1     -39.629 -47.384  14.178  1.00  0.00    -0.338 N 
HETATM    2  C   UNL     1     -40.098 -46.883  12.983  1.00  0.00     0.321 C 
HETATM    3  O   UNL     1     -39.563 -45.941  12.409  1.00  0.00    -0.247 OA
HETATM    4  N   UNL     1     -41.253 -47.519  12.578  1.00  0.00    -0.306 N 
HETATM    5  H   UNL     1     -39.774 -48.372  14.326  1.00  0.00     0.164 HD
HETATM    6  H   UNL     1     -41.736 -48.093  13.252  1.00  0.00     0.171 HD
ENDROOT
BRANCH   4   7
HETATM    7  C   UNL     1     -41.968 -47.105  11.469  1.00  0.00     0.070 C 
HETATM    8  C   UNL     1     -42.705 -45.925  11.238  1.00  0.00     0.138 C 
HETATM    9  N   UNL     1     -43.333 -45.938  10.059  1.00  0.00    -0.307 N 
HETATM   10  N   UNL     1     -43.027 -47.151   9.549  1.00  0.00    -0.293 N 
ATOM     11  HN  UNL     1     -43.908 -45.205   9.643  1.00  0.00     0.186 HD
HETATM   12  C   UNL     1     -42.125 -47.840  10.316  1.00  0.00     0.141 C 
BRANCH  10  13
HETATM   13  C   UNL     1     -43.676 -47.545   8.311  1.00  0.00     0.250 C 
BRANCH  13  14
HETATM   14  C   UNL     1     -45.139 -47.876   8.465  1.00  0.00     0.235 C 
HETATM   15  O   UNL     1     -45.798 -47.611   9.464  1.00  0.00    -0.272 OA
HETATM   16  N   UNL     1     -45.728 -48.539   7.424  1.00  0.00    -0.369 N 
HETATM   17  H   UNL     1     -45.291 -48.647   6.517  1.00  0.00     0.159 HD
HETATM   18  H   UNL     1     -46.718 -48.735   7.501  1.00  0.00     0.159 HD
ENDBRANCH  13  14
ENDBRANCH  10  13
ENDBRANCH   4   7
BRANCH   1  19
HETATM   19  C   UNL     1     -38.472 -46.765  14.821  1.00  0.00     0.086 C 
HETATM   20  C   UNL     1     -37.174 -47.518  14.500  1.00  0.00     0.026 C 
HETATM   21  C   UNL     1     -37.071 -48.850  15.243  1.00  0.00     0.006 C 
HETATM   22  C   UNL     1     -37.274 -48.709  16.757  1.00  0.00    -0.019 C 
HETATM   23  C   UNL     1     -36.072 -48.039  17.428  1.00  0.00     0.010 C 
HETATM   24  C   UNL     1     -38.581 -47.967  17.067  1.00  0.00     0.006 C 
HETATM   25  C   UNL     1     -38.700 -46.633  16.329  1.00  0.00     0.026 C 
ENDBRANCH   1  19
TORSDOF 4
ENDMDL
MODEL 7
REMARK VINA RESULT:      -5.1      3.633      4.446
REMARK  4 active torsions:
REMARK  status: ('A' for Active; 'I' for Inactive)
REMARK    1  A    between atoms: C_5  and  N_8 
REMARK       I    between atoms: N_8  and  C_9 
REMARK       I    between atoms: C_9  and  N_11 
REMARK    2  A    between atoms: N_11  and  C_12 
REMARK    3  A    between atoms: N_16  and  C_17 
REMARK    4  A    between atoms: C_17  and  C_18 
REMARK       I    between atoms: C_18  and  N_20 
ROOT
HETATM    1  N   UNL     1     -41.124 -51.148  14.191  1.00  0.00    -0.338 N 
HETATM    2  C   UNL     1     -41.086 -50.028  13.388  1.00  0.00     0.321 C 
HETATM    3  O   UNL     1     -40.046 -49.422  13.154  1.00  0.00    -0.247 OA
HETATM    4  N   UNL     1     -42.345 -49.658  12.964  1.00  0.00    -0.306 N 
HETATM    5  H   UNL     1     -41.831 -51.830  13.957  1.00  0.00     0.164 HD
HETATM    6  H   UNL     1     -43.139 -50.073  13.426  1.00  0.00     0.171 HD
ENDROOT
BRANCH   4   7
HETATM    7  C   UNL     1     -42.564 -48.496  12.246  1.00  0.00     0.070 C 
HETATM    8  C   UNL     1     -42.975 -47.216  12.672  1.00  0.00     0.138 C 
HETATM    9  N   UNL     1     -43.160 -46.374  11.652  1.00  0.00    -0.307 N 
HETATM   10  N   UNL     1     -42.904 -47.131  10.564  1.00  0.00    -0.293 N 
ATOM     11  HN  UNL     1     -43.432 -45.391  11.687  1.00  0.00     0.186 HD
HETATM   12  C   UNL     1     -42.441 -48.381  10.880  1.00  0.00     0.141 C 
BRANCH  10  13
HETATM   13  C   UNL     1     -43.151 -46.543   9.259  1.00  0.00     0.250 C 
BRANCH  13  14
HETATM   14  C   UNL     1     -43.793 -47.487   8.273  1.00  0.00     0.235 C 
HETATM   15  O   UNL     1     -44.937 -47.913   8.382  1.00  0.00    -0.272 OA
HETATM   16  N   UNL     1     -43.016 -47.897   7.225  1.00  0.00    -0.369 N 
HETATM   17  H   UNL     1     -42.129 -47.467   6.991  1.00  0.00     0.159 HD
HETATM   18  H   UNL     1     -43.447 -48.502   6.538  1.00  0.00     0.159 HD
ENDBRANCH  13  14
ENDBRANCH  10  13
ENDBRANCH   4   7
BRANCH   1  19
HETATM   19  C   UNL     1     -39.899 -51.631  14.823  1.00  0.00     0.086 C 
HETATM   20  C   UNL     1     -39.138 -52.607  13.915  1.00  0.00     0.026 C 
HETATM   21  C   UNL     1     -39.817 -53.974  13.825  1.00  0.00     0.006 C 
HETATM   22  C   UNL     1     -40.097 -54.595  15.200  1.00  0.00    -0.019 C 
HETATM   23  C   UNL     1     -38.810 -55.080  15.874  1.00  0.00     0.010 C 
HETATM   24  C   UNL     1     -40.869 -53.617  16.095  1.00  0.00     0.006 C 
HETATM   25  C   UNL     1     -40.204 -52.243  16.193  1.00  0.00     0.026 C 
ENDBRANCH   1  19
TORSDOF 4
ENDMDL
MODEL 8
REMARK VINA RESULT:      -5.1      3.532      7.795
REMARK  4 active torsions:
REMARK  status: ('A' for Active; 'I' for Inactive)
REMARK    1  A    between atoms: C_5  and  N_8 
REMARK       I    between atoms: N_8  and  C_9 
REMARK       I    between atoms: C_9  and  N_11 
REMARK    2  A    between atoms: N_11  and  C_12 
REMARK    3  A    between atoms: N_16  and  C_17 
REMARK    4  A    between atoms: C_17  and  C_18 
REMARK       I    between atoms: C_18  and  N_20 
ROOT
HETATM    1  N   UNL     1     -41.931 -48.828  10.825  1.00  0.00    -0.338 N 
HETATM    2  C   UNL     1     -41.752 -49.782  11.803  1.00  0.00     0.321 C 
HETATM    3  O   UNL     1     -42.143 -49.625  12.955  1.00  0.00    -0.247 OA
HETATM    4  N   UNL     1     -41.035 -50.865  11.339  1.00  0.00    -0.306 N 
HETATM    5  H   UNL     1     -42.045 -49.180   9.885  1.00  0.00     0.164 HD
HETATM    6  H   UNL     1     -40.551 -50.767  10.460  1.00  0.00     0.171 HD
ENDROOT
BRANCH   4   7
HETATM    7  C   UNL     1     -40.633 -51.891  12.174  1.00  0.00     0.070 C 
HETATM    8  C   UNL     1     -41.071 -53.229  12.263  1.00  0.00     0.138 C 
HETATM    9  N   UNL     1     -40.492 -53.888  13.270  1.00  0.00    -0.307 N 
HETATM   10  N   UNL     1     -39.708 -52.956  13.853  1.00  0.00    -0.293 N 
ATOM     11  HN  UNL     1     -40.613 -54.866  13.536  1.00  0.00     0.186 HD
HETATM   12  C   UNL     1     -39.683 -51.773  13.163  1.00  0.00     0.141 C 
BRANCH  10  13
HETATM   13  C   UNL     1     -39.031 -53.318  15.086  1.00  0.00     0.250 C 
BRANCH  13  14
HETATM   14  C   UNL     1     -39.217 -54.761  15.486  1.00  0.00     0.235 C 
HETATM   15  O   UNL     1     -40.291 -55.240  15.831  1.00  0.00    -0.272 OA
HETATM   16  N   UNL     1     -38.096 -55.545  15.483  1.00  0.00    -0.369 N 
HETATM   17  H   UNL     1     -37.220 -55.258  15.063  1.00  0.00     0.159 HD
HETATM   18  H   UNL     1     -38.215 -56.522  15.714  1.00  0.00     0.159 HD
ENDBRANCH  13  14
ENDBRANCH  10  13
ENDBRANCH   4   7
BRANCH   1  19
HETATM   19  C   UNL     1     -42.577 -47.560  11.156  1.00  0.00     0.086 C 
HETATM   20  C   UNL     1     -44.104 -47.651  11.028  1.00  0.00     0.026 C 
HETATM   21  C   UNL     1     -44.569 -47.687   9.572  1.00  0.00     0.006 C 
HETATM   22  C   UNL     1     -44.006 -46.531   8.735  1.00  0.00    -0.019 C 
HETATM   23  C   UNL     1     -44.666 -45.197   9.098  1.00  0.00     0.010 C 
HETATM   24  C   UNL     1     -42.479 -46.457   8.859  1.00  0.00     0.006 C 
HETATM   25  C   UNL     1     -41.998 -46.423  10.310  1.00  0.00     0.026 C 
ENDBRANCH   1  19
TORSDOF 4
ENDMDL
MODEL 9
REMARK VINA RESULT:      -5.0     13.892     14.945
REMARK  4 active torsions:
REMARK  status: ('A' for Active; 'I' for Inactive)
REMARK    1  A    between atoms: C_5  and  N_8 
REMARK       I    between atoms: N_8  and  C_9 
REMARK       I    between atoms: C_9  and  N_11 
REMARK    2  A    between atoms: N_11  and  C_12 
REMARK    3  A    between atoms: N_16  and  C_17 
REMARK    4  A    between atoms: C_17  and  C_18 
REMARK       I    between atoms: C_18  and  N_20 
ROOT
HETATM    1  N   UNL     1     -49.207 -51.220  -1.997  1.00  0.00    -0.338 N 
HETATM    2  C   UNL     1     -48.005 -50.559  -1.861  1.00  0.00     0.321 C 
HETATM    3  O   UNL     1     -47.228 -50.789  -0.941  1.00  0.00    -0.247 OA
HETATM    4  N   UNL     1     -47.839 -49.591  -2.829  1.00  0.00    -0.306 N 
HETATM    5  H   UNL     1     -49.530 -51.351  -2.944  1.00  0.00     0.164 HD
HETATM    6  H   UNL     1     -48.647 -49.321  -3.368  1.00  0.00     0.171 HD
ENDROOT
BRANCH   4   7
HETATM    7  C   UNL     1     -46.763 -48.723  -2.821  1.00  0.00     0.070 C 
HETATM    8  C   UNL     1     -45.540 -48.768  -3.523  1.00  0.00     0.138 C 
HETATM    9  N   UNL     1     -44.714 -47.778  -3.172  1.00  0.00    -0.307 N 
HETATM   10  N   UNL     1     -45.397 -47.118  -2.212  1.00  0.00    -0.293 N 
ATOM     11  HN  UNL     1     -43.786 -47.571  -3.542  1.00  0.00     0.186 HD
HETATM   12  C   UNL     1     -46.673 -47.589  -2.046  1.00  0.00     0.141 C 
BRANCH  10  13
HETATM   13  C   UNL     1     -44.711 -46.047  -1.511  1.00  0.00     0.250 C 
BRANCH  13  14
HETATM   14  C   UNL     1     -43.242 -46.304  -1.288  1.00  0.00     0.235 C 
HETATM   15  O   UNL     1     -42.797 -47.332  -0.791  1.00  0.00    -0.272 OA
HETATM   16  N   UNL     1     -42.385 -45.299  -1.643  1.00  0.00    -0.369 N 
HETATM   17  H   UNL     1     -42.668 -44.499  -2.197  1.00  0.00     0.159 HD
HETATM   18  H   UNL     1     -41.395 -45.474  -1.531  1.00  0.00     0.159 HD
ENDBRANCH  13  14
ENDBRANCH  10  13
ENDBRANCH   4   7
BRANCH   1  19
HETATM   19  C   UNL     1     -49.609 -52.209  -1.000  1.00  0.00     0.086 C 
HETATM   20  C   UNL     1     -49.875 -53.580  -1.638  1.00  0.00     0.026 C 
HETATM   21  C   UNL     1     -51.184 -53.614  -2.428  1.00  0.00     0.006 C 
HETATM   22  C   UNL     1     -52.391 -53.135  -1.610  1.00  0.00    -0.019 C 
HETATM   23  C   UNL     1     -52.797 -54.162  -0.549  1.00  0.00     0.010 C 
HETATM   24  C   UNL     1     -52.118 -51.759  -0.988  1.00  0.00     0.006 C 
HETATM   25  C   UNL     1     -50.811 -51.708  -0.197  1.00  0.00     0.026 C 
ENDBRANCH   1  19
TORSDOF 4
ENDMDL
