MODEL 1
REMARK VINA RESULT:      -6.3      0.000      0.000
REMARK  6 active torsions:
REMARK  status: ('A' for Active; 'I' for Inactive)
REMARK    1  A    between atoms: C_2  and  C_3 
REMARK    2  A    between atoms: C_6  and  C_7 
REMARK    3  A    between atoms: C_7  and  C_8 
REMARK    4  A    between atoms: C_8  and  N_9 
REMARK       I    between atoms: N_9  and  C_10 
REMARK       I    between atoms: C_10  and  N_12 
REMARK    5  A    between atoms: N_12  and  C_13 
REMARK    6  A    between atoms: C_16  and  O_17 
ROOT
HETATM    1  N   UNL     1     -40.985 -50.480  11.394  1.00  0.00    -0.343 N 
HETATM    2  C   UNL     1     -41.950 -49.613  11.836  1.00  0.00     0.316 C 
HETATM    3  O   UNL     1     -42.383 -49.600  12.979  1.00  0.00    -0.247 OA
HETATM    4  N   UNL     1     -42.364 -48.765  10.840  1.00  0.00    -0.339 N 
HETATM    5  H   UNL     1     -40.975 -50.690  10.407  1.00  0.00     0.164 HD
HETATM    6  H   UNL     1     -41.696 -48.618  10.097  1.00  0.00     0.164 HD
ENDROOT
BRANCH   1   7
HETATM    7  C   UNL     1     -40.431 -51.494  12.280  1.00  0.00     0.130 C 
BRANCH   7   8
HETATM    8  C   UNL     1     -41.008 -52.893  12.049  1.00  0.00     0.077 C 
BRANCH   8   9
HETATM    9  C   UNL     1     -42.313 -53.112  12.750  1.00  0.00     0.018 A 
HETATM   10  N   UNL     1     -43.479 -52.656  12.153  1.00  0.00    -0.357 N 
HETATM   11  C   UNL     1     -44.522 -52.963  12.896  1.00  0.00     0.050 A 
ATOM     12  HN  UNL     1     -43.523 -52.153  11.267  1.00  0.00     0.166 HD
HETATM   13  S   UNL     1     -44.162 -53.787  14.363  1.00  0.00    -0.087 SA
HETATM   14  C   UNL     1     -42.499 -53.759  13.956  1.00  0.00     0.076 A 
BRANCH  11  15
HETATM   15  C   UNL     1     -45.940 -52.646  12.534  1.00  0.00     0.060 C 
HETATM   16  C   UNL     1     -46.523 -51.580  13.450  1.00  0.00     0.012 C 
ENDBRANCH  11  15
ENDBRANCH   8   9
ENDBRANCH   7   8
ENDBRANCH   1   7
BRANCH   4  17
HETATM   17  C   UNL     1     -43.319 -47.698  11.127  1.00  0.00     0.086 C 
HETATM   18  C   UNL     1     -44.411 -47.636  10.055  1.00  0.00     0.028 C 
HETATM   19  C   UNL     1     -43.929 -47.028   8.736  1.00  0.00     0.034 C 
HETATM   20  C   UNL     1     -43.251 -45.673   8.929  1.00  0.00     0.118 C 
HETATM   21  C   UNL     1     -42.147 -45.730   9.983  1.00  0.00     0.034 C 
HETATM   22  C   UNL     1     -42.619 -46.341  11.305  1.00  0.00     0.028 C 
BRANCH  20  23
HETATM   23  O   UNL     1     -44.219 -44.686   9.277  1.00  0.00    -0.396 OA
HETATM   24  H   UNL     1     -43.865 -43.804   9.080  1.00  0.00     0.210 HD
ENDBRANCH  20  23
ENDBRANCH   4  17
TORSDOF 6
ENDMDL
MODEL 2
REMARK VINA RESULT:      -6.0      3.069      6.753
REMARK  6 active torsions:
REMARK  status: ('A' for Active; 'I' for Inactive)
REMARK    1  A    between atoms: C_2  and  C_3 
REMARK    2  A    between atoms: C_6  and  C_7 
REMARK    3  A    between atoms: C_7  and  C_8 
REMARK    4  A    between atoms: C_8  and  N_9 
REMARK       I    between atoms: N_9  and  C_10 
REMARK       I    between atoms: C_10  and  N_12 
REMARK    5  A    between atoms: N_12  and  C_13 
REMARK    6  A    between atoms: C_16  and  O_17 
ROOT
HETATM    1  N   UNL     1     -41.739 -50.537  12.949  1.00  0.00    -0.343 N 
HETATM    2  C   UNL     1     -42.318 -51.683  12.471  1.00  0.00     0.316 C 
HETATM    3  O   UNL     1     -41.733 -52.505  11.780  1.00  0.00    -0.247 OA
HETATM    4  N   UNL     1     -43.629 -51.791  12.863  1.00  0.00    -0.339 N 
HETATM    5  H   UNL     1     -42.354 -49.762  13.151  1.00  0.00     0.164 HD
HETATM    6  H   UNL     1     -43.868 -51.283  13.702  1.00  0.00     0.164 HD
ENDROOT
BRANCH   1   7
HETATM    7  C   UNL     1     -40.360 -50.205  12.621  1.00  0.00     0.130 C 
BRANCH   7   8
HETATM    8  C   UNL     1     -40.188 -49.618  11.217  1.00  0.00     0.077 C 
BRANCH   8   9
HETATM    9  C   UNL     1     -41.064 -48.431  10.966  1.00  0.00     0.018 A 
HETATM   10  N   UNL     1     -41.857 -48.412   9.827  1.00  0.00    -0.357 N 
HETATM   11  C   UNL     1     -42.577 -47.309   9.791  1.00  0.00     0.050 A 
ATOM     12  HN  UNL     1     -41.879 -49.145   9.119  1.00  0.00     0.166 HD
HETATM   13  S   UNL     1     -42.321 -46.223  11.100  1.00  0.00    -0.087 SA
HETATM   14  C   UNL     1     -41.196 -47.321  11.777  1.00  0.00     0.076 A 
BRANCH  11  15
HETATM   15  C   UNL     1     -43.563 -46.980   8.714  1.00  0.00     0.060 C 
HETATM   16  C   UNL     1     -43.475 -47.966   7.559  1.00  0.00     0.012 C 
ENDBRANCH  11  15
ENDBRANCH   8   9
ENDBRANCH   7   8
ENDBRANCH   1   7
BRANCH   4  17
HETATM   17  C   UNL     1     -44.402 -52.987  12.538  1.00  0.00     0.086 C 
HETATM   18  C   UNL     1     -45.902 -52.679  12.503  1.00  0.00     0.028 C 
HETATM   19  C   UNL     1     -46.514 -52.502  13.894  1.00  0.00     0.034 C 
HETATM   20  C   UNL     1     -46.200 -53.670  14.826  1.00  0.00     0.118 C 
HETATM   21  C   UNL     1     -44.704 -53.972  14.882  1.00  0.00     0.034 C 
HETATM   22  C   UNL     1     -44.081 -54.147  13.495  1.00  0.00     0.028 C 
BRANCH  20  23
HETATM   23  O   UNL     1     -46.925 -54.829  14.421  1.00  0.00    -0.396 OA
HETATM   24  H   UNL     1     -47.624 -54.571  13.800  1.00  0.00     0.210 HD
ENDBRANCH  20  23
ENDBRANCH   4  17
TORSDOF 6
ENDMDL
MODEL 3
REMARK VINA RESULT:      -5.8      3.185      6.987
REMARK  6 active torsions:
REMARK  status: ('A' for Active; 'I' for Inactive)
REMARK    1  A    between atoms: C_2  and  C_3 
REMARK    2  A    between atoms: C_6  and  C_7 
REMARK    3  A    between atoms: C_7  and  C_8 
REMARK    4  A    between atoms: C_8  and  N_9 
REMARK       I    between atoms: N_9  and  C_10 
REMARK       I    between atoms: C_10  and  N_12 
REMARK    5  A    between atoms: N_12  and  C_13 
REMARK    6  A    between atoms: C_16  and  O_17 
ROOT
HETATM    1  N   UNL     1     -42.409 -49.958  12.129  1.00  0.00    -0.343 N 
HETATM    2  C   UNL     1     -43.027 -50.211  13.326  1.00  0.00     0.316 C 
HETATM    3  O   UNL     1     -43.145 -49.384  14.219  1.00  0.00    -0.247 OA
HETATM    4  N   UNL     1     -43.494 -51.499  13.394  1.00  0.00    -0.339 N 
HETATM    5  H   UNL     1     -42.014 -50.748  11.642  1.00  0.00     0.164 HD
HETATM    6  H   UNL     1     -43.674 -51.936  12.502  1.00  0.00     0.164 HD
ENDROOT
BRANCH   1   7
HETATM    7  C   UNL     1     -41.806 -48.660  11.860  1.00  0.00     0.130 C 
BRANCH   7   8
HETATM    8  C   UNL     1     -41.699 -48.331  10.368  1.00  0.00     0.077 C 
BRANCH   8   9
HETATM    9  C   UNL     1     -42.817 -47.466   9.877  1.00  0.00     0.018 A 
HETATM   10  N   UNL     1     -44.081 -48.020   9.734  1.00  0.00    -0.357 N 
HETATM   11  C   UNL     1     -44.936 -47.106   9.323  1.00  0.00     0.050 A 
ATOM     12  HN  UNL     1     -44.315 -48.995   9.919  1.00  0.00     0.166 HD
HETATM   13  S   UNL     1     -44.268 -45.544   9.055  1.00  0.00    -0.087 SA
HETATM   14  C   UNL     1     -42.738 -46.124   9.558  1.00  0.00     0.076 A 
BRANCH  11  15
HETATM   15  C   UNL     1     -46.394 -47.357   9.094  1.00  0.00     0.060 C 
HETATM   16  C   UNL     1     -46.626 -48.686   8.391  1.00  0.00     0.012 C 
ENDBRANCH  11  15
ENDBRANCH   8   9
ENDBRANCH   7   8
ENDBRANCH   1   7
BRANCH   4  17
HETATM   17  C   UNL     1     -44.268 -51.945  14.548  1.00  0.00     0.086 C 
HETATM   18  C   UNL     1     -43.778 -53.309  15.044  1.00  0.00     0.028 C 
HETATM   19  C   UNL     1     -44.208 -54.469  14.144  1.00  0.00     0.034 C 
HETATM   20  C   UNL     1     -45.711 -54.475  13.872  1.00  0.00     0.118 C 
HETATM   21  C   UNL     1     -46.205 -53.123  13.358  1.00  0.00     0.034 C 
HETATM   22  C   UNL     1     -45.777 -51.956  14.250  1.00  0.00     0.028 C 
BRANCH  20  23
HETATM   23  O   UNL     1     -46.421 -54.847  15.050  1.00  0.00    -0.396 OA
HETATM   24  H   UNL     1     -47.322 -55.115  14.812  1.00  0.00     0.210 HD
ENDBRANCH  20  23
ENDBRANCH   4  17
TORSDOF 6
ENDMDL
MODEL 4
REMARK VINA RESULT:      -5.5      3.664      6.756
REMARK  6 active torsions:
REMARK  status: ('A' for Active; 'I' for Inactive)
REMARK    1  A    between atoms: C_2  and  C_3 
REMARK    2  A    between atoms: C_6  and  C_7 
REMARK    3  A    between atoms: C_7  and  C_8 
REMARK    4  A    between atoms: C_8  and  N_9 
REMARK       I    between atoms: N_9  and  C_10 
REMARK       I    between atoms: C_10  and  N_12 
REMARK    5  A    between atoms: N_12  and  C_13 
REMARK    6  A    between atoms: C_16  and  O_17 
ROOT
HETATM    1  N   UNL     1     -41.638 -50.523  11.680  1.00  0.00    -0.343 N 
HETATM    2  C   UNL     1     -42.142 -51.634  12.304  1.00  0.00     0.316 C 
HETATM    3  O   UNL     1     -41.468 -52.605  12.617  1.00  0.00    -0.247 OA
HETATM    4  N   UNL     1     -43.491 -51.520  12.531  1.00  0.00    -0.339 N 
HETATM    5  H   UNL     1     -42.280 -49.980  11.123  1.00  0.00     0.164 HD
HETATM    6  H   UNL     1     -43.838 -50.573  12.582  1.00  0.00     0.164 HD
ENDROOT
BRANCH   1   7
HETATM    7  C   UNL     1     -40.232 -50.449  11.310  1.00  0.00     0.130 C 
BRANCH   7   8
HETATM    8  C   UNL     1     -39.392 -49.593  12.262  1.00  0.00     0.077 C 
BRANCH   8   9
HETATM    9  C   UNL     1     -39.825 -48.161  12.300  1.00  0.00     0.018 A 
HETATM   10  N   UNL     1     -39.679 -47.384  11.160  1.00  0.00    -0.357 N 
HETATM   11  C   UNL     1     -40.140 -46.170  11.373  1.00  0.00     0.050 A 
ATOM     12  HN  UNL     1     -39.272 -47.708  10.282  1.00  0.00     0.166 HD
HETATM   13  S   UNL     1     -40.744 -45.880  12.957  1.00  0.00    -0.087 SA
HETATM   14  C   UNL     1     -40.396 -47.504  13.373  1.00  0.00     0.076 A 
BRANCH  11  15
HETATM   15  C   UNL     1     -40.163 -45.083  10.343  1.00  0.00     0.060 C 
HETATM   16  C   UNL     1     -40.259 -43.708  10.986  1.00  0.00     0.012 C 
ENDBRANCH  11  15
ENDBRANCH   8   9
ENDBRANCH   7   8
ENDBRANCH   1   7
BRANCH   4  17
HETATM   17  C   UNL     1     -44.206 -52.556  13.272  1.00  0.00     0.086 C 
HETATM   18  C   UNL     1     -45.598 -52.793  12.678  1.00  0.00     0.028 C 
HETATM   19  C   UNL     1     -46.595 -51.682  13.013  1.00  0.00     0.034 C 
HETATM   20  C   UNL     1     -46.663 -51.388  14.510  1.00  0.00     0.118 C 
HETATM   21  C   UNL     1     -45.281 -51.130  15.107  1.00  0.00     0.034 C 
HETATM   22  C   UNL     1     -44.275 -52.235  14.774  1.00  0.00     0.028 C 
BRANCH  20  23
HETATM   23  O   UNL     1     -47.306 -52.462  15.192  1.00  0.00    -0.396 OA
HETATM   24  H   UNL     1     -47.226 -53.272  14.665  1.00  0.00     0.210 HD
ENDBRANCH  20  23
ENDBRANCH   4  17
TORSDOF 6
ENDMDL
MODEL 5
REMARK VINA RESULT:      -5.4      3.921      7.591
REMARK  6 active torsions:
REMARK  status: ('A' for Active; 'I' for Inactive)
REMARK    1  A    between atoms: C_2  and  C_3 
REMARK    2  A    between atoms: C_6  and  C_7 
REMARK    3  A    between atoms: C_7  and  C_8 
REMARK    4  A    between atoms: C_8  and  N_9 
REMARK       I    between atoms: N_9  and  C_10 
REMARK       I    between atoms: C_10  and  N_12 
REMARK    5  A    between atoms: N_12  and  C_13 
REMARK    6  A    between atoms: C_16  and  O_17 
ROOT
HETATM    1  N   UNL     1     -40.783 -51.054  13.272  1.00  0.00    -0.343 N 
HETATM    2  C   UNL     1     -41.227 -52.285  12.869  1.00  0.00     0.316 C 
HETATM    3  O   UNL     1     -40.713 -52.934  11.969  1.00  0.00    -0.247 OA
HETATM    4  N   UNL     1     -42.314 -52.696  13.599  1.00  0.00    -0.339 N 
HETATM    5  H   UNL     1     -41.457 -50.443  13.708  1.00  0.00     0.164 HD
HETATM    6  H   UNL     1     -42.397 -52.280  14.515  1.00  0.00     0.164 HD
ENDROOT
BRANCH   1   7
HETATM    7  C   UNL     1     -39.659 -50.411  12.605  1.00  0.00     0.130 C 
BRANCH   7   8
HETATM    8  C   UNL     1     -40.072 -49.505  11.442  1.00  0.00     0.077 C 
BRANCH   8   9
HETATM    9  C   UNL     1     -39.949 -48.047  11.762  1.00  0.00     0.018 A 
HETATM   10  N   UNL     1     -39.928 -47.131  10.720  1.00  0.00    -0.357 N 
HETATM   11  C   UNL     1     -39.846 -45.905  11.193  1.00  0.00     0.050 A 
ATOM     12  HN  UNL     1     -39.969 -47.373   9.730  1.00  0.00     0.166 HD
HETATM   13  S   UNL     1     -39.759 -45.783  12.907  1.00  0.00    -0.087 SA
HETATM   14  C   UNL     1     -39.874 -47.487  13.022  1.00  0.00     0.076 A 
BRANCH  11  15
HETATM   15  C   UNL     1     -39.831 -44.672  10.343  1.00  0.00     0.060 C 
HETATM   16  C   UNL     1     -40.405 -43.476  11.088  1.00  0.00     0.012 C 
ENDBRANCH  11  15
ENDBRANCH   8   9
ENDBRANCH   7   8
ENDBRANCH   1   7
BRANCH   4  17
HETATM   17  C   UNL     1     -42.884 -54.024  13.392  1.00  0.00     0.086 C 
HETATM   18  C   UNL     1     -44.084 -53.965  12.441  1.00  0.00     0.028 C 
HETATM   19  C   UNL     1     -45.341 -53.384  13.090  1.00  0.00     0.034 C 
HETATM   20  C   UNL     1     -45.697 -54.077  14.403  1.00  0.00     0.118 C 
HETATM   21  C   UNL     1     -44.512 -54.122  15.366  1.00  0.00     0.034 C 
HETATM   22  C   UNL     1     -43.248 -54.700  14.725  1.00  0.00     0.028 C 
BRANCH  20  23
HETATM   23  O   UNL     1     -46.180 -55.393  14.148  1.00  0.00    -0.396 OA
HETATM   24  H   UNL     1     -46.214 -55.891  14.979  1.00  0.00     0.210 HD
ENDBRANCH  20  23
ENDBRANCH   4  17
TORSDOF 6
ENDMDL
MODEL 6
REMARK VINA RESULT:      -5.3      3.574      7.660
REMARK  6 active torsions:
REMARK  status: ('A' for Active; 'I' for Inactive)
REMARK    1  A    between atoms: C_2  and  C_3 
REMARK    2  A    between atoms: C_6  and  C_7 
REMARK    3  A    between atoms: C_7  and  C_8 
REMARK    4  A    between atoms: C_8  and  N_9 
REMARK       I    between atoms: N_9  and  C_10 
REMARK       I    between atoms: C_10  and  N_12 
REMARK    5  A    between atoms: N_12  and  C_13 
REMARK    6  A    between atoms: C_16  and  O_17 
ROOT
HETATM    1  N   UNL     1     -41.696 -50.462  13.048  1.00  0.00    -0.343 N 
HETATM    2  C   UNL     1     -41.435 -51.775  12.757  1.00  0.00     0.316 C 
HETATM    3  O   UNL     1     -41.074 -52.170  11.657  1.00  0.00    -0.247 OA
HETATM    4  N   UNL     1     -41.627 -52.584  13.848  1.00  0.00    -0.339 N 
HETATM    5  H   UNL     1     -42.338 -50.279  13.804  1.00  0.00     0.164 HD
HETATM    6  H   UNL     1     -41.547 -52.124  14.742  1.00  0.00     0.164 HD
ENDROOT
BRANCH   1   7
HETATM    7  C   UNL     1     -41.590 -49.434  12.022  1.00  0.00     0.130 C 
BRANCH   7   8
HETATM    8  C   UNL     1     -42.563 -48.267  12.219  1.00  0.00     0.077 C 
BRANCH   8   9
HETATM    9  C   UNL     1     -43.158 -47.777  10.936  1.00  0.00     0.018 A 
HETATM   10  N   UNL     1     -44.510 -47.982  10.702  1.00  0.00    -0.357 N 
HETATM   11  C   UNL     1     -44.856 -47.459   9.544  1.00  0.00     0.050 A 
ATOM     12  HN  UNL     1     -45.144 -48.469  11.335  1.00  0.00     0.166 HD
HETATM   13  S   UNL     1     -43.579 -46.721   8.660  1.00  0.00    -0.087 SA
HETATM   14  C   UNL     1     -42.496 -47.098   9.931  1.00  0.00     0.076 A 
BRANCH  11  15
HETATM   15  C   UNL     1     -46.249 -47.475   8.994  1.00  0.00     0.060 C 
HETATM   16  C   UNL     1     -46.530 -48.760   8.230  1.00  0.00     0.012 C 
ENDBRANCH  11  15
ENDBRANCH   8   9
ENDBRANCH   7   8
ENDBRANCH   1   7
BRANCH   4  17
HETATM   17  C   UNL     1     -41.311 -54.009  13.776  1.00  0.00     0.086 C 
HETATM   18  C   UNL     1     -42.008 -54.782  14.899  1.00  0.00     0.028 C 
HETATM   19  C   UNL     1     -41.359 -54.574  16.269  1.00  0.00     0.034 C 
HETATM   20  C   UNL     1     -39.855 -54.838  16.252  1.00  0.00     0.118 C 
HETATM   21  C   UNL     1     -39.149 -54.055  15.147  1.00  0.00     0.034 C 
HETATM   22  C   UNL     1     -39.793 -54.254  13.773  1.00  0.00     0.028 C 
BRANCH  20  23
HETATM   23  O   UNL     1     -39.604 -56.234  16.109  1.00  0.00    -0.396 OA
HETATM   24  H   UNL     1     -38.810 -56.472  16.612  1.00  0.00     0.210 HD
ENDBRANCH  20  23
ENDBRANCH   4  17
TORSDOF 6
ENDMDL
MODEL 7
REMARK VINA RESULT:      -5.1      2.099      2.577
REMARK  6 active torsions:
REMARK  status: ('A' for Active; 'I' for Inactive)
REMARK    1  A    between atoms: C_2  and  C_3 
REMARK    2  A    between atoms: C_6  and  C_7 
REMARK    3  A    between atoms: C_7  and  C_8 
REMARK    4  A    between atoms: C_8  and  N_9 
REMARK       I    between atoms: N_9  and  C_10 
REMARK       I    between atoms: C_10  and  N_12 
REMARK    5  A    between atoms: N_12  and  C_13 
REMARK    6  A    between atoms: C_16  and  O_17 
ROOT
HETATM    1  N   UNL     1     -40.872 -49.228  13.612  1.00  0.00    -0.343 N 
HETATM    2  C   UNL     1     -41.727 -48.322  13.041  1.00  0.00     0.316 C 
HETATM    3  O   UNL     1     -42.927 -48.510  12.903  1.00  0.00    -0.247 OA
HETATM    4  N   UNL     1     -41.070 -47.183  12.649  1.00  0.00    -0.339 N 
HETATM    5  H   UNL     1     -39.902 -49.179  13.339  1.00  0.00     0.164 HD
HETATM    6  H   UNL     1     -40.209 -46.994  13.141  1.00  0.00     0.164 HD
ENDROOT
BRANCH   1   7
HETATM    7  C   UNL     1     -41.355 -50.524  14.068  1.00  0.00     0.130 C 
BRANCH   7   8
HETATM    8  C   UNL     1     -41.557 -51.536  12.936  1.00  0.00     0.077 C 
BRANCH   8   9
HETATM    9  C   UNL     1     -42.902 -52.192  12.969  1.00  0.00     0.018 A 
HETATM   10  N   UNL     1     -44.038 -51.396  12.928  1.00  0.00    -0.357 N 
HETATM   11  C   UNL     1     -45.121 -52.145  12.935  1.00  0.00     0.050 A 
ATOM     12  HN  UNL     1     -44.035 -50.376  12.896  1.00  0.00     0.166 HD
HETATM   13  S   UNL     1     -44.840 -53.840  13.025  1.00  0.00    -0.087 SA
HETATM   14  C   UNL     1     -43.153 -53.549  13.017  1.00  0.00     0.076 A 
BRANCH  11  15
HETATM   15  C   UNL     1     -46.518 -51.610  12.869  1.00  0.00     0.060 C 
HETATM   16  C   UNL     1     -47.100 -51.750  11.470  1.00  0.00     0.012 C 
ENDBRANCH  11  15
ENDBRANCH   8   9
ENDBRANCH   7   8
ENDBRANCH   1   7
BRANCH   4  17
HETATM   17  C   UNL     1     -41.814 -46.051  12.103  1.00  0.00     0.086 C 
HETATM   18  C   UNL     1     -41.540 -45.885  10.605  1.00  0.00     0.028 C 
HETATM   19  C   UNL     1     -40.163 -45.291  10.306  1.00  0.00     0.034 C 
HETATM   20  C   UNL     1     -39.902 -43.997  11.073  1.00  0.00     0.118 C 
HETATM   21  C   UNL     1     -40.154 -44.159  12.571  1.00  0.00     0.034 C 
HETATM   22  C   UNL     1     -41.529 -44.755  12.881  1.00  0.00     0.028 C 
BRANCH  20  23
HETATM   23  O   UNL     1     -40.706 -42.944  10.546  1.00  0.00    -0.396 OA
HETATM   24  H   UNL     1     -41.638 -43.117  10.750  1.00  0.00     0.210 HD
ENDBRANCH  20  23
ENDBRANCH   4  17
TORSDOF 6
ENDMDL
MODEL 8
REMARK VINA RESULT:      -5.0      3.579      7.131
REMARK  6 active torsions:
REMARK  status: ('A' for Active; 'I' for Inactive)
REMARK    1  A    between atoms: C_2  and  C_3 
REMARK    2  A    between atoms: C_6  and  C_7 
REMARK    3  A    between atoms: C_7  and  C_8 
REMARK    4  A    between atoms: C_8  and  N_9 
REMARK       I    between atoms: N_9  and  C_10 
REMARK       I    between atoms: C_10  and  N_12 
REMARK    5  A    between atoms: N_12  and  C_13 
REMARK    6  A    between atoms: C_16  and  O_17 
ROOT
HETATM    1  N   UNL     1     -42.670 -48.766  11.070  1.00  0.00    -0.343 N 
HETATM    2  C   UNL     1     -42.478 -49.607  12.134  1.00  0.00     0.316 C 
HETATM    3  O   UNL     1     -41.403 -49.762  12.695  1.00  0.00    -0.247 OA
HETATM    4  N   UNL     1     -43.638 -50.249  12.489  1.00  0.00    -0.339 N 
HETATM    5  H   UNL     1     -43.430 -48.984  10.444  1.00  0.00     0.164 HD
HETATM    6  H   UNL     1     -44.488 -49.774  12.223  1.00  0.00     0.164 HD
ENDROOT
BRANCH   1   7
HETATM    7  C   UNL     1     -41.559 -48.012  10.505  1.00  0.00     0.130 C 
BRANCH   7   8
HETATM    8  C   UNL     1     -41.657 -46.503  10.746  1.00  0.00     0.077 C 
BRANCH   8   9
HETATM    9  C   UNL     1     -40.670 -46.005  11.755  1.00  0.00     0.018 A 
HETATM   10  N   UNL     1     -40.062 -46.917  12.606  1.00  0.00    -0.357 N 
HETATM   11  C   UNL     1     -39.209 -46.302  13.398  1.00  0.00     0.050 A 
ATOM     12  HN  UNL     1     -40.249 -47.919  12.616  1.00  0.00     0.166 HD
HETATM   13  S   UNL     1     -39.111 -44.598  13.191  1.00  0.00    -0.087 SA
HETATM   14  C   UNL     1     -40.264 -44.696  11.930  1.00  0.00     0.076 A 
BRANCH  11  15
HETATM   15  C   UNL     1     -38.358 -46.993  14.419  1.00  0.00     0.060 C 
HETATM   16  C   UNL     1     -39.139 -48.070  15.156  1.00  0.00     0.012 C 
ENDBRANCH  11  15
ENDBRANCH   8   9
ENDBRANCH   7   8
ENDBRANCH   1   7
BRANCH   4  17
HETATM   17  C   UNL     1     -43.672 -51.119  13.661  1.00  0.00     0.086 C 
HETATM   18  C   UNL     1     -43.449 -52.582  13.265  1.00  0.00     0.028 C 
HETATM   19  C   UNL     1     -44.668 -53.219  12.594  1.00  0.00     0.034 C 
HETATM   20  C   UNL     1     -45.946 -53.045  13.412  1.00  0.00     0.118 C 
HETATM   21  C   UNL     1     -46.187 -51.586  13.795  1.00  0.00     0.034 C 
HETATM   22  C   UNL     1     -44.971 -50.939  14.464  1.00  0.00     0.028 C 
BRANCH  20  23
HETATM   23  O   UNL     1     -45.895 -53.862  14.579  1.00  0.00    -0.396 OA
HETATM   24  H   UNL     1     -45.736 -54.783  14.321  1.00  0.00     0.210 HD
ENDBRANCH  20  23
ENDBRANCH   4  17
TORSDOF 6
ENDMDL
MODEL 9
REMARK VINA RESULT:      -5.0      3.177      7.399
REMARK  6 active torsions:
REMARK  status: ('A' for Active; 'I' for Inactive)
REMARK    1  A    between atoms: C_2  and  C_3 
REMARK    2  A    between atoms: C_6  and  C_7 
REMARK    3  A    between atoms: C_7  and  C_8 
REMARK    4  A    between atoms: C_8  and  N_9 
REMARK       I    between atoms: N_9  and  C_10 
REMARK       I    between atoms: C_10  and  N_12 
REMARK    5  A    between atoms: N_12  and  C_13 
REMARK    6  A    between atoms: C_16  and  O_17 
ROOT
HETATM    1  N   UNL     1     -40.989 -51.011  13.185  1.00  0.00    -0.343 N 
HETATM    2  C   UNL     1     -42.298 -50.884  13.568  1.00  0.00     0.316 C 
HETATM    3  O   UNL     1     -42.930 -49.839  13.502  1.00  0.00    -0.247 OA
HETATM    4  N   UNL     1     -42.808 -52.071  14.031  1.00  0.00    -0.339 N 
HETATM    5  H   UNL     1     -40.453 -51.746  13.622  1.00  0.00     0.164 HD
HETATM    6  H   UNL     1     -42.343 -52.899  13.690  1.00  0.00     0.164 HD
ENDROOT
BRANCH   1   7
HETATM    7  C   UNL     1     -40.240 -49.862  12.696  1.00  0.00     0.130 C 
BRANCH   7   8
HETATM    8  C   UNL     1     -40.432 -49.596  11.200  1.00  0.00     0.077 C 
BRANCH   8   9
HETATM    9  C   UNL     1     -40.888 -48.201  10.907  1.00  0.00     0.018 A 
HETATM   10  N   UNL     1     -39.953 -47.175  10.910  1.00  0.00    -0.357 N 
HETATM   11  C   UNL     1     -40.530 -46.032  10.603  1.00  0.00     0.050 A 
ATOM     12  HN  UNL     1     -38.962 -47.289  11.120  1.00  0.00     0.166 HD
HETATM   13  S   UNL     1     -42.226 -46.116  10.325  1.00  0.00    -0.087 SA
HETATM   14  C   UNL     1     -42.175 -47.805  10.601  1.00  0.00     0.076 A 
BRANCH  11  15
HETATM   15  C   UNL     1     -39.807 -44.726  10.487  1.00  0.00     0.060 C 
HETATM   16  C   UNL     1     -40.133 -43.804  11.652  1.00  0.00     0.012 C 
ENDBRANCH  11  15
ENDBRANCH   8   9
ENDBRANCH   7   8
ENDBRANCH   1   7
BRANCH   4  17
HETATM   17  C   UNL     1     -44.217 -52.176  14.401  1.00  0.00     0.086 C 
HETATM   18  C   UNL     1     -44.413 -53.187  15.535  1.00  0.00     0.028 C 
HETATM   19  C   UNL     1     -44.291 -54.641  15.074  1.00  0.00     0.034 C 
HETATM   20  C   UNL     1     -45.187 -54.955  13.878  1.00  0.00     0.118 C 
HETATM   21  C   UNL     1     -44.983 -53.962  12.734  1.00  0.00     0.034 C 
HETATM   22  C   UNL     1     -45.100 -52.505  13.186  1.00  0.00     0.028 C 
BRANCH  20  23
HETATM   23  O   UNL     1     -46.554 -54.975  14.281  1.00  0.00    -0.396 OA
HETATM   24  H   UNL     1     -46.980 -55.775  13.937  1.00  0.00     0.210 HD
ENDBRANCH  20  23
ENDBRANCH   4  17
TORSDOF 6
ENDMDL
