MODEL 1
REMARK VINA RESULT:      -6.2      0.000      0.000
REMARK  3 active torsions:
REMARK  status: ('A' for Active; 'I' for Inactive)
REMARK       I    between atoms: N_2  and  C_3 
REMARK    1  A    between atoms: C_3  and  C_5 
REMARK    2  A    between atoms: C_11  and  N_12 
REMARK    3  A    between atoms: N_12  and  C_13 
ROOT
HETATM    1  C   UNL     1     -41.258 -53.761  13.515  1.00  0.00     0.070 A 
HETATM    2  C   UNL     1     -42.431 -54.326  14.007  1.00  0.00     0.022 A 
HETATM    3  C   UNL     1     -43.632 -54.037  13.377  1.00  0.00     0.018 A 
HETATM    4  C   UNL     1     -43.594 -53.198  12.274  1.00  0.00     0.089 A 
HETATM    5  N   UNL     1     -42.467 -52.607  11.789  1.00  0.00    -0.356 N 
ATOM      6  HN  UNL     1     -42.501 -51.995  10.974  1.00  0.00     0.166 HD
HETATM    7  C   UNL     1     -41.302 -52.859  12.425  1.00  0.00     0.096 A 
ENDROOT
BRANCH   7   8
HETATM    8  N   UNL     1     -40.168 -52.102  12.121  1.00  0.00    -0.271 NA
HETATM    9  H   UNL     1     -40.043 -52.070  11.111  1.00  0.00     0.129 HD
BRANCH   8  10
HETATM   10  C   UNL     1     -39.906 -50.790  12.704  1.00  0.00     0.093 C 
HETATM   11  C   UNL     1     -39.897 -49.768  11.541  1.00  0.00     0.054 C 
HETATM   12  C   UNL     1     -38.521 -49.123  11.667  1.00  0.00     0.123 C 
HETATM   13  C   UNL     1     -37.375 -50.069  11.312  1.00  0.00     0.034 C 
HETATM   14  O   UNL     1     -38.397 -49.071  13.105  1.00  0.00    -0.379 OA
HETATM   15  C   UNL     1     -37.361 -51.024  12.505  1.00  0.00     0.036 C 
HETATM   16  C   UNL     1     -38.531 -50.513  13.339  1.00  0.00     0.140 C 
ENDBRANCH   8  10
ENDBRANCH   7   8
BRANCH   1  17
HETATM   17  C   UNL     1     -39.962 -54.149  14.126  1.00  0.00     0.254 C 
HETATM   18  N   UNL     1     -40.021 -54.379  15.492  1.00  0.00    -0.361 N 
HETATM   19  C   UNL     1     -38.938 -54.953  16.254  1.00  0.00     0.149 C 
HETATM   20  H   UNL     1     -40.848 -54.090  15.999  1.00  0.00     0.162 HD
HETATM   21  O   UNL     1     -38.937 -54.233  13.455  1.00  0.00    -0.268 OA
ENDBRANCH   1  17
TORSDOF 3
ENDMDL
MODEL 2
REMARK VINA RESULT:      -5.8      2.818      6.483
REMARK  3 active torsions:
REMARK  status: ('A' for Active; 'I' for Inactive)
REMARK       I    between atoms: N_2  and  C_3 
REMARK    1  A    between atoms: C_3  and  C_5 
REMARK    2  A    between atoms: C_11  and  N_12 
REMARK    3  A    between atoms: N_12  and  C_13 
ROOT
HETATM    1  C   UNL     1     -40.904 -49.319  11.569  1.00  0.00     0.070 A 
HETATM    2  C   UNL     1     -39.695 -48.653  11.745  1.00  0.00     0.022 A 
HETATM    3  C   UNL     1     -38.579 -49.379  12.133  1.00  0.00     0.018 A 
HETATM    4  C   UNL     1     -38.730 -50.745  12.316  1.00  0.00     0.089 A 
HETATM    5  N   UNL     1     -39.907 -51.418  12.181  1.00  0.00    -0.356 N 
ATOM      6  HN  UNL     1     -39.958 -52.425  12.333  1.00  0.00     0.166 HD
HETATM    7  C   UNL     1     -41.003 -50.705  11.839  1.00  0.00     0.096 A 
ENDROOT
BRANCH   7   8
HETATM    8  N   UNL     1     -42.266 -51.296  11.919  1.00  0.00    -0.271 NA
HETATM    9  H   UNL     1     -42.532 -51.649  11.002  1.00  0.00     0.129 HD
BRANCH   8  10
HETATM   10  C   UNL     1     -42.634 -52.255  12.955  1.00  0.00     0.093 C 
HETATM   11  C   UNL     1     -43.796 -53.110  12.395  1.00  0.00     0.054 C 
HETATM   12  C   UNL     1     -44.899 -52.904  13.428  1.00  0.00     0.123 C 
HETATM   13  C   UNL     1     -45.472 -51.488  13.427  1.00  0.00     0.034 C 
HETATM   14  O   UNL     1     -44.109 -52.877  14.638  1.00  0.00    -0.379 OA
HETATM   15  C   UNL     1     -44.334 -50.676  14.045  1.00  0.00     0.036 C 
HETATM   16  C   UNL     1     -43.263 -51.739  14.262  1.00  0.00     0.140 C 
ENDBRANCH   8  10
ENDBRANCH   7   8
BRANCH   1  17
HETATM   17  C   UNL     1     -42.074 -48.562  11.058  1.00  0.00     0.254 C 
HETATM   18  N   UNL     1     -41.976 -48.191   9.726  1.00  0.00    -0.361 N 
HETATM   19  C   UNL     1     -43.068 -47.626   8.970  1.00  0.00     0.149 C 
HETATM   20  H   UNL     1     -41.081 -48.275   9.262  1.00  0.00     0.162 HD
HETATM   21  O   UNL     1     -43.025 -48.286  11.784  1.00  0.00    -0.268 OA
ENDBRANCH   1  17
TORSDOF 3
ENDMDL
MODEL 3
REMARK VINA RESULT:      -5.5      2.944      6.140
REMARK  3 active torsions:
REMARK  status: ('A' for Active; 'I' for Inactive)
REMARK       I    between atoms: N_2  and  C_3 
REMARK    1  A    between atoms: C_3  and  C_5 
REMARK    2  A    between atoms: C_11  and  N_12 
REMARK    3  A    between atoms: N_12  and  C_13 
ROOT
HETATM    1  C   UNL     1     -41.598 -51.614  12.699  1.00  0.00     0.070 A 
HETATM    2  C   UNL     1     -40.338 -51.800  13.260  1.00  0.00     0.022 A 
HETATM    3  C   UNL     1     -39.904 -53.092  13.520  1.00  0.00     0.018 A 
HETATM    4  C   UNL     1     -40.755 -54.136  13.193  1.00  0.00     0.089 A 
HETATM    5  N   UNL     1     -42.004 -53.982  12.672  1.00  0.00    -0.356 N 
ATOM      6  HN  UNL     1     -42.588 -54.789  12.454  1.00  0.00     0.166 HD
HETATM    7  C   UNL     1     -42.442 -52.723  12.452  1.00  0.00     0.096 A 
ENDROOT
BRANCH   7   8
HETATM    8  N   UNL     1     -43.788 -52.501  12.146  1.00  0.00    -0.271 NA
HETATM    9  H   UNL     1     -43.909 -52.501  11.136  1.00  0.00     0.129 HD
BRANCH   8  10
HETATM   10  C   UNL     1     -44.881 -53.224  12.787  1.00  0.00     0.093 C 
HETATM   11  C   UNL     1     -46.177 -52.421  12.522  1.00  0.00     0.054 C 
HETATM   12  C   UNL     1     -46.703 -52.150  13.927  1.00  0.00     0.123 C 
HETATM   13  C   UNL     1     -45.838 -51.171  14.718  1.00  0.00     0.034 C 
HETATM   14  O   UNL     1     -46.359 -53.398  14.570  1.00  0.00    -0.379 OA
HETATM   15  C   UNL     1     -44.596 -52.008  15.025  1.00  0.00     0.036 C 
HETATM   16  C   UNL     1     -44.915 -53.323  14.323  1.00  0.00     0.140 C 
ENDBRANCH   8  10
ENDBRANCH   7   8
BRANCH   1  17
HETATM   17  C   UNL     1     -42.023 -50.240  12.328  1.00  0.00     0.254 C 
HETATM   18  N   UNL     1     -41.290 -49.675  11.296  1.00  0.00    -0.361 N 
HETATM   19  C   UNL     1     -41.649 -48.440  10.643  1.00  0.00     0.149 C 
HETATM   20  H   UNL     1     -40.430 -50.124  11.008  1.00  0.00     0.162 HD
HETATM   21  O   UNL     1     -42.938 -49.672  12.918  1.00  0.00    -0.268 OA
ENDBRANCH   1  17
TORSDOF 3
ENDMDL
MODEL 4
REMARK VINA RESULT:      -5.4      1.962      4.724
REMARK  3 active torsions:
REMARK  status: ('A' for Active; 'I' for Inactive)
REMARK       I    between atoms: N_2  and  C_3 
REMARK    1  A    between atoms: C_3  and  C_5 
REMARK    2  A    between atoms: C_11  and  N_12 
REMARK    3  A    between atoms: N_12  and  C_13 
ROOT
HETATM    1  C   UNL     1     -39.348 -49.865  12.332  1.00  0.00     0.070 A 
HETATM    2  C   UNL     1     -39.291 -48.498  12.076  1.00  0.00     0.022 A 
HETATM    3  C   UNL     1     -40.331 -47.902  11.379  1.00  0.00     0.018 A 
HETATM    4  C   UNL     1     -41.386 -48.709  10.982  1.00  0.00     0.089 A 
HETATM    5  N   UNL     1     -41.454 -50.053  11.192  1.00  0.00    -0.356 N 
ATOM      6  HN  UNL     1     -42.256 -50.596  10.873  1.00  0.00     0.166 HD
HETATM    7  C   UNL     1     -40.424 -50.641  11.838  1.00  0.00     0.096 A 
ENDROOT
BRANCH   7   8
HETATM    8  N   UNL     1     -40.330 -52.035  11.870  1.00  0.00    -0.271 NA
HETATM    9  H   UNL     1     -39.383 -52.304  12.129  1.00  0.00     0.129 HD
BRANCH   8  10
HETATM   10  C   UNL     1     -41.301 -52.883  12.553  1.00  0.00     0.093 C 
HETATM   11  C   UNL     1     -41.688 -52.166  13.869  1.00  0.00     0.054 C 
HETATM   12  C   UNL     1     -41.350 -53.204  14.934  1.00  0.00     0.123 C 
HETATM   13  C   UNL     1     -39.849 -53.442  15.091  1.00  0.00     0.034 C 
HETATM   14  O   UNL     1     -41.746 -54.411  14.245  1.00  0.00    -0.379 OA
HETATM   15  C   UNL     1     -39.506 -54.208  13.814  1.00  0.00     0.036 C 
HETATM   16  C   UNL     1     -40.850 -54.252  13.095  1.00  0.00     0.140 C 
ENDBRANCH   8  10
ENDBRANCH   7   8
BRANCH   1  17
HETATM   17  C   UNL     1     -38.286 -50.485  13.164  1.00  0.00     0.254 C 
HETATM   18  N   UNL     1     -38.110 -49.889  14.403  1.00  0.00    -0.361 N 
HETATM   19  C   UNL     1     -37.280 -50.441  15.446  1.00  0.00     0.149 C 
HETATM   20  H   UNL     1     -38.549 -48.994  14.579  1.00  0.00     0.162 HD
HETATM   21  O   UNL     1     -37.622 -51.433  12.752  1.00  0.00    -0.268 OA
ENDBRANCH   1  17
TORSDOF 3
ENDMDL
MODEL 5
REMARK VINA RESULT:      -5.4      2.551      5.508
REMARK  3 active torsions:
REMARK  status: ('A' for Active; 'I' for Inactive)
REMARK       I    between atoms: N_2  and  C_3 
REMARK    1  A    between atoms: C_3  and  C_5 
REMARK    2  A    between atoms: C_11  and  N_12 
REMARK    3  A    between atoms: N_12  and  C_13 
ROOT
HETATM    1  C   UNL     1     -40.642 -48.160  11.361  1.00  0.00     0.070 A 
HETATM    2  C   UNL     1     -40.696 -46.844  10.913  1.00  0.00     0.022 A 
HETATM    3  C   UNL     1     -41.919 -46.314  10.529  1.00  0.00     0.018 A 
HETATM    4  C   UNL     1     -43.033 -47.133  10.624  1.00  0.00     0.089 A 
HETATM    5  N   UNL     1     -43.006 -48.433  11.029  1.00  0.00    -0.356 N 
ATOM      6  HN  UNL     1     -43.859 -48.989  11.075  1.00  0.00     0.166 HD
HETATM    7  C   UNL     1     -41.809 -48.961  11.368  1.00  0.00     0.096 A 
ENDROOT
BRANCH   7   8
HETATM    8  N   UNL     1     -41.689 -50.340  11.560  1.00  0.00    -0.271 NA
HETATM    9  H   UNL     1     -40.706 -50.602  11.516  1.00  0.00     0.129 HD
BRANCH   8  10
HETATM   10  C   UNL     1     -42.355 -51.055  12.643  1.00  0.00     0.093 C 
HETATM   11  C   UNL     1     -41.622 -50.682  13.955  1.00  0.00     0.054 C 
HETATM   12  C   UNL     1     -41.195 -52.039  14.503  1.00  0.00     0.123 C 
HETATM   13  C   UNL     1     -40.105 -52.712  13.670  1.00  0.00     0.034 C 
HETATM   14  O   UNL     1     -42.346 -52.833  14.137  1.00  0.00    -0.379 OA
HETATM   15  C   UNL     1     -40.867 -53.129  12.413  1.00  0.00     0.036 C 
HETATM   16  C   UNL     1     -42.266 -52.591  12.693  1.00  0.00     0.140 C 
ENDBRANCH   8  10
ENDBRANCH   7   8
BRANCH   1  17
HETATM   17  C   UNL     1     -39.353 -48.695  11.866  1.00  0.00     0.254 C 
HETATM   18  N   UNL     1     -38.774 -49.656  11.050  1.00  0.00    -0.361 N 
HETATM   19  C   UNL     1     -37.438 -50.166  11.239  1.00  0.00     0.149 C 
HETATM   20  H   UNL     1     -39.329 -50.060  10.307  1.00  0.00     0.162 HD
HETATM   21  O   UNL     1     -38.873 -48.312  12.930  1.00  0.00    -0.268 OA
ENDBRANCH   1  17
TORSDOF 3
ENDMDL
MODEL 6
REMARK VINA RESULT:      -5.4      2.759      4.431
REMARK  3 active torsions:
REMARK  status: ('A' for Active; 'I' for Inactive)
REMARK       I    between atoms: N_2  and  C_3 
REMARK    1  A    between atoms: C_3  and  C_5 
REMARK    2  A    between atoms: C_11  and  N_12 
REMARK    3  A    between atoms: N_12  and  C_13 
ROOT
HETATM    1  C   UNL     1     -39.421 -50.725  12.590  1.00  0.00     0.070 A 
HETATM    2  C   UNL     1     -39.324 -51.808  13.458  1.00  0.00     0.022 A 
HETATM    3  C   UNL     1     -40.187 -52.882  13.291  1.00  0.00     0.018 A 
HETATM    4  C   UNL     1     -41.100 -52.818  12.251  1.00  0.00     0.089 A 
HETATM    5  N   UNL     1     -41.238 -51.759  11.406  1.00  0.00    -0.356 N 
ATOM      6  HN  UNL     1     -41.932 -51.767  10.659  1.00  0.00     0.166 HD
HETATM    7  C   UNL     1     -40.423 -50.697  11.591  1.00  0.00     0.096 A 
ENDROOT
BRANCH   7   8
HETATM    8  N   UNL     1     -40.678 -49.502  10.913  1.00  0.00    -0.271 NA
HETATM    9  H   UNL     1     -40.638 -49.667   9.910  1.00  0.00     0.129 HD
BRANCH   8  10
HETATM   10  C   UNL     1     -41.798 -48.625  11.238  1.00  0.00     0.093 C 
HETATM   11  C   UNL     1     -42.194 -47.889   9.935  1.00  0.00     0.054 C 
HETATM   12  C   UNL     1     -42.073 -46.420  10.324  1.00  0.00     0.123 C 
HETATM   13  C   UNL     1     -40.632 -45.972  10.558  1.00  0.00     0.034 C 
HETATM   14  O   UNL     1     -42.563 -46.478  11.683  1.00  0.00    -0.379 OA
HETATM   15  C   UNL     1     -40.288 -46.656  11.880  1.00  0.00     0.036 C 
HETATM   16  C   UNL     1     -41.567 -47.432  12.182  1.00  0.00     0.140 C 
ENDBRANCH   8  10
ENDBRANCH   7   8
BRANCH   1  17
HETATM   17  C   UNL     1     -38.435 -49.622  12.705  1.00  0.00     0.254 C 
HETATM   18  N   UNL     1     -38.436 -48.981  13.934  1.00  0.00    -0.361 N 
HETATM   19  C   UNL     1     -37.437 -48.020  14.336  1.00  0.00     0.149 C 
HETATM   20  H   UNL     1     -39.200 -49.156  14.573  1.00  0.00     0.162 HD
HETATM   21  O   UNL     1     -37.706 -49.314  11.765  1.00  0.00    -0.268 OA
ENDBRANCH   1  17
TORSDOF 3
ENDMDL
MODEL 7
REMARK VINA RESULT:      -5.3      4.120      6.604
REMARK  3 active torsions:
REMARK  status: ('A' for Active; 'I' for Inactive)
REMARK       I    between atoms: N_2  and  C_3 
REMARK    1  A    between atoms: C_3  and  C_5 
REMARK    2  A    between atoms: C_11  and  N_12 
REMARK    3  A    between atoms: N_12  and  C_13 
ROOT
HETATM    1  C   UNL     1     -42.068 -46.218  10.677  1.00  0.00     0.070 A 
HETATM    2  C   UNL     1     -43.055 -45.545   9.962  1.00  0.00     0.022 A 
HETATM    3  C   UNL     1     -43.734 -46.219   8.958  1.00  0.00     0.018 A 
HETATM    4  C   UNL     1     -43.395 -47.544   8.728  1.00  0.00     0.089 A 
HETATM    5  N   UNL     1     -42.415 -48.218   9.391  1.00  0.00    -0.356 N 
ATOM      6  HN  UNL     1     -42.207 -49.192   9.176  1.00  0.00     0.166 HD
HETATM    7  C   UNL     1     -41.727 -47.550  10.344  1.00  0.00     0.096 A 
ENDROOT
BRANCH   7   8
HETATM    8  N   UNL     1     -40.566 -48.112  10.882  1.00  0.00    -0.271 NA
HETATM    9  H   UNL     1     -39.986 -47.374  11.277  1.00  0.00     0.129 HD
BRANCH   8  10
HETATM   10  C   UNL     1     -40.578 -49.273  11.765  1.00  0.00     0.093 C 
HETATM   11  C   UNL     1     -40.457 -48.745  13.215  1.00  0.00     0.054 C 
HETATM   12  C   UNL     1     -39.217 -49.463  13.736  1.00  0.00     0.123 C 
HETATM   13  C   UNL     1     -37.922 -48.988  13.079  1.00  0.00     0.034 C 
HETATM   14  O   UNL     1     -39.387 -50.751  13.103  1.00  0.00    -0.379 OA
HETATM   15  C   UNL     1     -38.035 -49.578  11.673  1.00  0.00     0.036 C 
HETATM   16  C   UNL     1     -39.398 -50.260  11.720  1.00  0.00     0.140 C 
ENDBRANCH   8  10
ENDBRANCH   7   8
BRANCH   1  17
HETATM   17  C   UNL     1     -41.411 -45.529  11.816  1.00  0.00     0.254 C 
HETATM   18  N   UNL     1     -40.081 -45.205  11.597  1.00  0.00    -0.361 N 
HETATM   19  C   UNL     1     -39.306 -44.366  12.479  1.00  0.00     0.149 C 
HETATM   20  H   UNL     1     -39.606 -45.612  10.801  1.00  0.00     0.162 HD
HETATM   21  O   UNL     1     -42.016 -45.296  12.859  1.00  0.00    -0.268 OA
ENDBRANCH   1  17
TORSDOF 3
ENDMDL
MODEL 8
REMARK VINA RESULT:      -5.3      2.836      5.106
REMARK  3 active torsions:
REMARK  status: ('A' for Active; 'I' for Inactive)
REMARK       I    between atoms: N_2  and  C_3 
REMARK    1  A    between atoms: C_3  and  C_5 
REMARK    2  A    between atoms: C_11  and  N_12 
REMARK    3  A    between atoms: N_12  and  C_13 
ROOT
HETATM    1  C   UNL     1     -39.932 -50.604  12.576  1.00  0.00     0.070 A 
HETATM    2  C   UNL     1     -38.824 -51.218  13.152  1.00  0.00     0.022 A 
HETATM    3  C   UNL     1     -37.571 -50.999  12.599  1.00  0.00     0.018 A 
HETATM    4  C   UNL     1     -37.492 -50.163  11.497  1.00  0.00     0.089 A 
HETATM    5  N   UNL     1     -38.561 -49.573  10.894  1.00  0.00    -0.356 N 
ATOM      6  HN  UNL     1     -38.441 -48.969  10.081  1.00  0.00     0.166 HD
HETATM    7  C   UNL     1     -39.786 -49.815  11.409  1.00  0.00     0.096 A 
ENDROOT
BRANCH   7   8
HETATM    8  N   UNL     1     -40.926 -49.434  10.697  1.00  0.00    -0.271 NA
HETATM    9  H   UNL     1     -41.733 -49.942  11.054  1.00  0.00     0.129 HD
BRANCH   8  10
HETATM   10  C   UNL     1     -41.277 -48.042  10.441  1.00  0.00     0.093 C 
HETATM   11  C   UNL     1     -40.693 -47.203  11.603  1.00  0.00     0.054 C 
HETATM   12  C   UNL     1     -41.922 -46.492  12.160  1.00  0.00     0.123 C 
HETATM   13  C   UNL     1     -42.899 -47.434  12.862  1.00  0.00     0.034 C 
HETATM   14  O   UNL     1     -42.637 -46.224  10.933  1.00  0.00    -0.379 OA
HETATM   15  C   UNL     1     -43.510 -48.202  11.690  1.00  0.00     0.036 C 
HETATM   16  C   UNL     1     -42.757 -47.620  10.498  1.00  0.00     0.140 C 
ENDBRANCH   8  10
ENDBRANCH   7   8
BRANCH   1  17
HETATM   17  C   UNL     1     -41.258 -50.757  13.226  1.00  0.00     0.254 C 
HETATM   18  N   UNL     1     -42.194 -51.434  12.460  1.00  0.00    -0.361 N 
HETATM   19  C   UNL     1     -43.475 -51.868  12.962  1.00  0.00     0.149 C 
HETATM   20  H   UNL     1     -41.996 -51.597  11.481  1.00  0.00     0.162 HD
HETATM   21  O   UNL     1     -41.481 -50.295  14.342  1.00  0.00    -0.268 OA
ENDBRANCH   1  17
TORSDOF 3
ENDMDL
MODEL 9
REMARK VINA RESULT:      -5.2      2.686      4.228
REMARK  3 active torsions:
REMARK  status: ('A' for Active; 'I' for Inactive)
REMARK       I    between atoms: N_2  and  C_3 
REMARK    1  A    between atoms: C_3  and  C_5 
REMARK    2  A    between atoms: C_11  and  N_12 
REMARK    3  A    between atoms: N_12  and  C_13 
ROOT
HETATM    1  C   UNL     1     -40.381 -51.648  12.695  1.00  0.00     0.070 A 
HETATM    2  C   UNL     1     -40.562 -52.992  13.008  1.00  0.00     0.022 A 
HETATM    3  C   UNL     1     -41.830 -53.542  12.900  1.00  0.00     0.018 A 
HETATM    4  C   UNL     1     -42.857 -52.715  12.473  1.00  0.00     0.089 A 
HETATM    5  N   UNL     1     -42.716 -51.390  12.189  1.00  0.00    -0.356 N 
ATOM      6  HN  UNL     1     -43.510 -50.829  11.882  1.00  0.00     0.166 HD
HETATM    7  C   UNL     1     -41.488 -50.845  12.329  1.00  0.00     0.096 A 
ENDROOT
BRANCH   7   8
HETATM    8  N   UNL     1     -41.336 -49.456  12.283  1.00  0.00    -0.271 NA
HETATM    9  H   UNL     1     -40.512 -49.189  12.816  1.00  0.00     0.129 HD
BRANCH   8  10
HETATM   10  C   UNL     1     -41.410 -48.687  11.045  1.00  0.00     0.093 C 
HETATM   11  C   UNL     1     -40.413 -47.511  11.179  1.00  0.00     0.054 C 
HETATM   12  C   UNL     1     -41.298 -46.289  10.957  1.00  0.00     0.123 C 
HETATM   13  C   UNL     1     -42.287 -46.044  12.095  1.00  0.00     0.034 C 
HETATM   14  O   UNL     1     -42.182 -46.800   9.934  1.00  0.00    -0.379 OA
HETATM   15  C   UNL     1     -43.295 -47.176  11.900  1.00  0.00     0.036 C 
HETATM   16  C   UNL     1     -42.707 -47.928  10.711  1.00  0.00     0.140 C 
ENDBRANCH   8  10
ENDBRANCH   7   8
BRANCH   1  17
HETATM   17  C   UNL     1     -39.008 -51.084  12.713  1.00  0.00     0.254 C 
HETATM   18  N   UNL     1     -38.550 -50.657  11.476  1.00  0.00    -0.361 N 
HETATM   19  C   UNL     1     -37.335 -49.902  11.290  1.00  0.00     0.149 C 
HETATM   20  H   UNL     1     -39.067 -50.923  10.648  1.00  0.00     0.162 HD
HETATM   21  O   UNL     1     -38.351 -51.032  13.749  1.00  0.00    -0.268 OA
ENDBRANCH   1  17
TORSDOF 3
ENDMDL
