MODEL 1
REMARK VINA RESULT:      -6.7      0.000      0.000
REMARK  4 active torsions:
REMARK  status: ('A' for Active; 'I' for Inactive)
REMARK    1  A    between atoms: C_8  and  N_9 
REMARK       I    between atoms: N_9  and  C_10 
REMARK       I    between atoms: C_10  and  N_12 
REMARK    2  A    between atoms: N_12  and  C_13 
REMARK    3  A    between atoms: C_13  and  C_14 
REMARK    4  A    between atoms: C_14  and  O_15 
ROOT
HETATM    1  N   UNL     1     -41.585 -48.639   9.941  1.00  0.00    -0.308 N 
HETATM    2  C   UNL     1     -41.452 -49.349  11.118  1.00  0.00     0.320 C 
HETATM    3  O   UNL     1     -42.054 -49.106  12.159  1.00  0.00    -0.247 OA
HETATM    4  N   UNL     1     -40.536 -50.389  11.085  1.00  0.00    -0.340 N 
HETATM    5  H   UNL     1     -41.182 -49.035   9.106  1.00  0.00     0.170 HD
HETATM    6  H   UNL     1     -40.457 -50.922  10.229  1.00  0.00     0.164 HD
ENDROOT
BRANCH   1   7
HETATM    7  C   UNL     1     -42.389 -47.463   9.812  1.00  0.00     0.044 A 
HETATM    8  C   UNL     1     -41.958 -46.215  10.295  1.00  0.00    -0.020 A 
HETATM    9  C   UNL     1     -40.659 -45.981  11.003  1.00  0.00     0.052 C 
HETATM   10  C   UNL     1     -42.802 -45.116  10.089  1.00  0.00     0.096 A 
HETATM   11  N   UNL     1     -43.998 -45.155   9.467  1.00  0.00    -0.375 N 
HETATM   12  C   UNL     1     -44.399 -46.363   9.043  1.00  0.00     0.090 A 
ATOM     13  HN  UNL     1     -44.564 -44.318   9.329  1.00  0.00     0.164 HD
HETATM   14  C   UNL     1     -43.650 -47.515   9.200  1.00  0.00     0.047 A 
ENDBRANCH   1   7
BRANCH   4  15
HETATM   15  C   UNL     1     -40.436 -51.126  12.342  1.00  0.00     0.162 C 
BRANCH  15  16
HETATM   16  C   UNL     1     -41.004 -52.548  12.400  1.00  0.00     0.074 C 
HETATM   17  C   UNL     1     -42.548 -52.490  12.401  1.00  0.00     0.039 C 
HETATM   18  C   UNL     1     -43.033 -53.674  13.238  1.00  0.00     0.003 C 
HETATM   19  C   UNL     1     -41.778 -54.408  13.690  1.00  0.00     0.003 C 
HETATM   20  C   UNL     1     -40.681 -53.344  13.661  1.00  0.00     0.039 C 
BRANCH  16  21
HETATM   21  O   UNL     1     -40.553 -53.289  11.259  1.00  0.00    -0.388 OA
HETATM   22  H   UNL     1     -41.186 -53.132  10.537  1.00  0.00     0.210 HD
ENDBRANCH  16  21
ENDBRANCH  15  16
ENDBRANCH   4  15
TORSDOF 4
ENDMDL
MODEL 2
REMARK VINA RESULT:      -6.6      3.597      6.610
REMARK  4 active torsions:
REMARK  status: ('A' for Active; 'I' for Inactive)
REMARK    1  A    between atoms: C_8  and  N_9 
REMARK       I    between atoms: N_9  and  C_10 
REMARK       I    between atoms: C_10  and  N_12 
REMARK    2  A    between atoms: N_12  and  C_13 
REMARK    3  A    between atoms: C_13  and  C_14 
REMARK    4  A    between atoms: C_14  and  O_15 
ROOT
HETATM    1  N   UNL     1     -44.323 -51.894  12.555  1.00  0.00    -0.308 N 
HETATM    2  C   UNL     1     -43.132 -51.374  13.021  1.00  0.00     0.320 C 
HETATM    3  O   UNL     1     -42.534 -51.767  14.017  1.00  0.00    -0.247 OA
HETATM    4  N   UNL     1     -42.624 -50.308  12.295  1.00  0.00    -0.340 N 
HETATM    5  H   UNL     1     -44.627 -51.617  11.634  1.00  0.00     0.170 HD
HETATM    6  H   UNL     1     -42.745 -50.320  11.291  1.00  0.00     0.164 HD
ENDROOT
BRANCH   1   7
HETATM    7  C   UNL     1     -45.062 -52.915  13.232  1.00  0.00     0.044 A 
HETATM    8  C   UNL     1     -46.162 -52.610  14.053  1.00  0.00    -0.020 A 
HETATM    9  C   UNL     1     -46.661 -51.224  14.326  1.00  0.00     0.052 C 
HETATM   10  C   UNL     1     -46.842 -53.682  14.645  1.00  0.00     0.096 A 
HETATM   11  N   UNL     1     -46.526 -54.985  14.497  1.00  0.00    -0.375 N 
HETATM   12  C   UNL     1     -45.455 -55.246  13.734  1.00  0.00     0.090 A 
ATOM     13  HN  UNL     1     -47.070 -55.727  14.940  1.00  0.00     0.164 HD
HETATM   14  C   UNL     1     -44.706 -54.265  13.108  1.00  0.00     0.047 A 
ENDBRANCH   1   7
BRANCH   4  15
HETATM   15  C   UNL     1     -41.357 -49.796  12.809  1.00  0.00     0.162 C 
BRANCH  15  16
HETATM   16  C   UNL     1     -40.078 -50.081  12.011  1.00  0.00     0.074 C 
HETATM   17  C   UNL     1     -39.243 -51.158  12.739  1.00  0.00     0.039 C 
HETATM   18  C   UNL     1     -37.774 -50.838  12.459  1.00  0.00     0.003 C 
HETATM   19  C   UNL     1     -37.777 -49.604  11.567  1.00  0.00     0.003 C 
HETATM   20  C   UNL     1     -39.105 -48.914  11.874  1.00  0.00     0.039 C 
BRANCH  16  21
HETATM   21  O   UNL     1     -40.428 -50.548  10.702  1.00  0.00    -0.388 OA
HETATM   22  H   UNL     1     -41.308 -50.959  10.762  1.00  0.00     0.210 HD
ENDBRANCH  16  21
ENDBRANCH  15  16
ENDBRANCH   4  15
TORSDOF 4
ENDMDL
MODEL 3
REMARK VINA RESULT:      -6.5      3.672      6.486
REMARK  4 active torsions:
REMARK  status: ('A' for Active; 'I' for Inactive)
REMARK    1  A    between atoms: C_8  and  N_9 
REMARK       I    between atoms: N_9  and  C_10 
REMARK       I    between atoms: C_10  and  N_12 
REMARK    2  A    between atoms: N_12  and  C_13 
REMARK    3  A    between atoms: C_13  and  C_14 
REMARK    4  A    between atoms: C_14  and  O_15 
ROOT
HETATM    1  N   UNL     1     -44.157 -52.557  12.399  1.00  0.00    -0.308 N 
HETATM    2  C   UNL     1     -42.850 -52.250  12.721  1.00  0.00     0.320 C 
HETATM    3  O   UNL     1     -42.439 -52.019  13.853  1.00  0.00    -0.247 OA
HETATM    4  N   UNL     1     -41.974 -52.177  11.649  1.00  0.00    -0.340 N 
HETATM    5  H   UNL     1     -44.341 -52.903  11.469  1.00  0.00     0.170 HD
HETATM    6  H   UNL     1     -42.106 -52.828  10.886  1.00  0.00     0.164 HD
ENDROOT
BRANCH   1   7
HETATM    7  C   UNL     1     -45.227 -52.563  13.348  1.00  0.00     0.044 A 
HETATM    8  C   UNL     1     -45.683 -53.753  13.941  1.00  0.00    -0.020 A 
HETATM    9  C   UNL     1     -45.137 -55.116  13.641  1.00  0.00     0.052 C 
HETATM   10  C   UNL     1     -46.713 -53.650  14.885  1.00  0.00     0.096 A 
HETATM   11  N   UNL     1     -47.308 -52.503  15.270  1.00  0.00    -0.375 N 
HETATM   12  C   UNL     1     -46.875 -51.386  14.667  1.00  0.00     0.090 A 
ATOM     13  HN  UNL     1     -48.044 -52.485  15.977  1.00  0.00     0.164 HD
HETATM   14  C   UNL     1     -45.870 -51.373  13.716  1.00  0.00     0.047 A 
ENDBRANCH   1   7
BRANCH   4  15
HETATM   15  C   UNL     1     -40.599 -51.865  12.031  1.00  0.00     0.162 C 
BRANCH  15  16
HETATM   16  C   UNL     1     -40.055 -50.466  11.719  1.00  0.00     0.074 C 
HETATM   17  C   UNL     1     -38.524 -50.449  11.923  1.00  0.00     0.039 C 
HETATM   18  C   UNL     1     -38.161 -49.045  12.409  1.00  0.00     0.003 C 
HETATM   19  C   UNL     1     -39.469 -48.269  12.460  1.00  0.00     0.003 C 
HETATM   20  C   UNL     1     -40.544 -49.343  12.627  1.00  0.00     0.039 C 
BRANCH  16  21
HETATM   21  O   UNL     1     -40.362 -50.129  10.360  1.00  0.00    -0.388 OA
HETATM   22  H   UNL     1     -40.135 -49.191  10.231  1.00  0.00     0.210 HD
ENDBRANCH  16  21
ENDBRANCH  15  16
ENDBRANCH   4  15
TORSDOF 4
ENDMDL
MODEL 4
REMARK VINA RESULT:      -6.4      2.117      6.781
REMARK  4 active torsions:
REMARK  status: ('A' for Active; 'I' for Inactive)
REMARK    1  A    between atoms: C_8  and  N_9 
REMARK       I    between atoms: N_9  and  C_10 
REMARK       I    between atoms: C_10  and  N_12 
REMARK    2  A    between atoms: N_12  and  C_13 
REMARK    3  A    between atoms: C_13  and  C_14 
REMARK    4  A    between atoms: C_14  and  O_15 
ROOT
HETATM    1  N   UNL     1     -40.381 -49.735  10.586  1.00  0.00    -0.308 N 
HETATM    2  C   UNL     1     -41.289 -48.702  10.712  1.00  0.00     0.320 C 
HETATM    3  O   UNL     1     -41.569 -48.135  11.763  1.00  0.00    -0.247 OA
HETATM    4  N   UNL     1     -41.932 -48.328   9.542  1.00  0.00    -0.340 N 
HETATM    5  H   UNL     1     -40.099 -50.000   9.654  1.00  0.00     0.170 HD
HETATM    6  H   UNL     1     -41.401 -48.355   8.682  1.00  0.00     0.164 HD
ENDROOT
BRANCH   1   7
HETATM    7  C   UNL     1     -39.707 -50.338  11.694  1.00  0.00     0.044 A 
HETATM    8  C   UNL     1     -40.255 -51.431  12.387  1.00  0.00    -0.020 A 
HETATM    9  C   UNL     1     -41.579 -52.059  12.073  1.00  0.00     0.052 C 
HETATM   10  C   UNL     1     -39.501 -51.974  13.436  1.00  0.00     0.096 A 
HETATM   11  N   UNL     1     -38.293 -51.532  13.841  1.00  0.00    -0.375 N 
HETATM   12  C   UNL     1     -37.808 -50.469  13.182  1.00  0.00     0.090 A 
ATOM     13  HN  UNL     1     -37.781 -51.978  14.602  1.00  0.00     0.164 HD
HETATM   14  C   UNL     1     -38.470 -49.850  12.137  1.00  0.00     0.047 A 
ENDBRANCH   1   7
BRANCH   4  15
HETATM   15  C   UNL     1     -42.871 -47.224   9.713  1.00  0.00     0.162 C 
BRANCH  15  16
HETATM   16  C   UNL     1     -44.209 -47.282   8.965  1.00  0.00     0.074 C 
HETATM   17  C   UNL     1     -44.782 -45.855   8.818  1.00  0.00     0.039 C 
HETATM   18  C   UNL     1     -46.305 -45.986   8.865  1.00  0.00     0.003 C 
HETATM   19  C   UNL     1     -46.592 -47.473   9.016  1.00  0.00     0.003 C 
HETATM   20  C   UNL     1     -45.331 -48.042   9.665  1.00  0.00     0.039 C 
BRANCH  16  21
HETATM   21  O   UNL     1     -44.004 -47.853   7.667  1.00  0.00    -0.388 OA
HETATM   22  H   UNL     1     -43.480 -47.219   7.146  1.00  0.00     0.210 HD
ENDBRANCH  16  21
ENDBRANCH  15  16
ENDBRANCH   4  15
TORSDOF 4
ENDMDL
MODEL 5
REMARK VINA RESULT:      -6.2      2.284      6.924
REMARK  4 active torsions:
REMARK  status: ('A' for Active; 'I' for Inactive)
REMARK    1  A    between atoms: C_8  and  N_9 
REMARK       I    between atoms: N_9  and  C_10 
REMARK       I    between atoms: C_10  and  N_12 
REMARK    2  A    between atoms: N_12  and  C_13 
REMARK    3  A    between atoms: C_13  and  C_14 
REMARK    4  A    between atoms: C_14  and  O_15 
ROOT
HETATM    1  N   UNL     1     -42.004 -52.622  11.797  1.00  0.00    -0.308 N 
HETATM    2  C   UNL     1     -41.586 -51.342  12.101  1.00  0.00     0.320 C 
HETATM    3  O   UNL     1     -41.782 -50.771  13.168  1.00  0.00    -0.247 OA
HETATM    4  N   UNL     1     -40.924 -50.674  11.081  1.00  0.00    -0.340 N 
HETATM    5  H   UNL     1     -41.633 -53.051  10.963  1.00  0.00     0.170 HD
HETATM    6  H   UNL     1     -40.315 -51.214  10.482  1.00  0.00     0.164 HD
ENDROOT
BRANCH   1   7
HETATM    7  C   UNL     1     -42.803 -53.423  12.672  1.00  0.00     0.044 A 
HETATM    8  C   UNL     1     -42.234 -54.154  13.731  1.00  0.00    -0.020 A 
HETATM    9  C   UNL     1     -40.770 -54.198  14.043  1.00  0.00     0.052 C 
HETATM   10  C   UNL     1     -43.105 -54.880  14.554  1.00  0.00     0.096 A 
HETATM   11  N   UNL     1     -44.444 -54.942  14.413  1.00  0.00    -0.375 N 
HETATM   12  C   UNL     1     -44.957 -54.261  13.378  1.00  0.00     0.090 A 
ATOM     13  HN  UNL     1     -45.032 -55.476  15.055  1.00  0.00     0.164 HD
HETATM   14  C   UNL     1     -44.191 -53.517  12.499  1.00  0.00     0.047 A 
ENDBRANCH   1   7
BRANCH   4  15
HETATM   15  C   UNL     1     -40.484 -49.331  11.445  1.00  0.00     0.162 C 
BRANCH  15  16
HETATM   16  C   UNL     1     -41.283 -48.133  10.917  1.00  0.00     0.074 C 
HETATM   17  C   UNL     1     -40.393 -46.871  10.929  1.00  0.00     0.039 C 
HETATM   18  C   UNL     1     -41.317 -45.684  11.210  1.00  0.00     0.003 C 
HETATM   19  C   UNL     1     -42.718 -46.266  11.335  1.00  0.00     0.003 C 
HETATM   20  C   UNL     1     -42.493 -47.720  11.749  1.00  0.00     0.039 C 
BRANCH  16  21
HETATM   21  O   UNL     1     -41.714 -48.403   9.577  1.00  0.00    -0.388 OA
HETATM   22  H   UNL     1     -42.682 -48.507   9.594  1.00  0.00     0.210 HD
ENDBRANCH  16  21
ENDBRANCH  15  16
ENDBRANCH   4  15
TORSDOF 4
ENDMDL
MODEL 6
REMARK VINA RESULT:      -6.2      2.883      4.924
REMARK  4 active torsions:
REMARK  status: ('A' for Active; 'I' for Inactive)
REMARK    1  A    between atoms: C_8  and  N_9 
REMARK       I    between atoms: N_9  and  C_10 
REMARK       I    between atoms: C_10  and  N_12 
REMARK    2  A    between atoms: N_12  and  C_13 
REMARK    3  A    between atoms: C_13  and  C_14 
REMARK    4  A    between atoms: C_14  and  O_15 
ROOT
HETATM    1  N   UNL     1     -41.577 -51.421  11.527  1.00  0.00    -0.308 N 
HETATM    2  C   UNL     1     -42.232 -52.218  12.444  1.00  0.00     0.320 C 
HETATM    3  O   UNL     1     -42.008 -52.235  13.650  1.00  0.00    -0.247 OA
HETATM    4  N   UNL     1     -43.187 -53.073  11.915  1.00  0.00    -0.340 N 
HETATM    5  H   UNL     1     -41.964 -51.360  10.598  1.00  0.00     0.170 HD
HETATM    6  H   UNL     1     -43.739 -52.739  11.137  1.00  0.00     0.164 HD
ENDROOT
BRANCH   1   7
HETATM    7  C   UNL     1     -40.482 -50.563  11.861  1.00  0.00     0.044 A 
HETATM    8  C   UNL     1     -40.509 -49.186  11.580  1.00  0.00    -0.020 A 
HETATM    9  C   UNL     1     -41.640 -48.480  10.897  1.00  0.00     0.052 C 
HETATM   10  C   UNL     1     -39.402 -48.424  11.979  1.00  0.00     0.096 A 
HETATM   11  N   UNL     1     -38.309 -48.903  12.606  1.00  0.00    -0.375 N 
HETATM   12  C   UNL     1     -38.296 -50.225  12.835  1.00  0.00     0.090 A 
ATOM     13  HN  UNL     1     -37.538 -48.297  12.889  1.00  0.00     0.164 HD
HETATM   14  C   UNL     1     -39.330 -51.072  12.478  1.00  0.00     0.047 A 
ENDBRANCH   1   7
BRANCH   4  15
HETATM   15  C   UNL     1     -43.868 -53.887  12.917  1.00  0.00     0.162 C 
BRANCH  15  16
HETATM   16  C   UNL     1     -45.265 -53.456  13.380  1.00  0.00     0.074 C 
HETATM   17  C   UNL     1     -45.864 -52.460  12.361  1.00  0.00     0.039 C 
HETATM   18  C   UNL     1     -46.740 -51.492  13.156  1.00  0.00     0.003 C 
HETATM   19  C   UNL     1     -46.655 -51.945  14.607  1.00  0.00     0.003 C 
HETATM   20  C   UNL     1     -45.324 -52.690  14.697  1.00  0.00     0.039 C 
BRANCH  16  21
HETATM   21  O   UNL     1     -46.111 -54.609  13.478  1.00  0.00    -0.388 OA
HETATM   22  H   UNL     1     -46.369 -54.707  14.411  1.00  0.00     0.210 HD
ENDBRANCH  16  21
ENDBRANCH  15  16
ENDBRANCH   4  15
TORSDOF 4
ENDMDL
MODEL 7
REMARK VINA RESULT:      -6.1      1.216      2.286
REMARK  4 active torsions:
REMARK  status: ('A' for Active; 'I' for Inactive)
REMARK    1  A    between atoms: C_8  and  N_9 
REMARK       I    between atoms: N_9  and  C_10 
REMARK       I    between atoms: C_10  and  N_12 
REMARK    2  A    between atoms: N_12  and  C_13 
REMARK    3  A    between atoms: C_13  and  C_14 
REMARK    4  A    between atoms: C_14  and  O_15 
ROOT
HETATM    1  N   UNL     1     -41.215 -48.742  10.593  1.00  0.00    -0.308 N 
HETATM    2  C   UNL     1     -41.591 -49.607  11.601  1.00  0.00     0.320 C 
HETATM    3  O   UNL     1     -42.047 -49.266  12.687  1.00  0.00    -0.247 OA
HETATM    4  N   UNL     1     -41.393 -50.953  11.336  1.00  0.00    -0.340 N 
HETATM    5  H   UNL     1     -41.025 -49.136   9.684  1.00  0.00     0.170 HD
HETATM    6  H   UNL     1     -41.546 -51.275  10.389  1.00  0.00     0.164 HD
ENDROOT
BRANCH   1   7
HETATM    7  C   UNL     1     -41.231 -47.318  10.722  1.00  0.00     0.044 A 
HETATM    8  C   UNL     1     -42.388 -46.564  10.458  1.00  0.00    -0.020 A 
HETATM    9  C   UNL     1     -43.693 -47.142  10.001  1.00  0.00     0.052 C 
HETATM   10  C   UNL     1     -42.314 -45.178  10.649  1.00  0.00     0.096 A 
HETATM   11  N   UNL     1     -41.221 -44.504  11.059  1.00  0.00    -0.375 N 
HETATM   12  C   UNL     1     -40.122 -45.243  11.275  1.00  0.00     0.090 A 
ATOM     13  HN  UNL     1     -41.229 -43.493  11.197  1.00  0.00     0.164 HD
HETATM   14  C   UNL     1     -40.082 -46.616  11.111  1.00  0.00     0.047 A 
ENDBRANCH   1   7
BRANCH   4  15
HETATM   15  C   UNL     1     -41.818 -51.836  12.418  1.00  0.00     0.162 C 
BRANCH  15  16
HETATM   16  C   UNL     1     -40.897 -52.995  12.818  1.00  0.00     0.074 C 
HETATM   17  C   UNL     1     -41.667 -53.980  13.725  1.00  0.00     0.039 C 
HETATM   18  C   UNL     1     -40.648 -54.567  14.702  1.00  0.00     0.003 C 
HETATM   19  C   UNL     1     -39.311 -53.937  14.340  1.00  0.00     0.003 C 
HETATM   20  C   UNL     1     -39.680 -52.620  13.658  1.00  0.00     0.039 C 
BRANCH  16  21
HETATM   21  O   UNL     1     -40.451 -53.677  11.638  1.00  0.00    -0.388 OA
HETATM   22  H   UNL     1     -41.206 -53.732  11.027  1.00  0.00     0.210 HD
ENDBRANCH  16  21
ENDBRANCH  15  16
ENDBRANCH   4  15
TORSDOF 4
ENDMDL
MODEL 8
REMARK VINA RESULT:      -6.0      3.538      6.535
REMARK  4 active torsions:
REMARK  status: ('A' for Active; 'I' for Inactive)
REMARK    1  A    between atoms: C_8  and  N_9 
REMARK       I    between atoms: N_9  and  C_10 
REMARK       I    between atoms: C_10  and  N_12 
REMARK    2  A    between atoms: N_12  and  C_13 
REMARK    3  A    between atoms: C_13  and  C_14 
REMARK    4  A    between atoms: C_14  and  O_15 
ROOT
HETATM    1  N   UNL     1     -42.392 -53.061  12.202  1.00  0.00    -0.308 N 
HETATM    2  C   UNL     1     -41.920 -51.764  12.192  1.00  0.00     0.320 C 
HETATM    3  O   UNL     1     -42.332 -50.859  12.910  1.00  0.00    -0.247 OA
HETATM    4  N   UNL     1     -40.925 -51.499  11.264  1.00  0.00    -0.340 N 
HETATM    5  H   UNL     1     -41.861 -53.757  11.702  1.00  0.00     0.170 HD
HETATM    6  H   UNL     1     -40.245 -52.225  11.082  1.00  0.00     0.164 HD
ENDROOT
BRANCH   1   7
HETATM    7  C   UNL     1     -43.495 -53.498  13.003  1.00  0.00     0.044 A 
HETATM    8  C   UNL     1     -43.303 -54.213  14.198  1.00  0.00    -0.020 A 
HETATM    9  C   UNL     1     -41.966 -54.612  14.745  1.00  0.00     0.052 C 
HETATM   10  C   UNL     1     -44.445 -54.566  14.929  1.00  0.00     0.096 A 
HETATM   11  N   UNL     1     -45.715 -54.280  14.580  1.00  0.00    -0.375 N 
HETATM   12  C   UNL     1     -45.871 -53.623  13.421  1.00  0.00     0.090 A 
ATOM     13  HN  UNL     1     -46.510 -54.547  15.162  1.00  0.00     0.164 HD
HETATM   14  C   UNL     1     -44.816 -53.233  12.616  1.00  0.00     0.047 A 
ENDBRANCH   1   7
BRANCH   4  15
HETATM   15  C   UNL     1     -40.441 -50.122  11.295  1.00  0.00     0.162 C 
BRANCH  15  16
HETATM   16  C   UNL     1     -39.026 -49.859  11.822  1.00  0.00     0.074 C 
HETATM   17  C   UNL     1     -38.610 -50.996  12.782  1.00  0.00     0.039 C 
HETATM   18  C   UNL     1     -37.701 -50.369  13.840  1.00  0.00     0.003 C 
HETATM   19  C   UNL     1     -37.586 -48.896  13.472  1.00  0.00     0.003 C 
HETATM   20  C   UNL     1     -38.853 -48.602  12.670  1.00  0.00     0.039 C 
BRANCH  16  21
HETATM   21  O   UNL     1     -38.110 -49.802  10.721  1.00  0.00    -0.388 OA
HETATM   22  H   UNL     1     -37.227 -50.031  11.060  1.00  0.00     0.210 HD
ENDBRANCH  16  21
ENDBRANCH  15  16
ENDBRANCH   4  15
TORSDOF 4
ENDMDL
MODEL 9
REMARK VINA RESULT:      -5.9      1.952      2.906
REMARK  4 active torsions:
REMARK  status: ('A' for Active; 'I' for Inactive)
REMARK    1  A    between atoms: C_8  and  N_9 
REMARK       I    between atoms: N_9  and  C_10 
REMARK       I    between atoms: C_10  and  N_12 
REMARK    2  A    between atoms: N_12  and  C_13 
REMARK    3  A    between atoms: C_13  and  C_14 
REMARK    4  A    between atoms: C_14  and  O_15 
ROOT
HETATM    1  N   UNL     1     -41.741 -49.359  10.998  1.00  0.00    -0.308 N 
HETATM    2  C   UNL     1     -42.267 -49.971  12.118  1.00  0.00     0.320 C 
HETATM    3  O   UNL     1     -42.643 -49.386  13.129  1.00  0.00    -0.247 OA
HETATM    4  N   UNL     1     -42.330 -51.355  12.066  1.00  0.00    -0.340 N 
HETATM    5  H   UNL     1     -41.636 -49.918  10.165  1.00  0.00     0.170 HD
HETATM    6  H   UNL     1     -42.548 -51.784  11.177  1.00  0.00     0.164 HD
ENDROOT
BRANCH   1   7
HETATM    7  C   UNL     1     -41.486 -47.954  10.907  1.00  0.00     0.044 A 
HETATM    8  C   UNL     1     -42.439 -47.062  10.388  1.00  0.00    -0.020 A 
HETATM    9  C   UNL     1     -43.783 -47.464   9.862  1.00  0.00     0.052 C 
HETATM   10  C   UNL     1     -42.108 -45.700  10.374  1.00  0.00     0.096 A 
HETATM   11  N   UNL     1     -40.947 -45.174  10.814  1.00  0.00    -0.375 N 
HETATM   12  C   UNL     1     -40.044 -46.051  11.276  1.00  0.00     0.090 A 
ATOM     13  HN  UNL     1     -40.767 -44.169  10.795  1.00  0.00     0.164 HD
HETATM   14  C   UNL     1     -40.262 -47.416  11.329  1.00  0.00     0.047 A 
ENDBRANCH   1   7
BRANCH   4  15
HETATM   15  C   UNL     1     -42.907 -51.963  13.261  1.00  0.00     0.162 C 
BRANCH  15  16
HETATM   16  C   UNL     1     -44.006 -53.018  13.085  1.00  0.00     0.074 C 
HETATM   17  C   UNL     1     -45.344 -52.468  13.627  1.00  0.00     0.039 C 
HETATM   18  C   UNL     1     -46.116 -53.662  14.188  1.00  0.00     0.003 C 
HETATM   19  C   UNL     1     -45.234 -54.880  13.948  1.00  0.00     0.003 C 
HETATM   20  C   UNL     1     -43.817 -54.315  13.865  1.00  0.00     0.039 C 
BRANCH  16  21
HETATM   21  O   UNL     1     -44.146 -53.332  11.693  1.00  0.00    -0.388 OA
HETATM   22  H   UNL     1     -43.458 -52.840  11.210  1.00  0.00     0.210 HD
ENDBRANCH  16  21
ENDBRANCH  15  16
ENDBRANCH   4  15
TORSDOF 4
ENDMDL
