MODEL 1
REMARK VINA RESULT:      -6.0      0.000      0.000
REMARK  7 active torsions:
REMARK  status: ('A' for Active; 'I' for Inactive)
REMARK    1  A    between atoms: O_2  and  C_3 
REMARK    2  A    between atoms: C_3  and  C_4 
REMARK    3  A    between atoms: C_4  and  N_5 
REMARK    4  A    between atoms: C_6  and  S_7 
REMARK    5  A    between atoms: S_7  and  C_8 
REMARK    6  A    between atoms: C_8  and  C_9 
REMARK       I    between atoms: C_9  and  N_11 
REMARK    7  A    between atoms: N_11  and  C_12 
ROOT
HETATM    1  N   UNL     1     -42.450 -51.987  12.562  1.00  0.00    -0.324 N 
HETATM    2  C   UNL     1     -42.792 -50.657  12.469  1.00  0.00     0.148 A 
HETATM    3  N   UNL     1     -44.041 -50.444  12.819  1.00  0.00    -0.335 N 
ATOM      4  HN  UNL     1     -44.538 -49.554  12.833  1.00  0.00     0.168 HD
HETATM    5  C   UNL     1     -44.535 -51.684  13.164  1.00  0.00     0.061 A 
HETATM    6  C   UNL     1     -45.817 -52.050  13.609  1.00  0.00     0.032 A 
HETATM    7  C   UNL     1     -46.080 -53.396  13.895  1.00  0.00     0.002 A 
HETATM    8  C   UNL     1     -45.089 -54.365  13.747  1.00  0.00     0.002 A 
HETATM    9  C   UNL     1     -43.804 -54.019  13.319  1.00  0.00     0.032 A 
HETATM   10  C   UNL     1     -43.562 -52.669  13.022  1.00  0.00     0.063 A 
ENDROOT
BRANCH   2  11
HETATM   11  S   UNL     1     -41.704 -49.426  11.907  1.00  0.00    -0.084 SA
BRANCH  11  12
HETATM   12  C   UNL     1     -42.764 -47.948  11.973  1.00  0.00     0.185 C 
BRANCH  12  13
HETATM   13  C   UNL     1     -43.297 -47.629  10.582  1.00  0.00     0.227 C 
HETATM   14  O   UNL     1     -42.577 -47.172   9.695  1.00  0.00    -0.273 OA
HETATM   15  N   UNL     1     -44.652 -47.867  10.405  1.00  0.00    -0.356 N 
HETATM   16  H   UNL     1     -45.162 -48.333  11.148  1.00  0.00     0.162 HD
BRANCH  15  17
HETATM   17  C   UNL     1     -45.292 -47.689   9.136  1.00  0.00     0.084 A 
HETATM   18  C   UNL     1     -46.588 -46.931   9.036  1.00  0.00     0.027 A 
HETATM   19  C   UNL     1     -46.568 -48.411   8.791  1.00  0.00     0.027 A 
ENDBRANCH  15  17
ENDBRANCH  12  13
ENDBRANCH  11  12
ENDBRANCH   2  11
BRANCH   1  20
HETATM   20  C   UNL     1     -41.165 -52.612  12.319  1.00  0.00     0.157 C 
BRANCH  20  21
HETATM   21  C   UNL     1     -40.211 -52.534  13.509  1.00  0.00     0.187 C 
BRANCH  21  22
HETATM   22  O   UNL     1     -39.190 -53.522  13.343  1.00  0.00    -0.394 OA
HETATM   23  C   UNL     1     -39.343 -54.596  14.264  1.00  0.00     0.201 C 
ENDBRANCH  21  22
ENDBRANCH  20  21
ENDBRANCH   1  20
TORSDOF 7
ENDMDL
MODEL 2
REMARK VINA RESULT:      -6.0      1.832      2.824
REMARK  7 active torsions:
REMARK  status: ('A' for Active; 'I' for Inactive)
REMARK    1  A    between atoms: O_2  and  C_3 
REMARK    2  A    between atoms: C_3  and  C_4 
REMARK    3  A    between atoms: C_4  and  N_5 
REMARK    4  A    between atoms: C_6  and  S_7 
REMARK    5  A    between atoms: S_7  and  C_8 
REMARK    6  A    between atoms: C_8  and  C_9 
REMARK       I    between atoms: C_9  and  N_11 
REMARK    7  A    between atoms: N_11  and  C_12 
ROOT
HETATM    1  N   UNL     1     -40.164 -50.867  12.905  1.00  0.00    -0.324 N 
HETATM    2  C   UNL     1     -41.137 -50.411  12.044  1.00  0.00     0.148 A 
HETATM    3  N   UNL     1     -42.142 -51.252  11.946  1.00  0.00    -0.335 N 
ATOM      4  HN  UNL     1     -42.981 -51.151  11.375  1.00  0.00     0.168 HD
HETATM    5  C   UNL     1     -41.819 -52.298  12.783  1.00  0.00     0.061 A 
HETATM    6  C   UNL     1     -42.530 -53.478  13.064  1.00  0.00     0.032 A 
HETATM    7  C   UNL     1     -41.982 -54.406  13.960  1.00  0.00     0.002 A 
HETATM    8  C   UNL     1     -40.752 -54.170  14.570  1.00  0.00     0.002 A 
HETATM    9  C   UNL     1     -40.036 -52.996  14.314  1.00  0.00     0.032 A 
HETATM   10  C   UNL     1     -40.592 -52.085  13.403  1.00  0.00     0.063 A 
ENDROOT
BRANCH   2  11
HETATM   11  S   UNL     1     -41.012 -48.918  11.164  1.00  0.00    -0.084 SA
BRANCH  11  12
HETATM   12  C   UNL     1     -42.583 -48.108  11.600  1.00  0.00     0.185 C 
BRANCH  12  13
HETATM   13  C   UNL     1     -43.258 -47.574  10.344  1.00  0.00     0.227 C 
HETATM   14  O   UNL     1     -42.685 -46.808   9.570  1.00  0.00    -0.273 OA
HETATM   15  N   UNL     1     -44.566 -47.995  10.158  1.00  0.00    -0.356 N 
HETATM   16  H   UNL     1     -44.940 -48.700  10.783  1.00  0.00     0.162 HD
BRANCH  15  17
HETATM   17  C   UNL     1     -45.316 -47.642   8.989  1.00  0.00     0.084 A 
HETATM   18  C   UNL     1     -46.685 -47.032   9.117  1.00  0.00     0.027 A 
HETATM   19  C   UNL     1     -46.534 -48.421   8.571  1.00  0.00     0.027 A 
ENDBRANCH  15  17
ENDBRANCH  12  13
ENDBRANCH  11  12
ENDBRANCH   2  11
BRANCH   1  20
HETATM   20  C   UNL     1     -38.938 -50.213  13.318  1.00  0.00     0.157 C 
BRANCH  20  21
HETATM   21  C   UNL     1     -37.691 -51.076  13.133  1.00  0.00     0.187 C 
BRANCH  21  22
HETATM   22  O   UNL     1     -37.434 -51.213  11.733  1.00  0.00    -0.394 OA
HETATM   23  C   UNL     1     -37.324 -49.947  11.091  1.00  0.00     0.201 C 
ENDBRANCH  21  22
ENDBRANCH  20  21
ENDBRANCH   1  20
TORSDOF 7
ENDMDL
MODEL 3
REMARK VINA RESULT:      -5.8      2.438      4.372
REMARK  7 active torsions:
REMARK  status: ('A' for Active; 'I' for Inactive)
REMARK    1  A    between atoms: O_2  and  C_3 
REMARK    2  A    between atoms: C_3  and  C_4 
REMARK    3  A    between atoms: C_4  and  N_5 
REMARK    4  A    between atoms: C_6  and  S_7 
REMARK    5  A    between atoms: S_7  and  C_8 
REMARK    6  A    between atoms: C_8  and  C_9 
REMARK       I    between atoms: C_9  and  N_11 
REMARK    7  A    between atoms: N_11  and  C_12 
ROOT
HETATM    1  N   UNL     1     -41.061 -49.946  12.795  1.00  0.00    -0.324 N 
HETATM    2  C   UNL     1     -41.202 -48.939  11.867  1.00  0.00     0.148 A 
HETATM    3  N   UNL     1     -40.079 -48.695  11.230  1.00  0.00    -0.335 N 
ATOM      4  HN  UNL     1     -39.917 -47.998  10.503  1.00  0.00     0.168 HD
HETATM    5  C   UNL     1     -39.166 -49.584  11.756  1.00  0.00     0.061 A 
HETATM    6  C   UNL     1     -37.807 -49.765  11.449  1.00  0.00     0.032 A 
HETATM    7  C   UNL     1     -37.078 -50.746  12.135  1.00  0.00     0.002 A 
HETATM    8  C   UNL     1     -37.686 -51.539  13.107  1.00  0.00     0.002 A 
HETATM    9  C   UNL     1     -39.041 -51.383  13.416  1.00  0.00     0.032 A 
HETATM   10  C   UNL     1     -39.752 -50.386  12.731  1.00  0.00     0.063 A 
ENDROOT
BRANCH   2  11
HETATM   11  S   UNL     1     -42.686 -48.071  11.614  1.00  0.00    -0.084 SA
BRANCH  11  12
HETATM   12  C   UNL     1     -42.237 -46.985  10.223  1.00  0.00     0.185 C 
BRANCH  12  13
HETATM   13  C   UNL     1     -43.446 -46.770   9.322  1.00  0.00     0.227 C 
HETATM   14  O   UNL     1     -43.546 -45.789   8.586  1.00  0.00    -0.273 OA
HETATM   15  N   UNL     1     -44.428 -47.745   9.416  1.00  0.00    -0.356 N 
HETATM   16  H   UNL     1     -44.236 -48.572   9.969  1.00  0.00     0.162 HD
BRANCH  15  17
HETATM   17  C   UNL     1     -45.593 -47.729   8.582  1.00  0.00     0.084 A 
HETATM   18  C   UNL     1     -46.877 -47.123   9.079  1.00  0.00     0.027 A 
HETATM   19  C   UNL     1     -46.781 -48.606   8.874  1.00  0.00     0.027 A 
ENDBRANCH  15  17
ENDBRANCH  12  13
ENDBRANCH  11  12
ENDBRANCH   2  11
BRANCH   1  20
HETATM   20  C   UNL     1     -42.070 -50.537  13.652  1.00  0.00     0.157 C 
BRANCH  20  21
HETATM   21  C   UNL     1     -42.878 -51.642  12.974  1.00  0.00     0.187 C 
BRANCH  21  22
HETATM   22  O   UNL     1     -43.112 -52.685  13.924  1.00  0.00    -0.394 OA
HETATM   23  C   UNL     1     -42.040 -53.621  13.953  1.00  0.00     0.201 C 
ENDBRANCH  21  22
ENDBRANCH  20  21
ENDBRANCH   1  20
TORSDOF 7
ENDMDL
MODEL 4
REMARK VINA RESULT:      -5.7      1.744      2.197
REMARK  7 active torsions:
REMARK  status: ('A' for Active; 'I' for Inactive)
REMARK    1  A    between atoms: O_2  and  C_3 
REMARK    2  A    between atoms: C_3  and  C_4 
REMARK    3  A    between atoms: C_4  and  N_5 
REMARK    4  A    between atoms: C_6  and  S_7 
REMARK    5  A    between atoms: S_7  and  C_8 
REMARK    6  A    between atoms: C_8  and  C_9 
REMARK       I    between atoms: C_9  and  N_11 
REMARK    7  A    between atoms: N_11  and  C_12 
ROOT
HETATM    1  N   UNL     1     -41.299 -52.236  13.525  1.00  0.00    -0.324 N 
HETATM    2  C   UNL     1     -41.650 -51.719  12.299  1.00  0.00     0.148 A 
HETATM    3  N   UNL     1     -42.739 -52.278  11.823  1.00  0.00    -0.335 N 
ATOM      4  HN  UNL     1     -43.202 -52.078  10.936  1.00  0.00     0.168 HD
HETATM    5  C   UNL     1     -43.124 -53.192  12.780  1.00  0.00     0.061 A 
HETATM    6  C   UNL     1     -44.218 -54.074  12.794  1.00  0.00     0.032 A 
HETATM    7  C   UNL     1     -44.395 -54.922  13.896  1.00  0.00     0.002 A 
HETATM    8  C   UNL     1     -43.505 -54.895  14.968  1.00  0.00     0.002 A 
HETATM    9  C   UNL     1     -42.419 -54.016  14.979  1.00  0.00     0.032 A 
HETATM   10  C   UNL     1     -42.248 -53.184  13.861  1.00  0.00     0.063 A 
ENDROOT
BRANCH   2  11
HETATM   11  S   UNL     1     -40.723 -50.506  11.471  1.00  0.00    -0.084 SA
BRANCH  11  12
HETATM   12  C   UNL     1     -41.483 -48.976  12.102  1.00  0.00     0.185 C 
BRANCH  12  13
HETATM   13  C   UNL     1     -41.675 -47.984  10.963  1.00  0.00     0.227 C 
HETATM   14  O   UNL     1     -40.905 -47.041  10.781  1.00  0.00    -0.273 OA
HETATM   15  N   UNL     1     -42.790 -48.209  10.170  1.00  0.00    -0.356 N 
HETATM   16  H   UNL     1     -43.325 -49.058  10.319  1.00  0.00     0.162 HD
BRANCH  15  17
HETATM   17  C   UNL     1     -43.072 -47.410   9.015  1.00  0.00     0.084 A 
HETATM   18  C   UNL     1     -44.480 -46.972   8.717  1.00  0.00     0.027 A 
HETATM   19  C   UNL     1     -43.807 -47.976   7.828  1.00  0.00     0.027 A 
ENDBRANCH  15  17
ENDBRANCH  12  13
ENDBRANCH  11  12
ENDBRANCH   2  11
BRANCH   1  20
HETATM   20  C   UNL     1     -40.203 -51.849  14.393  1.00  0.00     0.157 C 
BRANCH  20  21
HETATM   21  C   UNL     1     -38.961 -52.724  14.236  1.00  0.00     0.187 C 
BRANCH  21  22
HETATM   22  O   UNL     1     -38.132 -52.161  13.216  1.00  0.00    -0.394 OA
HETATM   23  C   UNL     1     -37.629 -50.883  13.592  1.00  0.00     0.201 C 
ENDBRANCH  21  22
ENDBRANCH  20  21
ENDBRANCH   1  20
TORSDOF 7
ENDMDL
MODEL 5
REMARK VINA RESULT:      -5.7      2.835      5.699
REMARK  7 active torsions:
REMARK  status: ('A' for Active; 'I' for Inactive)
REMARK    1  A    between atoms: O_2  and  C_3 
REMARK    2  A    between atoms: C_3  and  C_4 
REMARK    3  A    between atoms: C_4  and  N_5 
REMARK    4  A    between atoms: C_6  and  S_7 
REMARK    5  A    between atoms: S_7  and  C_8 
REMARK    6  A    between atoms: C_8  and  C_9 
REMARK       I    between atoms: C_9  and  N_11 
REMARK    7  A    between atoms: N_11  and  C_12 
ROOT
HETATM    1  N   UNL     1     -40.045 -49.122  12.033  1.00  0.00    -0.324 N 
HETATM    2  C   UNL     1     -41.024 -50.084  12.139  1.00  0.00     0.148 A 
HETATM    3  N   UNL     1     -42.172 -49.672  11.650  1.00  0.00    -0.335 N 
ATOM      4  HN  UNL     1     -43.051 -50.189  11.613  1.00  0.00     0.168 HD
HETATM    5  C   UNL     1     -41.934 -48.392  11.199  1.00  0.00     0.061 A 
HETATM    6  C   UNL     1     -42.808 -47.476  10.588  1.00  0.00     0.032 A 
HETATM    7  C   UNL     1     -42.323 -46.214  10.218  1.00  0.00     0.002 A 
HETATM    8  C   UNL     1     -40.992 -45.866  10.444  1.00  0.00     0.002 A 
HETATM    9  C   UNL     1     -40.105 -46.769  11.038  1.00  0.00     0.032 A 
HETATM   10  C   UNL     1     -40.611 -48.021  11.416  1.00  0.00     0.063 A 
ENDROOT
BRANCH   2  11
HETATM   11  S   UNL     1     -40.767 -51.635  12.876  1.00  0.00    -0.084 SA
BRANCH  11  12
HETATM   12  C   UNL     1     -41.921 -52.680  11.933  1.00  0.00     0.185 C 
BRANCH  12  13
HETATM   13  C   UNL     1     -43.189 -52.915  12.743  1.00  0.00     0.227 C 
HETATM   14  O   UNL     1     -43.163 -53.416  13.867  1.00  0.00    -0.273 OA
HETATM   15  N   UNL     1     -44.366 -52.547  12.108  1.00  0.00    -0.356 N 
HETATM   16  H   UNL     1     -44.305 -52.053  11.225  1.00  0.00     0.162 HD
BRANCH  15  17
HETATM   17  C   UNL     1     -45.638 -52.634  12.762  1.00  0.00     0.084 A 
HETATM   18  C   UNL     1     -46.820 -51.866  12.236  1.00  0.00     0.027 A 
HETATM   19  C   UNL     1     -46.200 -51.478  13.546  1.00  0.00     0.027 A 
ENDBRANCH  15  17
ENDBRANCH  12  13
ENDBRANCH  11  12
ENDBRANCH   2  11
BRANCH   1  20
HETATM   20  C   UNL     1     -38.646 -49.208  12.403  1.00  0.00     0.157 C 
BRANCH  20  21
HETATM   21  C   UNL     1     -37.760 -49.810  11.314  1.00  0.00     0.187 C 
BRANCH  21  22
HETATM   22  O   UNL     1     -37.275 -51.076  11.768  1.00  0.00    -0.394 OA
HETATM   23  C   UNL     1     -37.186 -51.128  13.188  1.00  0.00     0.201 C 
ENDBRANCH  21  22
ENDBRANCH  20  21
ENDBRANCH   1  20
TORSDOF 7
ENDMDL
MODEL 6
REMARK VINA RESULT:      -5.5      3.079      3.457
REMARK  7 active torsions:
REMARK  status: ('A' for Active; 'I' for Inactive)
REMARK    1  A    between atoms: O_2  and  C_3 
REMARK    2  A    between atoms: C_3  and  C_4 
REMARK    3  A    between atoms: C_4  and  N_5 
REMARK    4  A    between atoms: C_6  and  S_7 
REMARK    5  A    between atoms: S_7  and  C_8 
REMARK    6  A    between atoms: C_8  and  C_9 
REMARK       I    between atoms: C_9  and  N_11 
REMARK    7  A    between atoms: N_11  and  C_12 
ROOT
HETATM    1  N   UNL     1     -41.128 -52.953  13.622  1.00  0.00    -0.324 N 
HETATM    2  C   UNL     1     -41.156 -51.969  12.660  1.00  0.00     0.148 A 
HETATM    3  N   UNL     1     -42.329 -51.888  12.074  1.00  0.00    -0.335 N 
ATOM      4  HN  UNL     1     -42.608 -51.249  11.329  1.00  0.00     0.168 HD
HETATM    5  C   UNL     1     -43.104 -52.852  12.682  1.00  0.00     0.061 A 
HETATM    6  C   UNL     1     -44.442 -53.211  12.448  1.00  0.00     0.032 A 
HETATM    7  C   UNL     1     -45.014 -54.243  13.205  1.00  0.00     0.002 A 
HETATM    8  C   UNL     1     -44.273 -54.907  14.181  1.00  0.00     0.002 A 
HETATM    9  C   UNL     1     -42.945 -54.555  14.438  1.00  0.00     0.032 A 
HETATM   10  C   UNL     1     -42.384 -53.530  13.661  1.00  0.00     0.063 A 
ENDROOT
BRANCH   2  11
HETATM   11  S   UNL     1     -39.780 -50.992  12.249  1.00  0.00    -0.084 SA
BRANCH  11  12
HETATM   12  C   UNL     1     -40.529 -49.764  11.133  1.00  0.00     0.185 C 
BRANCH  12  13
HETATM   13  C   UNL     1     -40.349 -48.364  11.704  1.00  0.00     0.227 C 
HETATM   14  O   UNL     1     -40.335 -48.150  12.916  1.00  0.00    -0.273 OA
HETATM   15  N   UNL     1     -40.229 -47.356  10.759  1.00  0.00    -0.356 N 
HETATM   16  H   UNL     1     -40.152 -47.616   9.783  1.00  0.00     0.162 HD
BRANCH  15  17
HETATM   17  C   UNL     1     -39.980 -45.995  11.132  1.00  0.00     0.084 A 
HETATM   18  C   UNL     1     -40.955 -44.912  10.756  1.00  0.00     0.027 A 
HETATM   19  C   UNL     1     -39.602 -44.957  10.109  1.00  0.00     0.027 A 
ENDBRANCH  15  17
ENDBRANCH  12  13
ENDBRANCH  11  12
ENDBRANCH   2  11
BRANCH   1  20
HETATM   20  C   UNL     1     -40.047 -53.315  14.518  1.00  0.00     0.157 C 
BRANCH  20  21
HETATM   21  C   UNL     1     -39.166 -54.446  13.989  1.00  0.00     0.187 C 
BRANCH  21  22
HETATM   22  O   UNL     1     -39.056 -55.450  15.001  1.00  0.00    -0.394 OA
HETATM   23  C   UNL     1     -38.619 -54.902  16.240  1.00  0.00     0.201 C 
ENDBRANCH  21  22
ENDBRANCH  20  21
ENDBRANCH   1  20
TORSDOF 7
ENDMDL
MODEL 7
REMARK VINA RESULT:      -5.5      2.479      7.217
REMARK  7 active torsions:
REMARK  status: ('A' for Active; 'I' for Inactive)
REMARK    1  A    between atoms: O_2  and  C_3 
REMARK    2  A    between atoms: C_3  and  C_4 
REMARK    3  A    between atoms: C_4  and  N_5 
REMARK    4  A    between atoms: C_6  and  S_7 
REMARK    5  A    between atoms: S_7  and  C_8 
REMARK    6  A    between atoms: C_8  and  C_9 
REMARK       I    between atoms: C_9  and  N_11 
REMARK    7  A    between atoms: N_11  and  C_12 
ROOT
HETATM    1  N   UNL     1     -41.837 -46.518  10.442  1.00  0.00    -0.324 N 
HETATM    2  C   UNL     1     -41.751 -47.789  10.964  1.00  0.00     0.148 A 
HETATM    3  N   UNL     1     -42.865 -48.466  10.798  1.00  0.00    -0.335 N 
ATOM      4  HN  UNL     1     -43.060 -49.422  11.097  1.00  0.00     0.168 HD
HETATM    5  C   UNL     1     -43.713 -47.607  10.133  1.00  0.00     0.061 A 
HETATM    6  C   UNL     1     -45.037 -47.803   9.703  1.00  0.00     0.032 A 
HETATM    7  C   UNL     1     -45.700 -46.760   9.042  1.00  0.00     0.002 A 
HETATM    8  C   UNL     1     -45.062 -45.544   8.807  1.00  0.00     0.002 A 
HETATM    9  C   UNL     1     -43.742 -45.335   9.215  1.00  0.00     0.032 A 
HETATM   10  C   UNL     1     -43.097 -46.383   9.888  1.00  0.00     0.063 A 
ENDROOT
BRANCH   2  11
HETATM   11  S   UNL     1     -40.344 -48.393  11.784  1.00  0.00    -0.084 SA
BRANCH  11  12
HETATM   12  C   UNL     1     -40.365 -50.147  11.294  1.00  0.00     0.185 C 
BRANCH  12  13
HETATM   13  C   UNL     1     -41.034 -50.980  12.378  1.00  0.00     0.227 C 
HETATM   14  O   UNL     1     -40.554 -51.093  13.506  1.00  0.00    -0.273 OA
HETATM   15  N   UNL     1     -42.202 -51.619  11.989  1.00  0.00    -0.356 N 
HETATM   16  H   UNL     1     -42.588 -51.406  11.077  1.00  0.00     0.162 HD
BRANCH  15  17
HETATM   17  C   UNL     1     -42.990 -52.382  12.911  1.00  0.00     0.084 A 
HETATM   18  C   UNL     1     -42.748 -53.857  13.083  1.00  0.00     0.027 A 
HETATM   19  C   UNL     1     -44.013 -53.379  12.433  1.00  0.00     0.027 A 
ENDBRANCH  15  17
ENDBRANCH  12  13
ENDBRANCH  11  12
ENDBRANCH   2  11
BRANCH   1  20
HETATM   20  C   UNL     1     -40.815 -45.492  10.378  1.00  0.00     0.157 C 
BRANCH  20  21
HETATM   21  C   UNL     1     -41.014 -44.366  11.391  1.00  0.00     0.187 C 
BRANCH  21  22
HETATM   22  O   UNL     1     -41.409 -43.184  10.689  1.00  0.00    -0.394 OA
HETATM   23  C   UNL     1     -42.342 -42.414  11.438  1.00  0.00     0.201 C 
ENDBRANCH  21  22
ENDBRANCH  20  21
ENDBRANCH   1  20
TORSDOF 7
ENDMDL
MODEL 8
REMARK VINA RESULT:      -5.3      2.450      3.155
REMARK  7 active torsions:
REMARK  status: ('A' for Active; 'I' for Inactive)
REMARK    1  A    between atoms: O_2  and  C_3 
REMARK    2  A    between atoms: C_3  and  C_4 
REMARK    3  A    between atoms: C_4  and  N_5 
REMARK    4  A    between atoms: C_6  and  S_7 
REMARK    5  A    between atoms: S_7  and  C_8 
REMARK    6  A    between atoms: C_8  and  C_9 
REMARK       I    between atoms: C_9  and  N_11 
REMARK    7  A    between atoms: N_11  and  C_12 
ROOT
HETATM    1  N   UNL     1     -42.019 -51.891  13.913  1.00  0.00    -0.324 N 
HETATM    2  C   UNL     1     -42.527 -50.779  13.280  1.00  0.00     0.148 A 
HETATM    3  N   UNL     1     -43.741 -50.985  12.821  1.00  0.00    -0.335 N 
ATOM      4  HN  UNL     1     -44.332 -50.327  12.313  1.00  0.00     0.168 HD
HETATM    5  C   UNL     1     -44.044 -52.282  13.173  1.00  0.00     0.061 A 
HETATM    6  C   UNL     1     -45.208 -53.032  12.933  1.00  0.00     0.032 A 
HETATM    7  C   UNL     1     -45.275 -54.354  13.394  1.00  0.00     0.002 A 
HETATM    8  C   UNL     1     -44.208 -54.924  14.086  1.00  0.00     0.002 A 
HETATM    9  C   UNL     1     -43.047 -54.190  14.346  1.00  0.00     0.032 A 
HETATM   10  C   UNL     1     -42.991 -52.874  13.864  1.00  0.00     0.063 A 
ENDROOT
BRANCH   2  11
HETATM   11  S   UNL     1     -41.637 -49.300  13.081  1.00  0.00    -0.084 SA
BRANCH  11  12
HETATM   12  C   UNL     1     -41.115 -49.423  11.342  1.00  0.00     0.185 C 
BRANCH  12  13
HETATM   13  C   UNL     1     -41.370 -48.102  10.629  1.00  0.00     0.227 C 
HETATM   14  O   UNL     1     -42.286 -47.963   9.818  1.00  0.00    -0.273 OA
HETATM   15  N   UNL     1     -40.480 -47.086  10.942  1.00  0.00    -0.356 N 
HETATM   16  H   UNL     1     -39.811 -47.242  11.687  1.00  0.00     0.162 HD
BRANCH  15  17
HETATM   17  C   UNL     1     -40.625 -45.762  10.413  1.00  0.00     0.084 A 
HETATM   18  C   UNL     1     -39.419 -44.987   9.958  1.00  0.00     0.027 A 
HETATM   19  C   UNL     1     -40.167 -44.553  11.184  1.00  0.00     0.027 A 
ENDBRANCH  15  17
ENDBRANCH  12  13
ENDBRANCH  11  12
ENDBRANCH   2  11
BRANCH   1  20
HETATM   20  C   UNL     1     -40.748 -52.046  14.592  1.00  0.00     0.157 C 
BRANCH  20  21
HETATM   21  C   UNL     1     -39.715 -52.832  13.786  1.00  0.00     0.187 C 
BRANCH  21  22
HETATM   22  O   UNL     1     -39.003 -51.921  12.944  1.00  0.00    -0.394 OA
HETATM   23  C   UNL     1     -38.234 -50.995  13.703  1.00  0.00     0.201 C 
ENDBRANCH  21  22
ENDBRANCH  20  21
ENDBRANCH   1  20
TORSDOF 7
ENDMDL
MODEL 9
REMARK VINA RESULT:      -5.2      3.877      5.779
REMARK  7 active torsions:
REMARK  status: ('A' for Active; 'I' for Inactive)
REMARK    1  A    between atoms: O_2  and  C_3 
REMARK    2  A    between atoms: C_3  and  C_4 
REMARK    3  A    between atoms: C_4  and  N_5 
REMARK    4  A    between atoms: C_6  and  S_7 
REMARK    5  A    between atoms: S_7  and  C_8 
REMARK    6  A    between atoms: C_8  and  C_9 
REMARK       I    between atoms: C_9  and  N_11 
REMARK    7  A    between atoms: N_11  and  C_12 
ROOT
HETATM    1  N   UNL     1     -43.628 -53.014  15.404  1.00  0.00    -0.324 N 
HETATM    2  C   UNL     1     -42.827 -53.577  14.437  1.00  0.00     0.148 A 
HETATM    3  N   UNL     1     -43.346 -53.454  13.235  1.00  0.00    -0.335 N 
ATOM      4  HN  UNL     1     -42.956 -53.788  12.354  1.00  0.00     0.168 HD
HETATM    5  C   UNL     1     -44.530 -52.774  13.422  1.00  0.00     0.061 A 
HETATM    6  C   UNL     1     -45.496 -52.374  12.483  1.00  0.00     0.032 A 
HETATM    7  C   UNL     1     -46.636 -51.690  12.926  1.00  0.00     0.002 A 
HETATM    8  C   UNL     1     -46.815 -51.402  14.278  1.00  0.00     0.002 A 
HETATM    9  C   UNL     1     -45.859 -51.779  15.226  1.00  0.00     0.032 A 
HETATM   10  C   UNL     1     -44.732 -52.477  14.767  1.00  0.00     0.063 A 
ENDROOT
BRANCH   2  11
HETATM   11  S   UNL     1     -41.334 -54.393  14.785  1.00  0.00    -0.084 SA
BRANCH  11  12
HETATM   12  C   UNL     1     -40.175 -52.993  14.900  1.00  0.00     0.185 C 
BRANCH  12  13
HETATM   13  C   UNL     1     -39.864 -52.462  13.507  1.00  0.00     0.227 C 
HETATM   14  O   UNL     1     -40.227 -53.048  12.488  1.00  0.00    -0.273 OA
HETATM   15  N   UNL     1     -39.124 -51.289  13.479  1.00  0.00    -0.356 N 
HETATM   16  H   UNL     1     -38.943 -50.811  14.355  1.00  0.00     0.162 HD
BRANCH  15  17
HETATM   17  C   UNL     1     -38.811 -50.620  12.252  1.00  0.00     0.084 A 
HETATM   18  C   UNL     1     -37.393 -50.565  11.754  1.00  0.00     0.027 A 
HETATM   19  C   UNL     1     -38.064 -49.313  12.236  1.00  0.00     0.027 A 
ENDBRANCH  15  17
ENDBRANCH  12  13
ENDBRANCH  11  12
ENDBRANCH   2  11
BRANCH   1  20
HETATM   20  C   UNL     1     -43.384 -52.897  16.828  1.00  0.00     0.157 C 
BRANCH  20  21
HETATM   21  C   UNL     1     -43.629 -54.193  17.600  1.00  0.00     0.187 C 
BRANCH  21  22
HETATM   22  O   UNL     1     -44.930 -54.684  17.266  1.00  0.00    -0.394 OA
HETATM   23  C   UNL     1     -45.923 -54.193  18.161  1.00  0.00     0.201 C 
ENDBRANCH  21  22
ENDBRANCH  20  21
ENDBRANCH   1  20
TORSDOF 7
ENDMDL
