MODEL 1
REMARK VINA RESULT:      -5.2      0.000      0.000
REMARK  3 active torsions:
REMARK  status: ('A' for Active; 'I' for Inactive)
REMARK    1  A    between atoms: C_4  and  C_5 
REMARK    2  A    between atoms: C_5  and  N_6 
REMARK       I    between atoms: N_6  and  C_7 
REMARK       I    between atoms: C_7  and  N_9 
REMARK    3  A    between atoms: N_9  and  C_10 
ROOT
HETATM    1  N   UNL     1     -44.066 -51.877  12.867  1.00  0.00    -0.342 N 
HETATM    2  C   UNL     1     -43.655 -53.086  12.390  1.00  0.00     0.322 C 
HETATM    3  O   UNL     1     -44.415 -54.041  12.243  1.00  0.00    -0.247 OA
HETATM    4  N   UNL     1     -42.324 -53.228  12.136  1.00  0.00    -0.289 N 
HETATM    5  H   UNL     1     -43.425 -51.099  12.729  1.00  0.00     0.164 HD
HETATM    6  H   UNL     1     -42.015 -54.157  11.902  1.00  0.00     0.172 HD
ENDROOT
BRANCH   1   7
HETATM    7  C   UNL     1     -45.449 -51.591  13.124  1.00  0.00     0.129 C 
BRANCH   7   8
HETATM    8  C   UNL     1     -45.665 -51.456  14.599  1.00  0.00     0.007 A 
HETATM    9  C   UNL     1     -46.226 -52.589  15.432  1.00  0.00    -0.013 A 
HETATM   10  C   UNL     1     -46.636 -53.890  14.825  1.00  0.00     0.010 C 
HETATM   11  C   UNL     1     -47.053 -51.353  15.190  1.00  0.00     0.011 A 
ENDBRANCH   7   8
ENDBRANCH   1   7
BRANCH   4  12
HETATM   12  C   UNL     1     -41.399 -52.229  12.204  1.00  0.00     0.152 A 
HETATM   13  N   UNL     1     -41.110 -51.334  11.288  1.00  0.00    -0.346 N 
HETATM   14  C   UNL     1     -40.129 -50.494  11.771  1.00  0.00     0.097 A 
ATOM     15  HN  UNL     1     -41.543 -51.271  10.366  1.00  0.00     0.167 HD
HETATM   16  C   UNL     1     -39.711 -50.752  13.060  1.00  0.00     0.070 A 
HETATM   17  S   UNL     1     -40.526 -52.139  13.665  1.00  0.00    -0.064 SA
ENDBRANCH   4  12
TORSDOF 3
ENDMDL
MODEL 2
REMARK VINA RESULT:      -5.0      2.215      2.930
REMARK  3 active torsions:
REMARK  status: ('A' for Active; 'I' for Inactive)
REMARK    1  A    between atoms: C_4  and  C_5 
REMARK    2  A    between atoms: C_5  and  N_6 
REMARK       I    between atoms: N_6  and  C_7 
REMARK       I    between atoms: C_7  and  N_9 
REMARK    3  A    between atoms: N_9  and  C_10 
ROOT
HETATM    1  N   UNL     1     -42.489 -51.622  12.192  1.00  0.00    -0.342 N 
HETATM    2  C   UNL     1     -41.213 -51.942  11.833  1.00  0.00     0.322 C 
HETATM    3  O   UNL     1     -40.768 -53.086  11.894  1.00  0.00    -0.247 OA
HETATM    4  N   UNL     1     -40.403 -50.913  11.456  1.00  0.00    -0.289 N 
HETATM    5  H   UNL     1     -42.826 -50.713  11.886  1.00  0.00     0.164 HD
HETATM    6  H   UNL     1     -39.434 -51.144  11.311  1.00  0.00     0.172 HD
ENDROOT
BRANCH   1   7
HETATM    7  C   UNL     1     -43.450 -52.624  12.559  1.00  0.00     0.129 C 
BRANCH   7   8
HETATM    8  C   UNL     1     -44.121 -52.227  13.836  1.00  0.00     0.007 A 
HETATM    9  C   UNL     1     -45.563 -51.763  13.872  1.00  0.00    -0.013 A 
HETATM   10  C   UNL     1     -46.382 -51.633  12.632  1.00  0.00     0.010 C 
HETATM   11  C   UNL     1     -44.450 -50.783  14.144  1.00  0.00     0.011 A 
ENDBRANCH   7   8
ENDBRANCH   1   7
BRANCH   4  12
HETATM   12  C   UNL     1     -40.799 -49.619  11.294  1.00  0.00     0.152 A 
HETATM   13  N   UNL     1     -41.292 -49.056  10.215  1.00  0.00    -0.346 N 
HETATM   14  C   UNL     1     -41.580 -47.735  10.487  1.00  0.00     0.097 A 
ATOM     15  HN  UNL     1     -41.439 -49.521   9.319  1.00  0.00     0.167 HD
HETATM   16  C   UNL     1     -41.324 -47.327  11.781  1.00  0.00     0.070 A 
HETATM   17  S   UNL     1     -40.634 -48.626  12.669  1.00  0.00    -0.064 SA
ENDBRANCH   4  12
TORSDOF 3
ENDMDL
MODEL 3
REMARK VINA RESULT:      -4.9      3.681      4.930
REMARK  3 active torsions:
REMARK  status: ('A' for Active; 'I' for Inactive)
REMARK    1  A    between atoms: C_4  and  C_5 
REMARK    2  A    between atoms: C_5  and  N_6 
REMARK       I    between atoms: N_6  and  C_7 
REMARK       I    between atoms: C_7  and  N_9 
REMARK    3  A    between atoms: N_9  and  C_10 
ROOT
HETATM    1  N   UNL     1     -41.638 -50.478  11.469  1.00  0.00    -0.342 N 
HETATM    2  C   UNL     1     -40.552 -49.668  11.315  1.00  0.00     0.322 C 
HETATM    3  O   UNL     1     -39.426 -49.978  11.699  1.00  0.00    -0.247 OA
HETATM    4  N   UNL     1     -40.772 -48.442  10.765  1.00  0.00    -0.289 N 
HETATM    5  H   UNL     1     -42.457 -50.239  10.917  1.00  0.00     0.164 HD
HETATM    6  H   UNL     1     -39.988 -47.809  10.769  1.00  0.00     0.172 HD
ENDROOT
BRANCH   1   7
HETATM    7  C   UNL     1     -41.525 -51.812  11.989  1.00  0.00     0.129 C 
BRANCH   7   8
HETATM    8  C   UNL     1     -42.696 -52.104  12.873  1.00  0.00     0.007 A 
HETATM    9  C   UNL     1     -42.740 -53.326  13.765  1.00  0.00    -0.013 A 
HETATM   10  C   UNL     1     -41.639 -54.334  13.782  1.00  0.00     0.010 C 
HETATM   11  C   UNL     1     -43.655 -53.233  12.571  1.00  0.00     0.011 A 
ENDBRANCH   7   8
ENDBRANCH   1   7
BRANCH   4  12
HETATM   12  C   UNL     1     -41.958 -48.011  10.250  1.00  0.00     0.152 A 
HETATM   13  N   UNL     1     -42.443 -48.231   9.050  1.00  0.00    -0.346 N 
HETATM   14  C   UNL     1     -43.681 -47.633   8.947  1.00  0.00     0.097 A 
ATOM     15  HN  UNL     1     -41.977 -48.759   8.312  1.00  0.00     0.167 HD
HETATM   16  C   UNL     1     -44.126 -46.993  10.086  1.00  0.00     0.070 A 
HETATM   17  S   UNL     1     -42.921 -47.083  11.307  1.00  0.00    -0.064 SA
ENDBRANCH   4  12
TORSDOF 3
ENDMDL
MODEL 4
REMARK VINA RESULT:      -4.7      1.707      2.222
REMARK  3 active torsions:
REMARK  status: ('A' for Active; 'I' for Inactive)
REMARK    1  A    between atoms: C_4  and  C_5 
REMARK    2  A    between atoms: C_5  and  N_6 
REMARK       I    between atoms: N_6  and  C_7 
REMARK       I    between atoms: C_7  and  N_9 
REMARK    3  A    between atoms: N_9  and  C_10 
ROOT
HETATM    1  N   UNL     1     -44.313 -53.728  14.172  1.00  0.00    -0.342 N 
HETATM    2  C   UNL     1     -43.442 -54.725  14.499  1.00  0.00     0.322 C 
HETATM    3  O   UNL     1     -43.785 -55.744  15.094  1.00  0.00    -0.247 OA
HETATM    4  N   UNL     1     -42.130 -54.522  14.194  1.00  0.00    -0.289 N 
HETATM    5  H   UNL     1     -43.984 -53.053  13.486  1.00  0.00     0.164 HD
HETATM    6  H   UNL     1     -41.483 -55.207  14.548  1.00  0.00     0.172 HD
ENDROOT
BRANCH   1   7
HETATM    7  C   UNL     1     -45.726 -53.847  14.396  1.00  0.00     0.129 C 
BRANCH   7   8
HETATM    8  C   UNL     1     -46.268 -52.537  14.874  1.00  0.00     0.007 A 
HETATM    9  C   UNL     1     -46.740 -51.468  13.911  1.00  0.00    -0.013 A 
HETATM   10  C   UNL     1     -46.652 -51.640  12.432  1.00  0.00     0.010 C 
HETATM   11  C   UNL     1     -45.487 -51.252  14.719  1.00  0.00     0.011 A 
ENDBRANCH   7   8
ENDBRANCH   1   7
BRANCH   4  12
HETATM   12  C   UNL     1     -41.642 -53.464  13.486  1.00  0.00     0.152 A 
HETATM   13  N   UNL     1     -41.615 -53.310  12.183  1.00  0.00    -0.346 N 
HETATM   14  C   UNL     1     -41.054 -52.086  11.884  1.00  0.00     0.097 A 
ATOM     15  HN  UNL     1     -41.955 -53.988  11.500  1.00  0.00     0.167 HD
HETATM   16  C   UNL     1     -40.690 -51.321  12.973  1.00  0.00     0.070 A 
HETATM   17  S   UNL     1     -40.997 -52.193  14.421  1.00  0.00    -0.064 SA
ENDBRANCH   4  12
TORSDOF 3
ENDMDL
MODEL 5
REMARK VINA RESULT:      -4.6      5.501      6.823
REMARK  3 active torsions:
REMARK  status: ('A' for Active; 'I' for Inactive)
REMARK    1  A    between atoms: C_4  and  C_5 
REMARK    2  A    between atoms: C_5  and  N_6 
REMARK       I    between atoms: N_6  and  C_7 
REMARK       I    between atoms: C_7  and  N_9 
REMARK    3  A    between atoms: N_9  and  C_10 
ROOT
HETATM    1  N   UNL     1     -40.747 -47.102  10.707  1.00  0.00    -0.342 N 
HETATM    2  C   UNL     1     -41.506 -48.177  10.349  1.00  0.00     0.322 C 
HETATM    3  O   UNL     1     -42.584 -48.071   9.768  1.00  0.00    -0.247 OA
HETATM    4  N   UNL     1     -41.050 -49.405  10.723  1.00  0.00    -0.289 N 
HETATM    5  H   UNL     1     -39.783 -47.299  10.963  1.00  0.00     0.164 HD
HETATM    6  H   UNL     1     -41.676 -50.177  10.561  1.00  0.00     0.172 HD
ENDROOT
BRANCH   1   7
HETATM    7  C   UNL     1     -41.097 -45.762  10.326  1.00  0.00     0.129 C 
BRANCH   7   8
HETATM    8  C   UNL     1     -41.941 -45.144  11.395  1.00  0.00     0.007 A 
HETATM    9  C   UNL     1     -41.661 -43.756  11.933  1.00  0.00    -0.013 A 
HETATM   10  C   UNL     1     -40.503 -42.943  11.460  1.00  0.00     0.010 C 
HETATM   11  C   UNL     1     -41.427 -44.962  12.806  1.00  0.00     0.011 A 
ENDBRANCH   7   8
ENDBRANCH   1   7
BRANCH   4  12
HETATM   12  C   UNL     1     -39.847 -49.650  11.315  1.00  0.00     0.152 A 
HETATM   13  N   UNL     1     -38.695 -49.885  10.731  1.00  0.00    -0.346 N 
HETATM   14  C   UNL     1     -37.727 -50.062  11.698  1.00  0.00     0.097 A 
ATOM     15  HN  UNL     1     -38.540 -49.929   9.724  1.00  0.00     0.167 HD
HETATM   16  C   UNL     1     -38.161 -49.930  13.001  1.00  0.00     0.070 A 
HETATM   17  S   UNL     1     -39.855 -49.642  13.019  1.00  0.00    -0.064 SA
ENDBRANCH   4  12
TORSDOF 3
ENDMDL
MODEL 6
REMARK VINA RESULT:      -4.5      1.844      5.664
REMARK  3 active torsions:
REMARK  status: ('A' for Active; 'I' for Inactive)
REMARK    1  A    between atoms: C_4  and  C_5 
REMARK    2  A    between atoms: C_5  and  N_6 
REMARK       I    between atoms: N_6  and  C_7 
REMARK       I    between atoms: C_7  and  N_9 
REMARK    3  A    between atoms: N_9  and  C_10 
ROOT
HETATM    1  N   UNL     1     -41.842 -51.178  11.877  1.00  0.00    -0.342 N 
HETATM    2  C   UNL     1     -41.702 -52.512  12.125  1.00  0.00     0.322 C 
HETATM    3  O   UNL     1     -40.655 -53.123  11.926  1.00  0.00    -0.247 OA
HETATM    4  N   UNL     1     -42.811 -53.179  12.551  1.00  0.00    -0.289 N 
HETATM    5  H   UNL     1     -42.656 -50.729  12.290  1.00  0.00     0.164 HD
HETATM    6  H   UNL     1     -42.727 -54.180  12.614  1.00  0.00     0.172 HD
ENDROOT
BRANCH   1   7
HETATM    7  C   UNL     1     -40.735 -50.359  11.472  1.00  0.00     0.129 C 
BRANCH   7   8
HETATM    8  C   UNL     1     -40.191 -49.632  12.662  1.00  0.00     0.007 A 
HETATM    9  C   UNL     1     -38.726 -49.266  12.775  1.00  0.00    -0.013 A 
HETATM   10  C   UNL     1     -37.733 -49.647  11.729  1.00  0.00     0.010 C 
HETATM   11  C   UNL     1     -39.310 -50.321  13.678  1.00  0.00     0.011 A 
ENDBRANCH   7   8
ENDBRANCH   1   7
BRANCH   4  12
HETATM   12  C   UNL     1     -44.006 -52.601  12.862  1.00  0.00     0.152 A 
HETATM   13  N   UNL     1     -45.071 -52.492  12.102  1.00  0.00    -0.346 N 
HETATM   14  C   UNL     1     -46.068 -51.858  12.812  1.00  0.00     0.097 A 
ATOM     15  HN  UNL     1     -45.148 -52.825  11.141  1.00  0.00     0.167 HD
HETATM   16  C   UNL     1     -45.748 -51.520  14.111  1.00  0.00     0.070 A 
HETATM   17  S   UNL     1     -44.117 -51.951  14.434  1.00  0.00    -0.064 SA
ENDBRANCH   4  12
TORSDOF 3
ENDMDL
MODEL 7
REMARK VINA RESULT:      -4.3      2.832      4.977
REMARK  3 active torsions:
REMARK  status: ('A' for Active; 'I' for Inactive)
REMARK    1  A    between atoms: C_4  and  C_5 
REMARK    2  A    between atoms: C_5  and  N_6 
REMARK       I    between atoms: N_6  and  C_7 
REMARK       I    between atoms: C_7  and  N_9 
REMARK    3  A    between atoms: N_9  and  C_10 
ROOT
HETATM    1  N   UNL     1     -42.043 -51.249  12.691  1.00  0.00    -0.342 N 
HETATM    2  C   UNL     1     -41.132 -52.239  12.470  1.00  0.00     0.322 C 
HETATM    3  O   UNL     1     -39.977 -52.018  12.114  1.00  0.00    -0.247 OA
HETATM    4  N   UNL     1     -41.573 -53.522  12.598  1.00  0.00    -0.289 N 
HETATM    5  H   UNL     1     -42.880 -51.516  13.202  1.00  0.00     0.164 HD
HETATM    6  H   UNL     1     -40.928 -54.241  12.316  1.00  0.00     0.172 HD
ENDROOT
BRANCH   1   7
HETATM    7  C   UNL     1     -41.685 -49.860  12.636  1.00  0.00     0.129 C 
BRANCH   7   8
HETATM    8  C   UNL     1     -42.924 -49.030  12.507  1.00  0.00     0.007 A 
HETATM    9  C   UNL     1     -43.144 -48.097  11.334  1.00  0.00    -0.013 A 
HETATM   10  C   UNL     1     -42.120 -47.918  10.263  1.00  0.00     0.010 C 
HETATM   11  C   UNL     1     -42.899 -47.532  12.710  1.00  0.00     0.011 A 
ENDBRANCH   7   8
ENDBRANCH   1   7
BRANCH   4  12
HETATM   12  C   UNL     1     -42.808 -53.888  13.044  1.00  0.00     0.152 A 
HETATM   13  N   UNL     1     -43.926 -53.952  12.358  1.00  0.00    -0.346 N 
HETATM   14  C   UNL     1     -44.939 -54.388  13.186  1.00  0.00     0.097 A 
ATOM     15  HN  UNL     1     -44.029 -53.716  11.371  1.00  0.00     0.167 HD
HETATM   16  C   UNL     1     -44.562 -54.674  14.482  1.00  0.00     0.070 A 
HETATM   17  S   UNL     1     -42.894 -54.319  14.690  1.00  0.00    -0.064 SA
ENDBRANCH   4  12
TORSDOF 3
ENDMDL
MODEL 8
REMARK VINA RESULT:      -4.2      3.013      5.953
REMARK  3 active torsions:
REMARK  status: ('A' for Active; 'I' for Inactive)
REMARK    1  A    between atoms: C_4  and  C_5 
REMARK    2  A    between atoms: C_5  and  N_6 
REMARK       I    between atoms: N_6  and  C_7 
REMARK       I    between atoms: C_7  and  N_9 
REMARK    3  A    between atoms: N_9  and  C_10 
ROOT
HETATM    1  N   UNL     1     -41.040 -49.946  12.874  1.00  0.00    -0.342 N 
HETATM    2  C   UNL     1     -40.607 -50.390  11.660  1.00  0.00     0.322 C 
HETATM    3  O   UNL     1     -39.932 -49.703  10.898  1.00  0.00    -0.247 OA
HETATM    4  N   UNL     1     -41.012 -51.634  11.279  1.00  0.00    -0.289 N 
HETATM    5  H   UNL     1     -41.381 -50.657  13.516  1.00  0.00     0.164 HD
HETATM    6  H   UNL     1     -40.788 -51.902  10.335  1.00  0.00     0.172 HD
ENDROOT
BRANCH   1   7
HETATM    7  C   UNL     1     -40.639 -48.674  13.406  1.00  0.00     0.129 C 
BRANCH   7   8
HETATM    8  C   UNL     1     -39.418 -48.850  14.253  1.00  0.00     0.007 A 
HETATM    9  C   UNL     1     -38.540 -47.679  14.644  1.00  0.00    -0.013 A 
HETATM   10  C   UNL     1     -38.816 -46.291  14.171  1.00  0.00     0.010 C 
HETATM   11  C   UNL     1     -38.027 -48.715  13.676  1.00  0.00     0.011 A 
ENDBRANCH   7   8
ENDBRANCH   1   7
BRANCH   4  12
HETATM   12  C   UNL     1     -41.709 -52.508  12.060  1.00  0.00     0.152 A 
HETATM   13  N   UNL     1     -43.007 -52.700  12.093  1.00  0.00    -0.346 N 
HETATM   14  C   UNL     1     -43.293 -53.691  13.009  1.00  0.00     0.097 A 
ATOM     15  HN  UNL     1     -43.695 -52.197  11.531  1.00  0.00     0.167 HD
HETATM   16  C   UNL     1     -42.199 -54.252  13.635  1.00  0.00     0.070 A 
HETATM   17  S   UNL     1     -40.766 -53.464  13.108  1.00  0.00    -0.064 SA
ENDBRANCH   4  12
TORSDOF 3
ENDMDL
MODEL 9
REMARK VINA RESULT:      -4.2     16.857     17.536
REMARK  3 active torsions:
REMARK  status: ('A' for Active; 'I' for Inactive)
REMARK    1  A    between atoms: C_4  and  C_5 
REMARK    2  A    between atoms: C_5  and  N_6 
REMARK       I    between atoms: N_6  and  C_7 
REMARK       I    between atoms: C_7  and  N_9 
REMARK    3  A    between atoms: N_9  and  C_10 
ROOT
HETATM    1  N   UNL     1     -50.372 -55.030  -2.949  1.00  0.00    -0.342 N 
HETATM    2  C   UNL     1     -49.245 -55.607  -2.443  1.00  0.00     0.322 C 
HETATM    3  O   UNL     1     -49.022 -56.813  -2.513  1.00  0.00    -0.247 OA
HETATM    4  N   UNL     1     -48.380 -54.790  -1.779  1.00  0.00    -0.289 N 
HETATM    5  H   UNL     1     -50.351 -54.018  -3.050  1.00  0.00     0.164 HD
HETATM    6  H   UNL     1     -47.616 -55.246  -1.306  1.00  0.00     0.172 HD
ENDROOT
BRANCH   1   7
HETATM    7  C   UNL     1     -51.333 -55.776  -3.711  1.00  0.00     0.129 C 
BRANCH   7   8
HETATM    8  C   UNL     1     -52.712 -55.451  -3.232  1.00  0.00     0.007 A 
HETATM    9  C   UNL     1     -53.699 -56.530  -2.840  1.00  0.00    -0.013 A 
HETATM   10  C   UNL     1     -53.369 -57.982  -2.951  1.00  0.00     0.010 C 
HETATM   11  C   UNL     1     -53.931 -55.715  -4.086  1.00  0.00     0.011 A 
ENDBRANCH   7   8
ENDBRANCH   1   7
BRANCH   4  12
HETATM   12  C   UNL     1     -48.491 -53.435  -1.687  1.00  0.00     0.152 A 
HETATM   13  N   UNL     1     -49.164 -52.739  -0.801  1.00  0.00    -0.346 N 
HETATM   14  C   UNL     1     -48.993 -51.395  -1.057  1.00  0.00     0.097 A 
ATOM     15  HN  UNL     1     -49.724 -53.130  -0.043  1.00  0.00     0.167 HD
HETATM   16  C   UNL     1     -48.167 -51.096  -2.121  1.00  0.00     0.070 A 
HETATM   17  S   UNL     1     -47.641 -52.550  -2.870  1.00  0.00    -0.064 SA
ENDBRANCH   4  12
TORSDOF 3
ENDMDL
