MODEL 1
REMARK VINA RESULT:      -5.6      0.000      0.000
REMARK  3 active torsions:
REMARK  status: ('A' for Active; 'I' for Inactive)
REMARK    1  A    between atoms: O_1  and  C_2 
REMARK    2  A    between atoms: C_8  and  N_9 
REMARK       I    between atoms: N_9  and  C_10 
REMARK    3  A    between atoms: C_10  and  C_12 
ROOT
HETATM    1  C   UNL     1     -44.046 -47.869   7.840  1.00  0.00     0.110 A 
HETATM    2  C   UNL     1     -45.219 -48.576   7.635  1.00  0.00     0.041 A 
HETATM    3  C   UNL     1     -46.349 -48.222   8.357  1.00  0.00     0.020 A 
HETATM    4  C   UNL     1     -46.263 -47.137   9.216  1.00  0.00     0.090 A 
HETATM    5  N   UNL     1     -45.132 -46.416   9.420  1.00  0.00    -0.350 N 
ATOM      6  HN  UNL     1     -45.122 -45.602  10.036  1.00  0.00     0.166 HD
HETATM    7  C   UNL     1     -44.025 -46.824   8.773  1.00  0.00     0.141 A 
ENDROOT
BRANCH   7   8
HETATM    8  N   UNL     1     -42.856 -46.142   9.141  1.00  0.00    -0.309 N 
HETATM    9  C   UNL     1     -42.297 -46.261  10.389  1.00  0.00     0.252 C 
HETATM   10  O   UNL     1     -42.731 -46.965  11.300  1.00  0.00    -0.270 OA
HETATM   11  H   UNL     1     -42.691 -45.275   8.641  1.00  0.00     0.170 HD
BRANCH   9  12
HETATM   12  C   UNL     1     -41.102 -45.316  10.639  1.00  0.00     0.213 C 
HETATM   13  C   UNL     1     -40.410 -45.599  11.970  1.00  0.00     0.044 C 
HETATM   14  C   UNL     1     -39.722 -44.291  12.320  1.00  0.00     0.029 C 
HETATM   15  C   UNL     1     -40.188 -43.326  11.248  1.00  0.00     0.168 C 
HETATM   16  O   UNL     1     -41.373 -43.914  10.692  1.00  0.00    -0.376 OA
ENDBRANCH   9  12
ENDBRANCH   7   8
BRANCH   1  17
HETATM   17  O   UNL     1     -42.981 -48.188   7.046  1.00  0.00    -0.357 OA
HETATM   18  H   UNL     1     -43.222 -49.035   6.622  1.00  0.00     0.218 HD
ENDBRANCH   1  17
TORSDOF 3
ENDMDL
MODEL 2
REMARK VINA RESULT:      -5.4      3.174      3.986
REMARK  3 active torsions:
REMARK  status: ('A' for Active; 'I' for Inactive)
REMARK    1  A    between atoms: O_1  and  C_2 
REMARK    2  A    between atoms: C_8  and  N_9 
REMARK       I    between atoms: N_9  and  C_10 
REMARK    3  A    between atoms: C_10  and  C_12 
ROOT
HETATM    1  C   UNL     1     -42.795 -46.135   9.368  1.00  0.00     0.110 A 
HETATM    2  C   UNL     1     -43.934 -45.432   9.016  1.00  0.00     0.041 A 
HETATM    3  C   UNL     1     -45.155 -46.091   9.015  1.00  0.00     0.020 A 
HETATM    4  C   UNL     1     -45.182 -47.418   9.419  1.00  0.00     0.090 A 
HETATM    5  N   UNL     1     -44.084 -48.124   9.787  1.00  0.00    -0.350 N 
ATOM      6  HN  UNL     1     -44.153 -49.089  10.112  1.00  0.00     0.166 HD
HETATM    7  C   UNL     1     -42.898 -47.491   9.704  1.00  0.00     0.141 A 
ENDROOT
BRANCH   7   8
HETATM    8  N   UNL     1     -41.787 -48.313   9.945  1.00  0.00    -0.309 N 
HETATM    9  C   UNL     1     -41.543 -48.880  11.171  1.00  0.00     0.252 C 
HETATM   10  O   UNL     1     -42.252 -48.751  12.170  1.00  0.00    -0.270 OA
HETATM   11  H   UNL     1     -40.984 -48.133   9.352  1.00  0.00     0.170 HD
BRANCH   9  12
HETATM   12  C   UNL     1     -40.195 -49.625  11.267  1.00  0.00     0.213 C 
HETATM   13  C   UNL     1     -40.223 -50.740  12.310  1.00  0.00     0.044 C 
HETATM   14  C   UNL     1     -38.766 -50.932  12.692  1.00  0.00     0.029 C 
HETATM   15  C   UNL     1     -38.037 -49.825  11.955  1.00  0.00     0.168 C 
HETATM   16  O   UNL     1     -39.045 -48.857  11.627  1.00  0.00    -0.376 OA
ENDBRANCH   9  12
ENDBRANCH   7   8
BRANCH   1  17
HETATM   17  O   UNL     1     -41.628 -45.430   9.445  1.00  0.00    -0.357 OA
HETATM   18  H   UNL     1     -41.763 -44.648   8.876  1.00  0.00     0.218 HD
ENDBRANCH   1  17
TORSDOF 3
ENDMDL
MODEL 3
REMARK VINA RESULT:      -5.3      3.810      6.221
REMARK  3 active torsions:
REMARK  status: ('A' for Active; 'I' for Inactive)
REMARK    1  A    between atoms: O_1  and  C_2 
REMARK    2  A    between atoms: C_8  and  N_9 
REMARK       I    between atoms: N_9  and  C_10 
REMARK    3  A    between atoms: C_10  and  C_12 
ROOT
HETATM    1  C   UNL     1     -40.160 -50.572  12.372  1.00  0.00     0.110 A 
HETATM    2  C   UNL     1     -39.082 -51.202  12.972  1.00  0.00     0.041 A 
HETATM    3  C   UNL     1     -37.798 -50.845  12.588  1.00  0.00     0.020 A 
HETATM    4  C   UNL     1     -37.654 -49.831  11.653  1.00  0.00     0.090 A 
HETATM    5  N   UNL     1     -38.691 -49.185  11.065  1.00  0.00    -0.350 N 
ATOM      6  HN  UNL     1     -38.540 -48.419  10.407  1.00  0.00     0.166 HD
HETATM    7  C   UNL     1     -39.930 -49.601  11.390  1.00  0.00     0.141 A 
ENDROOT
BRANCH   7   8
HETATM    8  N   UNL     1     -40.955 -49.007  10.637  1.00  0.00    -0.309 N 
HETATM    9  C   UNL     1     -41.277 -47.678  10.753  1.00  0.00     0.252 C 
HETATM   10  O   UNL     1     -40.717 -46.871  11.496  1.00  0.00    -0.270 OA
HETATM   11  H   UNL     1     -41.694 -49.639  10.348  1.00  0.00     0.170 HD
BRANCH   9  12
HETATM   12  C   UNL     1     -42.527 -47.258   9.951  1.00  0.00     0.213 C 
HETATM   13  C   UNL     1     -43.815 -47.436  10.751  1.00  0.00     0.044 C 
HETATM   14  C   UNL     1     -44.897 -47.569   9.693  1.00  0.00     0.029 C 
HETATM   15  C   UNL     1     -44.136 -47.603   8.382  1.00  0.00     0.168 C 
HETATM   16  O   UNL     1     -42.789 -47.955   8.731  1.00  0.00    -0.376 OA
ENDBRANCH   9  12
ENDBRANCH   7   8
BRANCH   1  17
HETATM   17  O   UNL     1     -41.404 -50.886  12.842  1.00  0.00    -0.357 OA
HETATM   18  H   UNL     1     -42.023 -50.367  12.292  1.00  0.00     0.218 HD
ENDBRANCH   1  17
TORSDOF 3
ENDMDL
MODEL 4
REMARK VINA RESULT:      -5.1      4.707      6.378
REMARK  3 active torsions:
REMARK  status: ('A' for Active; 'I' for Inactive)
REMARK    1  A    between atoms: O_1  and  C_2 
REMARK    2  A    between atoms: C_8  and  N_9 
REMARK       I    between atoms: N_9  and  C_10 
REMARK    3  A    between atoms: C_10  and  C_12 
ROOT
HETATM    1  C   UNL     1     -42.495 -47.507  10.382  1.00  0.00     0.110 A 
HETATM    2  C   UNL     1     -42.300 -46.137  10.332  1.00  0.00     0.041 A 
HETATM    3  C   UNL     1     -41.055 -45.623  10.663  1.00  0.00     0.020 A 
HETATM    4  C   UNL     1     -40.043 -46.517  10.980  1.00  0.00     0.090 A 
HETATM    5  N   UNL     1     -40.201 -47.864  11.017  1.00  0.00    -0.350 N 
ATOM      6  HN  UNL     1     -39.420 -48.488  11.220  1.00  0.00     0.166 HD
HETATM    7  C   UNL     1     -41.438 -48.339  10.773  1.00  0.00     0.141 A 
ENDROOT
BRANCH   7   8
HETATM    8  N   UNL     1     -41.578 -49.719  10.979  1.00  0.00    -0.309 N 
HETATM    9  C   UNL     1     -41.095 -50.349  12.098  1.00  0.00     0.252 C 
HETATM   10  O   UNL     1     -40.512 -49.796  13.031  1.00  0.00    -0.270 OA
HETATM   11  H   UNL     1     -41.651 -50.273  10.132  1.00  0.00     0.170 HD
BRANCH   9  12
HETATM   12  C   UNL     1     -41.220 -51.887  12.063  1.00  0.00     0.213 C 
HETATM   13  C   UNL     1     -42.516 -52.377  12.705  1.00  0.00     0.044 C 
HETATM   14  C   UNL     1     -42.211 -53.805  13.120  1.00  0.00     0.029 C 
HETATM   15  C   UNL     1     -40.735 -53.975  12.819  1.00  0.00     0.168 C 
HETATM   16  O   UNL     1     -40.207 -52.643  12.730  1.00  0.00    -0.376 OA
ENDBRANCH   9  12
ENDBRANCH   7   8
BRANCH   1  17
HETATM   17  O   UNL     1     -43.706 -47.978   9.963  1.00  0.00    -0.357 OA
HETATM   18  H   UNL     1     -43.524 -48.439   9.121  1.00  0.00     0.218 HD
ENDBRANCH   1  17
TORSDOF 3
ENDMDL
MODEL 5
REMARK VINA RESULT:      -5.1      5.651      6.190
REMARK  3 active torsions:
REMARK  status: ('A' for Active; 'I' for Inactive)
REMARK    1  A    between atoms: O_1  and  C_2 
REMARK    2  A    between atoms: C_8  and  N_9 
REMARK       I    between atoms: N_9  and  C_10 
REMARK    3  A    between atoms: C_10  and  C_12 
ROOT
HETATM    1  C   UNL     1     -41.241 -53.203  12.480  1.00  0.00     0.110 A 
HETATM    2  C   UNL     1     -41.313 -54.179  13.460  1.00  0.00     0.041 A 
HETATM    3  C   UNL     1     -42.161 -53.985  14.540  1.00  0.00     0.020 A 
HETATM    4  C   UNL     1     -42.940 -52.837  14.560  1.00  0.00     0.090 A 
HETATM    5  N   UNL     1     -42.903 -51.876  13.604  1.00  0.00    -0.350 N 
ATOM      6  HN  UNL     1     -43.520 -51.063  13.640  1.00  0.00     0.166 HD
HETATM    7  C   UNL     1     -42.015 -52.043  12.606  1.00  0.00     0.141 A 
ENDROOT
BRANCH   7   8
HETATM    8  N   UNL     1     -41.911 -50.948  11.736  1.00  0.00    -0.309 N 
HETATM    9  C   UNL     1     -41.222 -49.807  12.068  1.00  0.00     0.252 C 
HETATM   10  O   UNL     1     -40.624 -49.619  13.127  1.00  0.00    -0.270 OA
HETATM   11  H   UNL     1     -42.675 -50.851  11.076  1.00  0.00     0.170 HD
BRANCH   9  12
HETATM   12  C   UNL     1     -41.352 -48.667  11.037  1.00  0.00     0.213 C 
HETATM   13  C   UNL     1     -40.457 -47.476  11.374  1.00  0.00     0.044 C 
HETATM   14  C   UNL     1     -41.121 -46.300  10.680  1.00  0.00     0.029 C 
HETATM   15  C   UNL     1     -42.410 -46.873  10.125  1.00  0.00     0.168 C 
HETATM   16  O   UNL     1     -42.644 -48.079  10.867  1.00  0.00    -0.376 OA
ENDBRANCH   9  12
ENDBRANCH   7   8
BRANCH   1  17
HETATM   17  O   UNL     1     -40.464 -53.473  11.390  1.00  0.00    -0.357 OA
HETATM   18  H   UNL     1     -39.544 -53.346  11.693  1.00  0.00     0.218 HD
ENDBRANCH   1  17
TORSDOF 3
ENDMDL
MODEL 6
REMARK VINA RESULT:      -5.0      8.504     10.004
REMARK  3 active torsions:
REMARK  status: ('A' for Active; 'I' for Inactive)
REMARK    1  A    between atoms: O_1  and  C_2 
REMARK    2  A    between atoms: C_8  and  N_9 
REMARK       I    between atoms: N_9  and  C_10 
REMARK    3  A    between atoms: C_10  and  C_12 
ROOT
HETATM    1  C   UNL     1     -40.673 -54.151  13.528  1.00  0.00     0.110 A 
HETATM    2  C   UNL     1     -39.401 -54.622  13.809  1.00  0.00     0.041 A 
HETATM    3  C   UNL     1     -39.103 -55.014  15.107  1.00  0.00     0.020 A 
HETATM    4  C   UNL     1     -40.115 -54.962  16.054  1.00  0.00     0.090 A 
HETATM    5  N   UNL     1     -41.373 -54.523  15.800  1.00  0.00    -0.350 N 
ATOM      6  HN  UNL     1     -42.098 -54.536  16.518  1.00  0.00     0.166 HD
HETATM    7  C   UNL     1     -41.621 -54.071  14.556  1.00  0.00     0.141 A 
ENDROOT
BRANCH   7   8
HETATM    8  N   UNL     1     -42.886 -53.487  14.395  1.00  0.00    -0.309 N 
HETATM    9  C   UNL     1     -44.049 -54.206  14.514  1.00  0.00     0.252 C 
HETATM   10  O   UNL     1     -44.121 -55.406  14.780  1.00  0.00    -0.270 OA
HETATM   11  H   UNL     1     -42.907 -52.671  13.793  1.00  0.00     0.170 HD
BRANCH   9  12
HETATM   12  C   UNL     1     -45.323 -53.412  14.154  1.00  0.00     0.213 C 
HETATM   13  C   UNL     1     -45.302 -52.906  12.714  1.00  0.00     0.044 C 
HETATM   14  C   UNL     1     -46.247 -51.717  12.721  1.00  0.00     0.029 C 
HETATM   15  C   UNL     1     -46.620 -51.545  14.180  1.00  0.00     0.168 C 
HETATM   16  O   UNL     1     -45.603 -52.238  14.919  1.00  0.00    -0.376 OA
ENDBRANCH   9  12
ENDBRANCH   7   8
BRANCH   1  17
HETATM   17  O   UNL     1     -40.954 -53.862  12.223  1.00  0.00    -0.357 OA
HETATM   18  H   UNL     1     -41.528 -53.072  12.253  1.00  0.00     0.218 HD
ENDBRANCH   1  17
TORSDOF 3
ENDMDL
MODEL 7
REMARK VINA RESULT:      -5.0      6.511      6.927
REMARK  3 active torsions:
REMARK  status: ('A' for Active; 'I' for Inactive)
REMARK    1  A    between atoms: O_1  and  C_2 
REMARK    2  A    between atoms: C_8  and  N_9 
REMARK       I    between atoms: N_9  and  C_10 
REMARK    3  A    between atoms: C_10  and  C_12 
ROOT
HETATM    1  C   UNL     1     -44.464 -53.336  12.740  1.00  0.00     0.110 A 
HETATM    2  C   UNL     1     -44.930 -54.480  13.364  1.00  0.00     0.041 A 
HETATM    3  C   UNL     1     -44.144 -55.083  14.336  1.00  0.00     0.020 A 
HETATM    4  C   UNL     1     -42.944 -54.476  14.674  1.00  0.00     0.090 A 
HETATM    5  N   UNL     1     -42.473 -53.344  14.093  1.00  0.00    -0.350 N 
ATOM      6  HN  UNL     1     -41.601 -52.911  14.397  1.00  0.00     0.166 HD
HETATM    7  C   UNL     1     -43.211 -52.820  13.096  1.00  0.00     0.141 A 
ENDROOT
BRANCH   7   8
HETATM    8  N   UNL     1     -42.601 -51.746  12.429  1.00  0.00    -0.309 N 
HETATM    9  C   UNL     1     -41.292 -51.783  12.019  1.00  0.00     0.252 C 
HETATM   10  O   UNL     1     -40.525 -52.734  12.169  1.00  0.00    -0.270 OA
HETATM   11  H   UNL     1     -42.996 -50.835  12.635  1.00  0.00     0.170 HD
BRANCH   9  12
HETATM   12  C   UNL     1     -40.773 -50.450  11.439  1.00  0.00     0.213 C 
HETATM   13  C   UNL     1     -39.492 -49.980  12.126  1.00  0.00     0.044 C 
HETATM   14  C   UNL     1     -39.473 -48.480  11.895  1.00  0.00     0.029 C 
HETATM   15  C   UNL     1     -40.802 -48.187  11.228  1.00  0.00     0.168 C 
HETATM   16  O   UNL     1     -41.637 -49.315  11.527  1.00  0.00    -0.376 OA
ENDBRANCH   9  12
ENDBRANCH   7   8
BRANCH   1  17
HETATM   17  O   UNL     1     -45.305 -52.722  11.856  1.00  0.00    -0.357 OA
HETATM   18  H   UNL     1     -46.204 -52.900  12.193  1.00  0.00     0.218 HD
ENDBRANCH   1  17
TORSDOF 3
ENDMDL
MODEL 8
REMARK VINA RESULT:      -4.9      7.082      7.705
REMARK  3 active torsions:
REMARK  status: ('A' for Active; 'I' for Inactive)
REMARK    1  A    between atoms: O_1  and  C_2 
REMARK    2  A    between atoms: C_8  and  N_9 
REMARK       I    between atoms: N_9  and  C_10 
REMARK    3  A    between atoms: C_10  and  C_12 
ROOT
HETATM    1  C   UNL     1     -42.449 -54.266  14.293  1.00  0.00     0.110 A 
HETATM    2  C   UNL     1     -43.740 -54.764  14.331  1.00  0.00     0.041 A 
HETATM    3  C   UNL     1     -44.643 -54.362  13.357  1.00  0.00     0.020 A 
HETATM    4  C   UNL     1     -44.192 -53.515  12.357  1.00  0.00     0.090 A 
HETATM    5  N   UNL     1     -42.927 -53.028  12.285  1.00  0.00    -0.350 N 
ATOM      6  HN  UNL     1     -42.626 -52.435  11.511  1.00  0.00     0.166 HD
HETATM    7  C   UNL     1     -42.088 -53.364  13.284  1.00  0.00     0.141 A 
ENDROOT
BRANCH   7   8
HETATM    8  N   UNL     1     -40.849 -52.709  13.242  1.00  0.00    -0.309 N 
HETATM    9  C   UNL     1     -40.737 -51.342  13.295  1.00  0.00     0.252 C 
HETATM   10  O   UNL     1     -41.677 -50.554  13.395  1.00  0.00    -0.270 OA
HETATM   11  H   UNL     1     -40.113 -53.215  12.759  1.00  0.00     0.170 HD
BRANCH   9  12
HETATM   12  C   UNL     1     -39.301 -50.816  13.086  1.00  0.00     0.213 C 
HETATM   13  C   UNL     1     -39.176 -49.958  11.829  1.00  0.00     0.044 C 
HETATM   14  C   UNL     1     -37.705 -50.043  11.462  1.00  0.00     0.029 C 
HETATM   15  C   UNL     1     -37.133 -51.050  12.441  1.00  0.00     0.168 C 
HETATM   16  O   UNL     1     -38.262 -51.786  12.935  1.00  0.00    -0.376 OA
ENDBRANCH   9  12
ENDBRANCH   7   8
BRANCH   1  17
HETATM   17  O   UNL     1     -41.567 -54.755  15.213  1.00  0.00    -0.357 OA
HETATM   18  H   UNL     1     -40.738 -54.907  14.719  1.00  0.00     0.218 HD
ENDBRANCH   1  17
TORSDOF 3
ENDMDL
MODEL 9
REMARK VINA RESULT:      -4.9      2.372      3.177
REMARK  3 active torsions:
REMARK  status: ('A' for Active; 'I' for Inactive)
REMARK    1  A    between atoms: O_1  and  C_2 
REMARK    2  A    between atoms: C_8  and  N_9 
REMARK       I    between atoms: N_9  and  C_10 
REMARK    3  A    between atoms: C_10  and  C_12 
ROOT
HETATM    1  C   UNL     1     -43.524 -45.378   9.514  1.00  0.00     0.110 A 
HETATM    2  C   UNL     1     -43.970 -46.400   8.693  1.00  0.00     0.041 A 
HETATM    3  C   UNL     1     -43.385 -47.653   8.804  1.00  0.00     0.020 A 
HETATM    4  C   UNL     1     -42.412 -47.836   9.775  1.00  0.00     0.090 A 
HETATM    5  N   UNL     1     -41.972 -46.857  10.605  1.00  0.00    -0.350 N 
ATOM      6  HN  UNL     1     -41.279 -47.044  11.331  1.00  0.00     0.166 HD
HETATM    7  C   UNL     1     -42.493 -45.628  10.428  1.00  0.00     0.141 A 
ENDROOT
BRANCH   7   8
HETATM    8  N   UNL     1     -41.890 -44.628  11.205  1.00  0.00    -0.309 N 
HETATM    9  C   UNL     1     -40.645 -44.125  10.920  1.00  0.00     0.252 C 
HETATM   10  O   UNL     1     -39.937 -44.470   9.974  1.00  0.00    -0.270 OA
HETATM   11  H   UNL     1     -42.190 -44.599  12.173  1.00  0.00     0.170 HD
BRANCH   9  12
HETATM   12  C   UNL     1     -40.103 -43.141  11.978  1.00  0.00     0.213 C 
HETATM   13  C   UNL     1     -40.631 -43.447  13.378  1.00  0.00     0.044 C 
HETATM   14  C   UNL     1     -40.518 -42.126  14.118  1.00  0.00     0.029 C 
HETATM   15  C   UNL     1     -40.076 -41.140  13.055  1.00  0.00     0.168 C 
HETATM   16  O   UNL     1     -40.403 -41.755  11.801  1.00  0.00    -0.376 OA
ENDBRANCH   9  12
ENDBRANCH   7   8
BRANCH   1  17
HETATM   17  O   UNL     1     -44.186 -44.185   9.438  1.00  0.00    -0.357 OA
HETATM   18  H   UNL     1     -44.751 -44.154  10.234  1.00  0.00     0.218 HD
ENDBRANCH   1  17
TORSDOF 3
ENDMDL
