MODEL 1
REMARK VINA RESULT:      -6.1      0.000      0.000
REMARK  4 active torsions:
REMARK  status: ('A' for Active; 'I' for Inactive)
REMARK    1  A    between atoms: C_2  and  C_3 
REMARK    2  A    between atoms: C_2  and  N_10 
REMARK    3  A    between atoms: C_3  and  N_4 
REMARK       I    between atoms: N_10  and  C_11 
REMARK       I    between atoms: C_11  and  N_13 
REMARK    4  A    between atoms: N_13  and  C_14 
ROOT
HETATM    1  N   UNL     1     -41.554 -48.355  10.728  1.00  0.00    -0.337 N 
HETATM    2  C   UNL     1     -41.628 -49.406  11.624  1.00  0.00     0.322 C 
HETATM    3  O   UNL     1     -42.369 -49.384  12.595  1.00  0.00    -0.247 OA
HETATM    4  N   UNL     1     -40.809 -50.430  11.226  1.00  0.00    -0.288 N 
HETATM    5  H   UNL     1     -40.624 -48.191  10.369  1.00  0.00     0.164 HD
HETATM    6  H   UNL     1     -40.442 -50.405  10.288  1.00  0.00     0.172 HD
ENDROOT
BRANCH   1   7
HETATM    7  C   UNL     1     -42.406 -47.158  10.858  1.00  0.00     0.110 C 
HETATM    8  C   UNL     1     -41.723 -46.010  10.107  1.00  0.00     0.034 C 
BRANCH   7   9
HETATM    9  C   UNL     1     -43.849 -47.417  10.321  1.00  0.00     0.297 C 
BRANCH   9  10
HETATM   10  N   UNL     1     -44.177 -46.878   8.985  1.00  0.00     0.094 N 
HETATM   11  C   UNL     1     -45.341 -45.961   8.982  1.00  0.00     0.298 C 
HETATM   12  C   UNL     1     -46.710 -46.647   9.146  1.00  0.00     0.198 C 
HETATM   13  O   UNL     1     -46.902 -47.673   8.164  1.00  0.00    -0.388 OA
HETATM   14  C   UNL     1     -45.851 -48.643   8.244  1.00  0.00     0.198 C 
HETATM   15  C   UNL     1     -44.474 -47.985   8.039  1.00  0.00     0.298 C 
ENDBRANCH   9  10
ENDBRANCH   7   9
ENDBRANCH   1   7
BRANCH   4  16
HETATM   16  C   UNL     1     -40.685 -51.654  11.830  1.00  0.00     0.169 A 
HETATM   17  N   UNL     1     -41.151 -52.758  11.285  1.00  0.00    -0.279 N 
HETATM   18  N   UNL     1     -40.938 -53.865  12.084  1.00  0.00    -0.296 N 
ATOM     19  HN  UNL     1     -41.615 -52.792  10.377  1.00  0.00     0.189 HD
HETATM   20  C   UNL     1     -40.299 -53.554  13.192  1.00  0.00     0.066 A 
ATOM     21  HN  UNL     1     -41.239 -54.809  11.844  1.00  0.00     0.187 HD
HETATM   22  C   UNL     1     -39.931 -54.511  14.262  1.00  0.00     0.078 C 
HETATM   23  S   UNL     1     -39.891 -51.891  13.319  1.00  0.00    -0.038 SA
ENDBRANCH   4  16
TORSDOF 4
ENDMDL
MODEL 2
REMARK VINA RESULT:      -6.0      3.602      7.154
REMARK  4 active torsions:
REMARK  status: ('A' for Active; 'I' for Inactive)
REMARK    1  A    between atoms: C_2  and  C_3 
REMARK    2  A    between atoms: C_2  and  N_10 
REMARK    3  A    between atoms: C_3  and  N_4 
REMARK       I    between atoms: N_10  and  C_11 
REMARK       I    between atoms: C_11  and  N_13 
REMARK    4  A    between atoms: N_13  and  C_14 
ROOT
HETATM    1  N   UNL     1     -39.728 -48.518  11.210  1.00  0.00    -0.337 N 
HETATM    2  C   UNL     1     -41.077 -48.692  10.957  1.00  0.00     0.322 C 
HETATM    3  O   UNL     1     -41.783 -49.411  11.649  1.00  0.00    -0.247 OA
HETATM    4  N   UNL     1     -41.465 -47.924   9.890  1.00  0.00    -0.288 N 
HETATM    5  H   UNL     1     -39.165 -48.436  10.375  1.00  0.00     0.164 HD
HETATM    6  H   UNL     1     -40.833 -47.206   9.571  1.00  0.00     0.172 HD
ENDROOT
BRANCH   1   7
HETATM    7  C   UNL     1     -39.064 -49.152  12.365  1.00  0.00     0.110 C 
HETATM    8  C   UNL     1     -37.780 -49.819  11.861  1.00  0.00     0.034 C 
BRANCH   7   9
HETATM    9  C   UNL     1     -38.767 -48.118  13.496  1.00  0.00     0.297 C 
BRANCH   9  10
HETATM   10  N   UNL     1     -39.929 -47.473  14.141  1.00  0.00     0.094 N 
HETATM   11  C   UNL     1     -40.234 -46.124  13.608  1.00  0.00     0.298 C 
HETATM   12  C   UNL     1     -39.257 -45.017  14.044  1.00  0.00     0.198 C 
HETATM   13  O   UNL     1     -39.139 -44.956  15.472  1.00  0.00    -0.388 OA
HETATM   14  C   UNL     1     -38.713 -46.222  15.991  1.00  0.00     0.198 C 
HETATM   15  C   UNL     1     -39.701 -47.338  15.603  1.00  0.00     0.298 C 
ENDBRANCH   9  10
ENDBRANCH   7   9
ENDBRANCH   1   7
BRANCH   4  16
HETATM   16  C   UNL     1     -42.740 -47.788   9.407  1.00  0.00     0.169 A 
HETATM   17  N   UNL     1     -43.046 -48.037   8.151  1.00  0.00    -0.279 N 
HETATM   18  N   UNL     1     -44.382 -47.806   7.885  1.00  0.00    -0.296 N 
ATOM     19  HN  UNL     1     -42.375 -48.363   7.456  1.00  0.00     0.189 HD
HETATM   20  C   UNL     1     -45.036 -47.412   8.958  1.00  0.00     0.066 A 
ATOM     21  HN  UNL     1     -44.811 -47.926   6.967  1.00  0.00     0.187 HD
HETATM   22  C   UNL     1     -46.477 -47.072   9.003  1.00  0.00     0.078 C 
HETATM   23  S   UNL     1     -44.066 -47.326  10.372  1.00  0.00    -0.038 SA
ENDBRANCH   4  16
TORSDOF 4
ENDMDL
MODEL 3
REMARK VINA RESULT:      -5.8      3.710      6.578
REMARK  4 active torsions:
REMARK  status: ('A' for Active; 'I' for Inactive)
REMARK    1  A    between atoms: C_2  and  C_3 
REMARK    2  A    between atoms: C_2  and  N_10 
REMARK    3  A    between atoms: C_3  and  N_4 
REMARK       I    between atoms: N_10  and  C_11 
REMARK       I    between atoms: C_11  and  N_13 
REMARK    4  A    between atoms: N_13  and  C_14 
ROOT
HETATM    1  N   UNL     1     -41.279 -53.056  12.050  1.00  0.00    -0.337 N 
HETATM    2  C   UNL     1     -41.427 -51.699  12.276  1.00  0.00     0.322 C 
HETATM    3  O   UNL     1     -41.955 -51.262  13.288  1.00  0.00    -0.247 OA
HETATM    4  N   UNL     1     -40.867 -50.981  11.252  1.00  0.00    -0.288 N 
HETATM    5  H   UNL     1     -41.394 -53.321  11.082  1.00  0.00     0.164 HD
HETATM    6  H   UNL     1     -40.262 -51.468  10.609  1.00  0.00     0.172 HD
ENDROOT
BRANCH   1   7
HETATM    7  C   UNL     1     -41.705 -54.063  13.040  1.00  0.00     0.110 C 
HETATM    8  C   UNL     1     -40.612 -54.163  14.109  1.00  0.00     0.034 C 
BRANCH   7   9
HETATM    9  C   UNL     1     -43.089 -53.705  13.666  1.00  0.00     0.297 C 
BRANCH   9  10
HETATM   10  N   UNL     1     -44.293 -54.077  12.895  1.00  0.00     0.094 N 
HETATM   11  C   UNL     1     -45.112 -52.917  12.471  1.00  0.00     0.298 C 
HETATM   12  C   UNL     1     -45.922 -52.247  13.595  1.00  0.00     0.198 C 
HETATM   13  O   UNL     1     -46.750 -53.196  14.280  1.00  0.00    -0.388 OA
HETATM   14  C   UNL     1     -45.952 -54.260  14.813  1.00  0.00     0.198 C 
HETATM   15  C   UNL     1     -45.166 -54.973  13.698  1.00  0.00     0.298 C 
ENDBRANCH   9  10
ENDBRANCH   7   9
ENDBRANCH   1   7
BRANCH   4  16
HETATM   16  C   UNL     1     -40.761 -49.617  11.179  1.00  0.00     0.169 A 
HETATM   17  N   UNL     1     -41.383 -48.913  10.257  1.00  0.00    -0.279 N 
HETATM   18  N   UNL     1     -41.109 -47.562  10.360  1.00  0.00    -0.296 N 
ATOM     19  HN  UNL     1     -41.996 -49.317   9.549  1.00  0.00     0.189 HD
HETATM   20  C   UNL     1     -40.308 -47.300  11.372  1.00  0.00     0.066 A 
ATOM     21  HN  UNL     1     -41.482 -46.853   9.729  1.00  0.00     0.187 HD
HETATM   22  C   UNL     1     -39.815 -45.952  11.743  1.00  0.00     0.078 C 
HETATM   23  S   UNL     1     -39.858 -48.684  12.282  1.00  0.00    -0.038 SA
ENDBRANCH   4  16
TORSDOF 4
ENDMDL
MODEL 4
REMARK VINA RESULT:      -5.8      2.715      4.840
REMARK  4 active torsions:
REMARK  status: ('A' for Active; 'I' for Inactive)
REMARK    1  A    between atoms: C_2  and  C_3 
REMARK    2  A    between atoms: C_2  and  N_10 
REMARK    3  A    between atoms: C_3  and  N_4 
REMARK       I    between atoms: N_10  and  C_11 
REMARK       I    between atoms: C_11  and  N_13 
REMARK    4  A    between atoms: N_13  and  C_14 
ROOT
HETATM    1  N   UNL     1     -42.143 -48.261  11.084  1.00  0.00    -0.337 N 
HETATM    2  C   UNL     1     -41.277 -49.316  11.308  1.00  0.00     0.322 C 
HETATM    3  O   UNL     1     -40.068 -49.211  11.159  1.00  0.00    -0.247 OA
HETATM    4  N   UNL     1     -41.968 -50.415  11.747  1.00  0.00    -0.288 N 
HETATM    5  H   UNL     1     -43.025 -48.538  10.677  1.00  0.00     0.164 HD
HETATM    6  H   UNL     1     -42.921 -50.285  12.048  1.00  0.00     0.172 HD
ENDROOT
BRANCH   1   7
HETATM    7  C   UNL     1     -41.657 -46.923  10.699  1.00  0.00     0.110 C 
HETATM    8  C   UNL     1     -42.765 -46.233   9.896  1.00  0.00     0.034 C 
BRANCH   7   9
HETATM    9  C   UNL     1     -41.242 -46.080  11.946  1.00  0.00     0.297 C 
BRANCH   9  10
HETATM   10  N   UNL     1     -39.796 -45.912  12.194  1.00  0.00     0.094 N 
HETATM   11  C   UNL     1     -39.340 -46.491  13.479  1.00  0.00     0.298 C 
HETATM   12  C   UNL     1     -39.745 -45.694  14.732  1.00  0.00     0.198 C 
HETATM   13  O   UNL     1     -39.321 -44.327  14.643  1.00  0.00    -0.388 OA
HETATM   14  C   UNL     1     -39.865 -43.712  13.469  1.00  0.00     0.198 C 
HETATM   15  C   UNL     1     -39.436 -44.470  12.198  1.00  0.00     0.298 C 
ENDBRANCH   9  10
ENDBRANCH   7   9
ENDBRANCH   1   7
BRANCH   4  16
HETATM   16  C   UNL     1     -41.428 -51.613  12.137  1.00  0.00     0.169 A 
HETATM   17  N   UNL     1     -41.378 -52.656  11.335  1.00  0.00    -0.279 N 
HETATM   18  N   UNL     1     -40.817 -53.759  11.951  1.00  0.00    -0.296 N 
ATOM     19  HN  UNL     1     -41.713 -52.650  10.372  1.00  0.00     0.189 HD
HETATM   20  C   UNL     1     -40.447 -53.497  13.186  1.00  0.00     0.066 A 
ATOM     21  HN  UNL     1     -40.704 -54.668  11.501  1.00  0.00     0.187 HD
HETATM   22  C   UNL     1     -39.826 -54.470  14.116  1.00  0.00     0.078 C 
HETATM   23  S   UNL     1     -40.733 -51.875  13.671  1.00  0.00    -0.038 SA
ENDBRANCH   4  16
TORSDOF 4
ENDMDL
MODEL 5
REMARK VINA RESULT:      -5.8      3.727      7.771
REMARK  4 active torsions:
REMARK  status: ('A' for Active; 'I' for Inactive)
REMARK    1  A    between atoms: C_2  and  C_3 
REMARK    2  A    between atoms: C_2  and  N_10 
REMARK    3  A    between atoms: C_3  and  N_4 
REMARK       I    between atoms: N_10  and  C_11 
REMARK       I    between atoms: C_11  and  N_13 
REMARK    4  A    between atoms: N_13  and  C_14 
ROOT
HETATM    1  N   UNL     1     -39.537 -48.534  11.348  1.00  0.00    -0.337 N 
HETATM    2  C   UNL     1     -40.845 -48.817  10.996  1.00  0.00     0.322 C 
HETATM    3  O   UNL     1     -41.450 -49.775  11.454  1.00  0.00    -0.247 OA
HETATM    4  N   UNL     1     -41.323 -47.863  10.136  1.00  0.00    -0.288 N 
HETATM    5  H   UNL     1     -38.981 -48.169  10.588  1.00  0.00     0.164 HD
HETATM    6  H   UNL     1     -40.796 -47.010  10.035  1.00  0.00     0.172 HD
ENDROOT
BRANCH   1   7
HETATM    7  C   UNL     1     -38.804 -49.344  12.340  1.00  0.00     0.110 C 
HETATM    8  C   UNL     1     -37.675 -50.076  11.608  1.00  0.00     0.034 C 
BRANCH   7   9
HETATM    9  C   UNL     1     -38.255 -48.465  13.508  1.00  0.00     0.297 C 
BRANCH   9  10
HETATM   10  N   UNL     1     -39.002 -48.496  14.782  1.00  0.00     0.094 N 
HETATM   11  C   UNL     1     -38.211 -48.034  15.948  1.00  0.00     0.298 C 
HETATM   12  C   UNL     1     -37.140 -49.024  16.440  1.00  0.00     0.198 C 
HETATM   13  O   UNL     1     -37.706 -50.311  16.721  1.00  0.00    -0.388 OA
HETATM   14  C   UNL     1     -38.362 -50.832  15.559  1.00  0.00     0.198 C 
HETATM   15  C   UNL     1     -39.469 -49.877  15.075  1.00  0.00     0.298 C 
ENDBRANCH   9  10
ENDBRANCH   7   9
ENDBRANCH   1   7
BRANCH   4  16
HETATM   16  C   UNL     1     -42.599 -47.781   9.641  1.00  0.00     0.169 A 
HETATM   17  N   UNL     1     -42.903 -48.155   8.417  1.00  0.00    -0.279 N 
HETATM   18  N   UNL     1     -44.240 -47.957   8.128  1.00  0.00    -0.296 N 
ATOM     19  HN  UNL     1     -42.230 -48.546   7.757  1.00  0.00     0.189 HD
HETATM   20  C   UNL     1     -44.896 -47.462   9.157  1.00  0.00     0.066 A 
ATOM     21  HN  UNL     1     -44.667 -48.170   7.227  1.00  0.00     0.187 HD
HETATM   22  C   UNL     1     -46.339 -47.125   9.167  1.00  0.00     0.078 C 
HETATM   23  S   UNL     1     -43.927 -47.231  10.556  1.00  0.00    -0.038 SA
ENDBRANCH   4  16
TORSDOF 4
ENDMDL
MODEL 6
REMARK VINA RESULT:      -5.8      3.539      7.221
REMARK  4 active torsions:
REMARK  status: ('A' for Active; 'I' for Inactive)
REMARK    1  A    between atoms: C_2  and  C_3 
REMARK    2  A    between atoms: C_2  and  N_10 
REMARK    3  A    between atoms: C_3  and  N_4 
REMARK       I    between atoms: N_10  and  C_11 
REMARK       I    between atoms: C_11  and  N_13 
REMARK    4  A    between atoms: N_13  and  C_14 
ROOT
HETATM    1  N   UNL     1     -43.886 -50.279  12.518  1.00  0.00    -0.337 N 
HETATM    2  C   UNL     1     -43.046 -49.188  12.644  1.00  0.00     0.322 C 
HETATM    3  O   UNL     1     -42.536 -48.878  13.711  1.00  0.00    -0.247 OA
HETATM    4  N   UNL     1     -42.862 -48.585  11.427  1.00  0.00    -0.288 N 
HETATM    5  H   UNL     1     -44.648 -50.134  11.870  1.00  0.00     0.164 HD
HETATM    6  H   UNL     1     -43.151 -49.087  10.602  1.00  0.00     0.172 HD
ENDROOT
BRANCH   1   7
HETATM    7  C   UNL     1     -44.181 -51.172  13.654  1.00  0.00     0.110 C 
HETATM    8  C   UNL     1     -45.704 -51.292  13.776  1.00  0.00     0.034 C 
BRANCH   7   9
HETATM    9  C   UNL     1     -43.508 -52.570  13.478  1.00  0.00     0.297 C 
BRANCH   9  10
HETATM   10  N   UNL     1     -42.472 -52.946  14.462  1.00  0.00     0.094 N 
HETATM   11  C   UNL     1     -41.366 -51.965  14.569  1.00  0.00     0.298 C 
HETATM   12  C   UNL     1     -40.380 -51.965  13.386  1.00  0.00     0.198 C 
HETATM   13  O   UNL     1     -39.842 -53.274  13.154  1.00  0.00    -0.388 OA
HETATM   14  C   UNL     1     -40.899 -54.212  12.916  1.00  0.00     0.198 C 
HETATM   15  C   UNL     1     -41.874 -54.260  14.106  1.00  0.00     0.298 C 
ENDBRANCH   9  10
ENDBRANCH   7   9
ENDBRANCH   1   7
BRANCH   4  16
HETATM   16  C   UNL     1     -42.035 -47.525  11.163  1.00  0.00     0.169 A 
HETATM   17  N   UNL     1     -40.909 -47.661  10.494  1.00  0.00    -0.279 N 
HETATM   18  N   UNL     1     -40.228 -46.465  10.371  1.00  0.00    -0.296 N 
ATOM     19  HN  UNL     1     -40.579 -48.546  10.109  1.00  0.00     0.189 HD
HETATM   20  C   UNL     1     -40.879 -45.469  10.935  1.00  0.00     0.066 A 
ATOM     21  HN  UNL     1     -39.329 -46.365   9.901  1.00  0.00     0.187 HD
HETATM   22  C   UNL     1     -40.411 -44.064  10.988  1.00  0.00     0.078 C 
HETATM   23  S   UNL     1     -42.383 -45.923  11.629  1.00  0.00    -0.038 SA
ENDBRANCH   4  16
TORSDOF 4
ENDMDL
MODEL 7
REMARK VINA RESULT:      -5.6      3.079      3.861
REMARK  4 active torsions:
REMARK  status: ('A' for Active; 'I' for Inactive)
REMARK    1  A    between atoms: C_2  and  C_3 
REMARK    2  A    between atoms: C_2  and  N_10 
REMARK    3  A    between atoms: C_3  and  N_4 
REMARK       I    between atoms: N_10  and  C_11 
REMARK       I    between atoms: C_11  and  N_13 
REMARK    4  A    between atoms: N_13  and  C_14 
ROOT
HETATM    1  N   UNL     1     -41.526 -50.478  11.456  1.00  0.00    -0.337 N 
HETATM    2  C   UNL     1     -42.156 -51.109  12.514  1.00  0.00     0.322 C 
HETATM    3  O   UNL     1     -42.154 -50.645  13.645  1.00  0.00    -0.247 OA
HETATM    4  N   UNL     1     -42.782 -52.249  12.083  1.00  0.00    -0.288 N 
HETATM    5  H   UNL     1     -41.093 -51.114  10.802  1.00  0.00     0.164 HD
HETATM    6  H   UNL     1     -42.898 -52.379  11.091  1.00  0.00     0.172 HD
ENDROOT
BRANCH   1   7
HETATM    7  C   UNL     1     -40.854 -49.174  11.615  1.00  0.00     0.110 C 
HETATM    8  C   UNL     1     -39.354 -49.387  11.388  1.00  0.00     0.034 C 
BRANCH   7   9
HETATM    9  C   UNL     1     -41.436 -48.104  10.638  1.00  0.00     0.297 C 
BRANCH   9  10
HETATM   10  N   UNL     1     -42.788 -47.588  10.933  1.00  0.00     0.094 N 
HETATM   11  C   UNL     1     -43.651 -47.459   9.735  1.00  0.00     0.298 C 
HETATM   12  C   UNL     1     -43.301 -46.282   8.806  1.00  0.00     0.198 C 
HETATM   13  O   UNL     1     -43.279 -45.040   9.520  1.00  0.00    -0.388 OA
HETATM   14  C   UNL     1     -42.346 -45.105  10.605  1.00  0.00     0.198 C 
HETATM   15  C   UNL     1     -42.703 -46.249  11.573  1.00  0.00     0.298 C 
ENDBRANCH   9  10
ENDBRANCH   7   9
ENDBRANCH   1   7
BRANCH   4  16
HETATM   16  C   UNL     1     -43.563 -53.083  12.841  1.00  0.00     0.169 A 
HETATM   17  N   UNL     1     -43.051 -53.941  13.697  1.00  0.00    -0.279 N 
HETATM   18  N   UNL     1     -44.024 -54.694  14.326  1.00  0.00    -0.296 N 
ATOM     19  HN  UNL     1     -42.051 -54.039  13.876  1.00  0.00     0.189 HD
HETATM   20  C   UNL     1     -45.235 -54.356  13.934  1.00  0.00     0.066 A 
ATOM     21  HN  UNL     1     -43.829 -55.423  15.012  1.00  0.00     0.187 HD
HETATM   22  C   UNL     1     -46.492 -54.982  14.410  1.00  0.00     0.078 C 
HETATM   23  S   UNL     1     -45.266 -53.076  12.790  1.00  0.00    -0.038 SA
ENDBRANCH   4  16
TORSDOF 4
ENDMDL
MODEL 8
REMARK VINA RESULT:      -5.6      3.282      7.859
REMARK  4 active torsions:
REMARK  status: ('A' for Active; 'I' for Inactive)
REMARK    1  A    between atoms: C_2  and  C_3 
REMARK    2  A    between atoms: C_2  and  N_10 
REMARK    3  A    between atoms: C_3  and  N_4 
REMARK       I    between atoms: N_10  and  C_11 
REMARK       I    between atoms: C_11  and  N_13 
REMARK    4  A    between atoms: N_13  and  C_14 
ROOT
HETATM    1  N   UNL     1     -42.456 -51.284  12.122  1.00  0.00    -0.337 N 
HETATM    2  C   UNL     1     -42.452 -49.901  12.103  1.00  0.00     0.322 C 
HETATM    3  O   UNL     1     -43.061 -49.236  12.928  1.00  0.00    -0.247 OA
HETATM    4  N   UNL     1     -41.654 -49.441  11.088  1.00  0.00    -0.288 N 
HETATM    5  H   UNL     1     -42.461 -51.703  11.203  1.00  0.00     0.164 HD
HETATM    6  H   UNL     1     -41.031 -50.096  10.642  1.00  0.00     0.172 HD
ENDROOT
BRANCH   1   7
HETATM    7  C   UNL     1     -43.156 -52.047  13.173  1.00  0.00     0.110 C 
HETATM    8  C   UNL     1     -43.995 -53.131  12.487  1.00  0.00     0.034 C 
BRANCH   7   9
HETATM    9  C   UNL     1     -42.155 -52.661  14.202  1.00  0.00     0.297 C 
BRANCH   9  10
HETATM   10  N   UNL     1     -41.813 -54.089  14.039  1.00  0.00     0.094 N 
HETATM   11  C   UNL     1     -41.678 -54.820  15.321  1.00  0.00     0.298 C 
HETATM   12  C   UNL     1     -40.398 -54.505  16.117  1.00  0.00     0.198 C 
HETATM   13  O   UNL     1     -39.223 -54.708  15.320  1.00  0.00    -0.388 OA
HETATM   14  C   UNL     1     -39.279 -53.903  14.136  1.00  0.00     0.198 C 
HETATM   15  C   UNL     1     -40.530 -54.233  13.302  1.00  0.00     0.298 C 
ENDBRANCH   9  10
ENDBRANCH   7   9
ENDBRANCH   1   7
BRANCH   4  16
HETATM   16  C   UNL     1     -41.356 -48.130  10.819  1.00  0.00     0.169 A 
HETATM   17  N   UNL     1     -42.013 -47.431   9.918  1.00  0.00    -0.279 N 
HETATM   18  N   UNL     1     -41.523 -46.145   9.798  1.00  0.00    -0.296 N 
ATOM     19  HN  UNL     1     -42.794 -47.796   9.373  1.00  0.00     0.189 HD
HETATM   20  C   UNL     1     -40.528 -45.919  10.630  1.00  0.00     0.066 A 
ATOM     21  HN  UNL     1     -41.887 -45.453   9.143  1.00  0.00     0.187 HD
HETATM   22  C   UNL     1     -39.779 -44.645  10.740  1.00  0.00     0.078 C 
HETATM   23  S   UNL     1     -40.143 -47.256  11.636  1.00  0.00    -0.038 SA
ENDBRANCH   4  16
TORSDOF 4
ENDMDL
MODEL 9
REMARK VINA RESULT:      -5.5      3.537      7.858
REMARK  4 active torsions:
REMARK  status: ('A' for Active; 'I' for Inactive)
REMARK    1  A    between atoms: C_2  and  C_3 
REMARK    2  A    between atoms: C_2  and  N_10 
REMARK    3  A    between atoms: C_3  and  N_4 
REMARK       I    between atoms: N_10  and  C_11 
REMARK       I    between atoms: C_11  and  N_13 
REMARK    4  A    between atoms: N_13  and  C_14 
ROOT
HETATM    1  N   UNL     1     -39.981 -52.365  13.326  1.00  0.00    -0.337 N 
HETATM    2  C   UNL     1     -40.598 -51.514  12.427  1.00  0.00     0.322 C 
HETATM    3  O   UNL     1     -41.562 -51.859  11.760  1.00  0.00    -0.247 OA
HETATM    4  N   UNL     1     -40.003 -50.280  12.452  1.00  0.00    -0.288 N 
HETATM    5  H   UNL     1     -38.978 -52.253  13.369  1.00  0.00     0.164 HD
HETATM    6  H   UNL     1     -39.379 -50.072  13.216  1.00  0.00     0.172 HD
ENDROOT
BRANCH   1   7
HETATM    7  C   UNL     1     -40.480 -53.730  13.576  1.00  0.00     0.110 C 
HETATM    8  C   UNL     1     -39.285 -54.602  13.976  1.00  0.00     0.034 C 
BRANCH   7   9
HETATM    9  C   UNL     1     -41.593 -53.745  14.671  1.00  0.00     0.297 C 
BRANCH   9  10
HETATM   10  N   UNL     1     -42.426 -54.961  14.768  1.00  0.00     0.094 N 
HETATM   11  C   UNL     1     -43.868 -54.716  14.526  1.00  0.00     0.298 C 
HETATM   12  C   UNL     1     -44.607 -54.002  15.672  1.00  0.00     0.198 C 
HETATM   13  O   UNL     1     -44.438 -54.695  16.916  1.00  0.00    -0.388 OA
HETATM   14  C   UNL     1     -43.046 -54.822  17.230  1.00  0.00     0.198 C 
HETATM   15  C   UNL     1     -42.294 -55.573  16.115  1.00  0.00     0.298 C 
ENDBRANCH   9  10
ENDBRANCH   7   9
ENDBRANCH   1   7
BRANCH   4  16
HETATM   16  C   UNL     1     -40.399 -49.172  11.750  1.00  0.00     0.169 A 
HETATM   17  N   UNL     1     -41.072 -49.258  10.622  1.00  0.00    -0.279 N 
HETATM   18  N   UNL     1     -41.339 -48.016  10.078  1.00  0.00    -0.296 N 
ATOM     19  HN  UNL     1     -41.364 -50.139  10.199  1.00  0.00     0.189 HD
HETATM   20  C   UNL     1     -40.874 -47.041  10.830  1.00  0.00     0.066 A 
ATOM     21  HN  UNL     1     -41.836 -47.872   9.199  1.00  0.00     0.187 HD
HETATM   22  C   UNL     1     -40.984 -45.596  10.520  1.00  0.00     0.078 C 
HETATM   23  S   UNL     1     -40.104 -47.576  12.269  1.00  0.00    -0.038 SA
ENDBRANCH   4  16
TORSDOF 4
ENDMDL
