MODEL 1
REMARK VINA RESULT:      -6.4      0.000      0.000
REMARK  5 active torsions:
REMARK  status: ('A' for Active; 'I' for Inactive)
REMARK    1  A    between atoms: O_2  and  C_3 
REMARK    2  A    between atoms: C_3  and  C_4 
REMARK    3  A    between atoms: C_6  and  N_7 
REMARK       I    between atoms: N_7  and  C_8 
REMARK       I    between atoms: C_8  and  N_10 
REMARK    4  A    between atoms: N_10  and  C_11 
REMARK    5  A    between atoms: C_15  and  C_17 
ROOT
HETATM    1  N   UNL     1     -41.701 -50.299  11.677  1.00  0.00    -0.295 N 
HETATM    2  C   UNL     1     -42.109 -51.480  12.247  1.00  0.00     0.322 C 
HETATM    3  O   UNL     1     -41.472 -52.510  12.052  1.00  0.00    -0.247 OA
HETATM    4  N   UNL     1     -43.283 -51.427  12.920  1.00  0.00    -0.338 N 
HETATM    5  H   UNL     1     -40.930 -50.417  11.036  1.00  0.00     0.172 HD
HETATM    6  H   UNL     1     -43.588 -50.483  13.153  1.00  0.00     0.164 HD
ENDROOT
BRANCH   1   7
HETATM    7  C   UNL     1     -42.321 -49.043  11.769  1.00  0.00     0.111 A 
HETATM    8  C   UNL     1     -42.280 -48.384  12.976  1.00  0.00     0.075 A 
HETATM    9  C   UNL     1     -42.833 -47.113  13.011  1.00  0.00     0.037 A 
HETATM   10  N   UNL     1     -43.458 -46.572  11.941  1.00  0.00    -0.354 N 
HETATM   11  C   UNL     1     -43.469 -47.308  10.828  1.00  0.00     0.182 A 
ATOM     12  HN  UNL     1     -43.896 -45.652  11.982  1.00  0.00     0.166 HD
HETATM   13  N   UNL     1     -42.916 -48.516  10.681  1.00  0.00    -0.338 N 
ATOM     14  HN  UNL     1     -42.943 -49.014   9.791  1.00  0.00     0.168 HD
BRANCH   9  15
HETATM   15  C   UNL     1     -42.747 -46.268  14.258  1.00  0.00     0.224 C 
BRANCH  15  16
HETATM   16  O   UNL     1     -43.543 -45.091  14.102  1.00  0.00    -0.390 OA
HETATM   17  C   UNL     1     -42.785 -43.917  14.372  1.00  0.00     0.201 C 
ENDBRANCH  15  16
ENDBRANCH   9  15
ENDBRANCH   1   7
BRANCH   4  18
HETATM   18  C   UNL     1     -44.034 -52.557  13.428  1.00  0.00     0.086 C 
HETATM   19  C   UNL     1     -45.201 -52.874  12.484  1.00  0.00     0.025 C 
HETATM   20  C   UNL     1     -46.242 -51.758  12.470  1.00  0.00     0.003 C 
HETATM   21  C   UNL     1     -46.761 -51.464  13.873  1.00  0.00     0.014 C 
HETATM   22  C   UNL     1     -45.645 -51.211  14.900  1.00  0.00     0.095 C 
HETATM   23  C   UNL     1     -44.544 -52.288  14.843  1.00  0.00     0.038 C 
BRANCH  22  24
HETATM   24  C   UNL     1     -46.212 -51.080  16.317  1.00  0.00     0.391 C 
HETATM   25  F   UNL     1     -45.675 -50.034  16.985  1.00  0.00    -0.171 F 
HETATM   26  F   UNL     1     -47.551 -50.910  16.325  1.00  0.00    -0.171 F 
HETATM   27  F   UNL     1     -45.943 -52.192  17.040  1.00  0.00    -0.171 F 
ENDBRANCH  22  24
ENDBRANCH   4  18
TORSDOF 5
ENDMDL
MODEL 2
REMARK VINA RESULT:      -6.2      3.900      6.219
REMARK  5 active torsions:
REMARK  status: ('A' for Active; 'I' for Inactive)
REMARK    1  A    between atoms: O_2  and  C_3 
REMARK    2  A    between atoms: C_3  and  C_4 
REMARK    3  A    between atoms: C_6  and  N_7 
REMARK       I    between atoms: N_7  and  C_8 
REMARK       I    between atoms: C_8  and  N_10 
REMARK    4  A    between atoms: N_10  and  C_11 
REMARK    5  A    between atoms: C_15  and  C_17 
ROOT
HETATM    1  N   UNL     1     -43.021 -52.688  12.671  1.00  0.00    -0.295 N 
HETATM    2  C   UNL     1     -42.019 -51.865  12.218  1.00  0.00     0.322 C 
HETATM    3  O   UNL     1     -40.912 -52.327  11.964  1.00  0.00    -0.247 OA
HETATM    4  N   UNL     1     -42.318 -50.545  12.186  1.00  0.00    -0.338 N 
HETATM    5  H   UNL     1     -42.706 -53.628  12.856  1.00  0.00     0.172 HD
HETATM    6  H   UNL     1     -43.315 -50.342  12.241  1.00  0.00     0.164 HD
ENDROOT
BRANCH   1   7
HETATM    7  C   UNL     1     -44.328 -52.327  13.035  1.00  0.00     0.111 A 
HETATM    8  C   UNL     1     -44.569 -51.992  14.348  1.00  0.00     0.075 A 
HETATM    9  C   UNL     1     -45.852 -51.566  14.656  1.00  0.00     0.037 A 
HETATM   10  N   UNL     1     -46.845 -51.555  13.738  1.00  0.00    -0.354 N 
HETATM   11  C   UNL     1     -46.512 -51.929  12.502  1.00  0.00     0.182 A 
ATOM     12  HN  UNL     1     -47.797 -51.276  13.979  1.00  0.00     0.166 HD
HETATM   13  N   UNL     1     -45.294 -52.301  12.096  1.00  0.00    -0.338 N 
ATOM     14  HN  UNL     1     -45.106 -52.553  11.126  1.00  0.00     0.168 HD
BRANCH   9  15
HETATM   15  C   UNL     1     -46.191 -51.080  16.043  1.00  0.00     0.224 C 
BRANCH  15  16
HETATM   16  O   UNL     1     -47.578 -51.302  16.310  1.00  0.00    -0.390 OA
HETATM   17  C   UNL     1     -47.960 -50.736  17.558  1.00  0.00     0.201 C 
ENDBRANCH  15  16
ENDBRANCH   9  15
ENDBRANCH   1   7
BRANCH   4  18
HETATM   18  C   UNL     1     -41.389 -49.459  11.954  1.00  0.00     0.086 C 
HETATM   19  C   UNL     1     -41.395 -48.502  13.153  1.00  0.00     0.025 C 
HETATM   20  C   UNL     1     -42.730 -47.777  13.298  1.00  0.00     0.003 C 
HETATM   21  C   UNL     1     -43.095 -47.028  12.022  1.00  0.00     0.014 C 
HETATM   22  C   UNL     1     -43.037 -47.901  10.758  1.00  0.00     0.095 C 
HETATM   23  C   UNL     1     -41.727 -48.709  10.666  1.00  0.00     0.038 C 
BRANCH  22  24
HETATM   24  C   UNL     1     -43.255 -47.066   9.492  1.00  0.00     0.391 C 
HETATM   25  F   UNL     1     -44.499 -46.539   9.439  1.00  0.00    -0.171 F 
HETATM   26  F   UNL     1     -42.385 -46.037   9.395  1.00  0.00    -0.171 F 
HETATM   27  F   UNL     1     -43.101 -47.830   8.387  1.00  0.00    -0.171 F 
ENDBRANCH  22  24
ENDBRANCH   4  18
TORSDOF 5
ENDMDL
MODEL 3
REMARK VINA RESULT:      -6.0      4.006      4.591
REMARK  5 active torsions:
REMARK  status: ('A' for Active; 'I' for Inactive)
REMARK    1  A    between atoms: O_2  and  C_3 
REMARK    2  A    between atoms: C_3  and  C_4 
REMARK    3  A    between atoms: C_6  and  N_7 
REMARK       I    between atoms: N_7  and  C_8 
REMARK       I    between atoms: C_8  and  N_10 
REMARK    4  A    between atoms: N_10  and  C_11 
REMARK    5  A    between atoms: C_15  and  C_17 
ROOT
HETATM    1  N   UNL     1     -41.562 -54.579  14.581  1.00  0.00    -0.295 N 
HETATM    2  C   UNL     1     -42.800 -54.837  15.116  1.00  0.00     0.322 C 
HETATM    3  O   UNL     1     -42.958 -55.793  15.869  1.00  0.00    -0.247 OA
HETATM    4  N   UNL     1     -43.804 -54.045  14.671  1.00  0.00    -0.338 N 
HETATM    5  H   UNL     1     -40.884 -55.297  14.790  1.00  0.00     0.172 HD
HETATM    6  H   UNL     1     -43.489 -53.194  14.208  1.00  0.00     0.164 HD
ENDROOT
BRANCH   1   7
HETATM    7  C   UNL     1     -41.210 -53.555  13.687  1.00  0.00     0.111 A 
HETATM    8  C   UNL     1     -40.125 -52.767  13.994  1.00  0.00     0.075 A 
HETATM    9  C   UNL     1     -39.759 -51.817  13.053  1.00  0.00     0.037 A 
HETATM   10  N   UNL     1     -40.476 -51.611  11.925  1.00  0.00    -0.354 N 
HETATM   11  C   UNL     1     -41.529 -52.408  11.738  1.00  0.00     0.182 A 
ATOM     12  HN  UNL     1     -40.224 -50.885  11.253  1.00  0.00     0.166 HD
HETATM   13  N   UNL     1     -41.927 -53.386  12.558  1.00  0.00    -0.338 N 
ATOM     14  HN  UNL     1     -42.732 -53.974  12.341  1.00  0.00     0.168 HD
BRANCH   9  15
HETATM   15  C   UNL     1     -38.524 -50.974  13.248  1.00  0.00     0.224 C 
BRANCH  15  16
HETATM   16  O   UNL     1     -37.577 -51.253  12.213  1.00  0.00    -0.390 OA
HETATM   17  C   UNL     1     -37.360 -50.113  11.392  1.00  0.00     0.201 C 
ENDBRANCH  15  16
ENDBRANCH   9  15
ENDBRANCH   1   7
BRANCH   4  18
HETATM   18  C   UNL     1     -45.219 -54.237  14.910  1.00  0.00     0.086 C 
HETATM   19  C   UNL     1     -46.007 -53.965  13.622  1.00  0.00     0.025 C 
HETATM   20  C   UNL     1     -45.932 -52.498  13.207  1.00  0.00     0.003 C 
HETATM   21  C   UNL     1     -46.412 -51.579  14.324  1.00  0.00     0.014 C 
HETATM   22  C   UNL     1     -45.724 -51.841  15.673  1.00  0.00     0.095 C 
HETATM   23  C   UNL     1     -45.714 -53.338  16.043  1.00  0.00     0.038 C 
BRANCH  22  24
HETATM   24  C   UNL     1     -46.353 -51.005  16.792  1.00  0.00     0.391 C 
HETATM   25  F   UNL     1     -46.346 -51.654  17.978  1.00  0.00    -0.171 F 
HETATM   26  F   UNL     1     -45.716 -49.829  16.980  1.00  0.00    -0.171 F 
HETATM   27  F   UNL     1     -47.644 -50.721  16.503  1.00  0.00    -0.171 F 
ENDBRANCH  22  24
ENDBRANCH   4  18
TORSDOF 5
ENDMDL
MODEL 4
REMARK VINA RESULT:      -6.0      2.549      3.907
REMARK  5 active torsions:
REMARK  status: ('A' for Active; 'I' for Inactive)
REMARK    1  A    between atoms: O_2  and  C_3 
REMARK    2  A    between atoms: C_3  and  C_4 
REMARK    3  A    between atoms: C_6  and  N_7 
REMARK       I    between atoms: N_7  and  C_8 
REMARK       I    between atoms: C_8  and  N_10 
REMARK    4  A    between atoms: N_10  and  C_11 
REMARK    5  A    between atoms: C_15  and  C_17 
ROOT
HETATM    1  N   UNL     1     -42.354 -46.836  14.311  1.00  0.00    -0.295 N 
HETATM    2  C   UNL     1     -42.880 -47.843  15.082  1.00  0.00     0.322 C 
HETATM    3  O   UNL     1     -43.254 -47.611  16.227  1.00  0.00    -0.247 OA
HETATM    4  N   UNL     1     -42.848 -49.078  14.528  1.00  0.00    -0.338 N 
HETATM    5  H   UNL     1     -42.226 -45.975  14.822  1.00  0.00     0.172 HD
HETATM    6  H   UNL     1     -42.691 -49.080  13.522  1.00  0.00     0.164 HD
ENDROOT
BRANCH   1   7
HETATM    7  C   UNL     1     -41.855 -46.929  13.003  1.00  0.00     0.111 A 
HETATM    8  C   UNL     1     -42.693 -46.604  11.961  1.00  0.00     0.075 A 
HETATM    9  C   UNL     1     -42.145 -46.632  10.688  1.00  0.00     0.037 A 
HETATM   10  N   UNL     1     -40.875 -47.037  10.462  1.00  0.00    -0.354 N 
HETATM   11  C   UNL     1     -40.157 -47.361  11.538  1.00  0.00     0.182 A 
ATOM     12  HN  UNL     1     -40.487 -47.091   9.520  1.00  0.00     0.166 HD
HETATM   13  N   UNL     1     -40.578 -47.312  12.806  1.00  0.00    -0.338 N 
ATOM     14  HN  UNL     1     -39.965 -47.554  13.585  1.00  0.00     0.168 HD
BRANCH   9  15
HETATM   15  C   UNL     1     -42.952 -46.194   9.491  1.00  0.00     0.224 C 
BRANCH  15  16
HETATM   16  O   UNL     1     -43.912 -47.199   9.158  1.00  0.00    -0.390 OA
HETATM   17  C   UNL     1     -43.621 -47.793   7.899  1.00  0.00     0.201 C 
ENDBRANCH  15  16
ENDBRANCH   9  15
ENDBRANCH   1   7
BRANCH   4  18
HETATM   18  C   UNL     1     -43.140 -50.329  15.199  1.00  0.00     0.086 C 
HETATM   19  C   UNL     1     -42.228 -51.437  14.656  1.00  0.00     0.025 C 
HETATM   20  C   UNL     1     -42.530 -51.760  13.196  1.00  0.00     0.003 C 
HETATM   21  C   UNL     1     -43.994 -52.138  13.003  1.00  0.00     0.014 C 
HETATM   22  C   UNL     1     -44.976 -51.112  13.591  1.00  0.00     0.095 C 
HETATM   23  C   UNL     1     -44.610 -50.713  15.034  1.00  0.00     0.038 C 
BRANCH  22  24
HETATM   24  C   UNL     1     -46.422 -51.616  13.512  1.00  0.00     0.391 C 
HETATM   25  F   UNL     1     -47.225 -50.996  14.405  1.00  0.00    -0.171 F 
HETATM   26  F   UNL     1     -46.968 -51.429  12.291  1.00  0.00    -0.171 F 
HETATM   27  F   UNL     1     -46.478 -52.940  13.780  1.00  0.00    -0.171 F 
ENDBRANCH  22  24
ENDBRANCH   4  18
TORSDOF 5
ENDMDL
MODEL 5
REMARK VINA RESULT:      -5.9      4.456      7.495
REMARK  5 active torsions:
REMARK  status: ('A' for Active; 'I' for Inactive)
REMARK    1  A    between atoms: O_2  and  C_3 
REMARK    2  A    between atoms: C_3  and  C_4 
REMARK    3  A    between atoms: C_6  and  N_7 
REMARK       I    between atoms: N_7  and  C_8 
REMARK       I    between atoms: C_8  and  N_10 
REMARK    4  A    between atoms: N_10  and  C_11 
REMARK    5  A    between atoms: C_15  and  C_17 
ROOT
HETATM    1  N   UNL     1     -42.149 -50.793  11.726  1.00  0.00    -0.295 N 
HETATM    2  C   UNL     1     -41.221 -49.789  11.596  1.00  0.00     0.322 C 
HETATM    3  O   UNL     1     -41.491 -48.780  10.954  1.00  0.00    -0.247 OA
HETATM    4  N   UNL     1     -40.001 -50.051  12.123  1.00  0.00    -0.338 N 
HETATM    5  H   UNL     1     -42.975 -50.640  11.167  1.00  0.00     0.172 HD
HETATM    6  H   UNL     1     -39.989 -50.832  12.778  1.00  0.00     0.164 HD
ENDROOT
BRANCH   1   7
HETATM    7  C   UNL     1     -42.000 -52.018  12.394  1.00  0.00     0.111 A 
HETATM    8  C   UNL     1     -42.866 -52.308  13.423  1.00  0.00     0.075 A 
HETATM    9  C   UNL     1     -42.741 -53.558  14.009  1.00  0.00     0.037 A 
HETATM   10  N   UNL     1     -41.765 -54.424  13.652  1.00  0.00    -0.354 N 
HETATM   11  C   UNL     1     -40.958 -54.032  12.666  1.00  0.00     0.182 A 
ATOM     12  HN  UNL     1     -41.653 -55.327  14.113  1.00  0.00     0.166 HD
HETATM   13  N   UNL     1     -41.035 -52.873  12.003  1.00  0.00    -0.338 N 
ATOM     14  HN  UNL     1     -40.395 -52.648  11.241  1.00  0.00     0.168 HD
BRANCH   9  15
HETATM   15  C   UNL     1     -43.708 -54.011  15.075  1.00  0.00     0.224 C 
BRANCH  15  16
HETATM   16  O   UNL     1     -44.283 -55.267  14.705  1.00  0.00    -0.390 OA
HETATM   17  C   UNL     1     -45.386 -55.089  13.826  1.00  0.00     0.201 C 
ENDBRANCH  15  16
ENDBRANCH   9  15
ENDBRANCH   1   7
BRANCH   4  18
HETATM   18  C   UNL     1     -38.800 -49.263  11.942  1.00  0.00     0.086 C 
HETATM   19  C   UNL     1     -37.611 -50.186  11.642  1.00  0.00     0.025 C 
HETATM   20  C   UNL     1     -37.258 -51.068  12.837  1.00  0.00     0.003 C 
HETATM   21  C   UNL     1     -36.978 -50.232  14.080  1.00  0.00     0.014 C 
HETATM   22  C   UNL     1     -38.091 -49.224  14.406  1.00  0.00     0.095 C 
HETATM   23  C   UNL     1     -38.514 -48.402  13.173  1.00  0.00     0.038 C 
BRANCH  22  24
HETATM   24  C   UNL     1     -37.689 -48.305  15.564  1.00  0.00     0.391 C 
HETATM   25  F   UNL     1     -36.598 -47.562  15.269  1.00  0.00    -0.171 F 
HETATM   26  F   UNL     1     -38.672 -47.445  15.908  1.00  0.00    -0.171 F 
HETATM   27  F   UNL     1     -37.387 -49.032  16.664  1.00  0.00    -0.171 F 
ENDBRANCH  22  24
ENDBRANCH   4  18
TORSDOF 5
ENDMDL
MODEL 6
REMARK VINA RESULT:      -5.8      2.612      3.426
REMARK  5 active torsions:
REMARK  status: ('A' for Active; 'I' for Inactive)
REMARK    1  A    between atoms: O_2  and  C_3 
REMARK    2  A    between atoms: C_3  and  C_4 
REMARK    3  A    between atoms: C_6  and  N_7 
REMARK       I    between atoms: N_7  and  C_8 
REMARK       I    between atoms: C_8  and  N_10 
REMARK    4  A    between atoms: N_10  and  C_11 
REMARK    5  A    between atoms: C_15  and  C_17 
ROOT
HETATM    1  N   UNL     1     -40.519 -50.159  14.553  1.00  0.00    -0.295 N 
HETATM    2  C   UNL     1     -41.291 -51.009  15.307  1.00  0.00     0.322 C 
HETATM    3  O   UNL     1     -41.060 -51.151  16.503  1.00  0.00    -0.247 OA
HETATM    4  N   UNL     1     -42.214 -51.723  14.620  1.00  0.00    -0.338 N 
HETATM    5  H   UNL     1     -39.730 -49.788  15.061  1.00  0.00     0.172 HD
HETATM    6  H   UNL     1     -42.412 -51.361  13.689  1.00  0.00     0.164 HD
ENDROOT
BRANCH   1   7
HETATM    7  C   UNL     1     -40.623 -49.900  13.177  1.00  0.00     0.111 A 
HETATM    8  C   UNL     1     -41.625 -49.061  12.747  1.00  0.00     0.075 A 
HETATM    9  C   UNL     1     -41.651 -48.765  11.392  1.00  0.00     0.037 A 
HETATM   10  N   UNL     1     -40.790 -49.332  10.517  1.00  0.00    -0.354 N 
HETATM   11  C   UNL     1     -39.878 -50.156  11.034  1.00  0.00     0.182 A 
ATOM     12  HN  UNL     1     -40.837 -49.140   9.516  1.00  0.00     0.166 HD
HETATM   13  N   UNL     1     -39.738 -50.459  12.329  1.00  0.00    -0.338 N 
ATOM     14  HN  UNL     1     -39.000 -51.082  12.657  1.00  0.00     0.168 HD
BRANCH   9  15
HETATM   15  C   UNL     1     -42.645 -47.776  10.838  1.00  0.00     0.224 C 
BRANCH  15  16
HETATM   16  O   UNL     1     -42.718 -47.906   9.416  1.00  0.00    -0.390 OA
HETATM   17  C   UNL     1     -43.465 -46.843   8.838  1.00  0.00     0.201 C 
ENDBRANCH  15  16
ENDBRANCH   9  15
ENDBRANCH   1   7
BRANCH   4  18
HETATM   18  C   UNL     1     -43.001 -52.826  15.131  1.00  0.00     0.086 C 
HETATM   19  C   UNL     1     -42.944 -54.005  14.151  1.00  0.00     0.025 C 
HETATM   20  C   UNL     1     -43.636 -53.682  12.830  1.00  0.00     0.003 C 
HETATM   21  C   UNL     1     -45.080 -53.247  13.050  1.00  0.00     0.014 C 
HETATM   22  C   UNL     1     -45.230 -52.117  14.081  1.00  0.00     0.095 C 
HETATM   23  C   UNL     1     -44.449 -52.402  15.379  1.00  0.00     0.038 C 
BRANCH  22  24
HETATM   24  C   UNL     1     -46.705 -51.829  14.382  1.00  0.00     0.391 C 
HETATM   25  F   UNL     1     -47.418 -52.964  14.562  1.00  0.00    -0.171 F 
HETATM   26  F   UNL     1     -46.870 -51.078  15.493  1.00  0.00    -0.171 F 
HETATM   27  F   UNL     1     -47.278 -51.160  13.356  1.00  0.00    -0.171 F 
ENDBRANCH  22  24
ENDBRANCH   4  18
TORSDOF 5
ENDMDL
MODEL 7
REMARK VINA RESULT:      -5.8      2.265      3.333
REMARK  5 active torsions:
REMARK  status: ('A' for Active; 'I' for Inactive)
REMARK    1  A    between atoms: O_2  and  C_3 
REMARK    2  A    between atoms: C_3  and  C_4 
REMARK    3  A    between atoms: C_6  and  N_7 
REMARK       I    between atoms: N_7  and  C_8 
REMARK       I    between atoms: C_8  and  N_10 
REMARK    4  A    between atoms: N_10  and  C_11 
REMARK    5  A    between atoms: C_15  and  C_17 
ROOT
HETATM    1  N   UNL     1     -40.082 -48.772  11.219  1.00  0.00    -0.295 N 
HETATM    2  C   UNL     1     -39.912 -49.809  12.103  1.00  0.00     0.322 C 
HETATM    3  O   UNL     1     -38.903 -50.504  12.050  1.00  0.00    -0.247 OA
HETATM    4  N   UNL     1     -40.959 -50.050  12.927  1.00  0.00    -0.338 N 
HETATM    5  H   UNL     1     -39.368 -48.741  10.506  1.00  0.00     0.172 HD
HETATM    6  H   UNL     1     -41.630 -49.285  12.984  1.00  0.00     0.164 HD
ENDROOT
BRANCH   1   7
HETATM    7  C   UNL     1     -41.178 -47.900  11.120  1.00  0.00     0.111 A 
HETATM    8  C   UNL     1     -42.086 -48.109  10.108  1.00  0.00     0.075 A 
HETATM    9  C   UNL     1     -43.197 -47.279  10.087  1.00  0.00     0.037 A 
HETATM   10  N   UNL     1     -43.348 -46.259  10.961  1.00  0.00    -0.354 N 
HETATM   11  C   UNL     1     -42.393 -46.124  11.883  1.00  0.00     0.182 A 
ATOM     12  HN  UNL     1     -44.148 -45.627  10.918  1.00  0.00     0.166 HD
HETATM   13  N   UNL     1     -41.318 -46.906  12.019  1.00  0.00    -0.338 N 
ATOM     14  HN  UNL     1     -40.637 -46.758  12.765  1.00  0.00     0.168 HD
BRANCH   9  15
HETATM   15  C   UNL     1     -44.300 -47.492   9.080  1.00  0.00     0.224 C 
BRANCH  15  16
HETATM   16  O   UNL     1     -45.537 -47.724   9.758  1.00  0.00    -0.390 OA
HETATM   17  C   UNL     1     -46.630 -47.156   9.046  1.00  0.00     0.201 C 
ENDBRANCH  15  16
ENDBRANCH   9  15
ENDBRANCH   1   7
BRANCH   4  18
HETATM   18  C   UNL     1     -41.123 -51.197  13.795  1.00  0.00     0.086 C 
HETATM   19  C   UNL     1     -41.231 -52.476  12.955  1.00  0.00     0.025 C 
HETATM   20  C   UNL     1     -42.508 -52.503  12.119  1.00  0.00     0.003 C 
HETATM   21  C   UNL     1     -43.746 -52.337  12.991  1.00  0.00     0.014 C 
HETATM   22  C   UNL     1     -43.682 -51.116  13.923  1.00  0.00     0.095 C 
HETATM   23  C   UNL     1     -42.350 -51.039  14.694  1.00  0.00     0.038 C 
BRANCH  22  24
HETATM   24  C   UNL     1     -44.874 -51.087  14.886  1.00  0.00     0.391 C 
HETATM   25  F   UNL     1     -44.789 -50.068  15.770  1.00  0.00    -0.171 F 
HETATM   26  F   UNL     1     -46.055 -50.958  14.244  1.00  0.00    -0.171 F 
HETATM   27  F   UNL     1     -44.931 -52.231  15.606  1.00  0.00    -0.171 F 
ENDBRANCH  22  24
ENDBRANCH   4  18
TORSDOF 5
ENDMDL
MODEL 8
REMARK VINA RESULT:      -5.6      2.332      2.989
REMARK  5 active torsions:
REMARK  status: ('A' for Active; 'I' for Inactive)
REMARK    1  A    between atoms: O_2  and  C_3 
REMARK    2  A    between atoms: C_3  and  C_4 
REMARK    3  A    between atoms: C_6  and  N_7 
REMARK       I    between atoms: N_7  and  C_8 
REMARK       I    between atoms: C_8  and  N_10 
REMARK    4  A    between atoms: N_10  and  C_11 
REMARK    5  A    between atoms: C_15  and  C_17 
ROOT
HETATM    1  N   UNL     1     -39.520 -48.901  11.347  1.00  0.00    -0.295 N 
HETATM    2  C   UNL     1     -39.439 -49.902  12.283  1.00  0.00     0.322 C 
HETATM    3  O   UNL     1     -38.387 -50.513  12.441  1.00  0.00    -0.247 OA
HETATM    4  N   UNL     1     -40.599 -50.213  12.907  1.00  0.00    -0.338 N 
HETATM    5  H   UNL     1     -38.690 -48.824  10.778  1.00  0.00     0.172 HD
HETATM    6  H   UNL     1     -41.326 -49.505  12.812  1.00  0.00     0.164 HD
ENDROOT
BRANCH   1   7
HETATM    7  C   UNL     1     -40.643 -48.125  11.017  1.00  0.00     0.111 A 
HETATM    8  C   UNL     1     -40.751 -46.869  11.568  1.00  0.00     0.075 A 
HETATM    9  C   UNL     1     -41.831 -46.101  11.159  1.00  0.00     0.037 A 
HETATM   10  N   UNL     1     -42.781 -46.583  10.326  1.00  0.00    -0.354 N 
HETATM   11  C   UNL     1     -42.597 -47.824   9.875  1.00  0.00     0.182 A 
ATOM     12  HN  UNL     1     -43.593 -46.027  10.058  1.00  0.00     0.166 HD
HETATM   13  N   UNL     1     -41.563 -48.620  10.166  1.00  0.00    -0.338 N 
ATOM     14  HN  UNL     1     -41.475 -49.554   9.764  1.00  0.00     0.168 HD
BRANCH   9  15
HETATM   15  C   UNL     1     -41.983 -44.674  11.626  1.00  0.00     0.224 C 
BRANCH  15  16
HETATM   16  O   UNL     1     -42.383 -43.846  10.531  1.00  0.00    -0.390 OA
HETATM   17  C   UNL     1     -43.175 -42.751  10.976  1.00  0.00     0.201 C 
ENDBRANCH  15  16
ENDBRANCH   9  15
ENDBRANCH   1   7
BRANCH   4  18
HETATM   18  C   UNL     1     -40.833 -51.353  13.769  1.00  0.00     0.086 C 
HETATM   19  C   UNL     1     -41.015 -52.619  12.922  1.00  0.00     0.025 C 
HETATM   20  C   UNL     1     -42.289 -52.566  12.083  1.00  0.00     0.003 C 
HETATM   21  C   UNL     1     -43.518 -52.331  12.954  1.00  0.00     0.014 C 
HETATM   22  C   UNL     1     -43.383 -51.121  13.892  1.00  0.00     0.095 C 
HETATM   23  C   UNL     1     -42.050 -51.126  14.666  1.00  0.00     0.038 C 
BRANCH  22  24
HETATM   24  C   UNL     1     -44.573 -51.025  14.853  1.00  0.00     0.391 C 
HETATM   25  F   UNL     1     -44.683 -52.122  15.637  1.00  0.00    -0.171 F 
HETATM   26  F   UNL     1     -44.490 -49.957  15.675  1.00  0.00    -0.171 F 
HETATM   27  F   UNL     1     -45.732 -50.914  14.165  1.00  0.00    -0.171 F 
ENDBRANCH  22  24
ENDBRANCH   4  18
TORSDOF 5
ENDMDL
MODEL 9
REMARK VINA RESULT:      -5.5      4.994      6.850
REMARK  5 active torsions:
REMARK  status: ('A' for Active; 'I' for Inactive)
REMARK    1  A    between atoms: O_2  and  C_3 
REMARK    2  A    between atoms: C_3  and  C_4 
REMARK    3  A    between atoms: C_6  and  N_7 
REMARK       I    between atoms: N_7  and  C_8 
REMARK       I    between atoms: C_8  and  N_10 
REMARK    4  A    between atoms: N_10  and  C_11 
REMARK    5  A    between atoms: C_15  and  C_17 
ROOT
HETATM    1  N   UNL     1     -46.892 -51.112  14.609  1.00  0.00    -0.295 N 
HETATM    2  C   UNL     1     -46.380 -51.887  13.598  1.00  0.00     0.322 C 
HETATM    3  O   UNL     1     -46.812 -51.772  12.455  1.00  0.00    -0.247 OA
HETATM    4  N   UNL     1     -45.476 -52.821  13.979  1.00  0.00    -0.338 N 
HETATM    5  H   UNL     1     -47.688 -50.563  14.320  1.00  0.00     0.172 HD
HETATM    6  H   UNL     1     -45.085 -52.667  14.907  1.00  0.00     0.164 HD
ENDROOT
BRANCH   1   7
HETATM    7  C   UNL     1     -46.539 -51.132  15.967  1.00  0.00     0.111 A 
HETATM    8  C   UNL     1     -47.435 -51.662  16.866  1.00  0.00     0.075 A 
HETATM    9  C   UNL     1     -47.022 -51.738  18.188  1.00  0.00     0.037 A 
HETATM   10  N   UNL     1     -45.833 -51.242  18.597  1.00  0.00    -0.354 N 
HETATM   11  C   UNL     1     -45.052 -50.720  17.651  1.00  0.00     0.182 A 
ATOM     12  HN  UNL     1     -45.549 -51.265  19.577  1.00  0.00     0.166 HD
HETATM   13  N   UNL     1     -45.337 -50.653  16.347  1.00  0.00    -0.338 N 
ATOM     14  HN  UNL     1     -44.680 -50.260  15.673  1.00  0.00     0.168 HD
BRANCH   9  15
HETATM   15  C   UNL     1     -47.891 -52.396  19.231  1.00  0.00     0.224 C 
BRANCH  15  16
HETATM   16  O   UNL     1     -49.135 -51.700  19.336  1.00  0.00    -0.390 OA
HETATM   17  C   UNL     1     -50.071 -52.433  20.116  1.00  0.00     0.201 C 
ENDBRANCH  15  16
ENDBRANCH   9  15
ENDBRANCH   1   7
BRANCH   4  18
HETATM   18  C   UNL     1     -44.948 -53.891  13.158  1.00  0.00     0.086 C 
HETATM   19  C   UNL     1     -44.697 -55.134  14.021  1.00  0.00     0.025 C 
HETATM   20  C   UNL     1     -43.581 -54.908  15.037  1.00  0.00     0.003 C 
HETATM   21  C   UNL     1     -42.291 -54.468  14.355  1.00  0.00     0.014 C 
HETATM   22  C   UNL     1     -42.473 -53.270  13.409  1.00  0.00     0.095 C 
HETATM   23  C   UNL     1     -43.664 -53.460  12.449  1.00  0.00     0.038 C 
BRANCH  22  24
HETATM   24  C   UNL     1     -41.186 -52.972  12.633  1.00  0.00     0.391 C 
HETATM   25  F   UNL     1     -40.382 -54.055  12.547  1.00  0.00    -0.171 F 
HETATM   26  F   UNL     1     -41.427 -52.557  11.371  1.00  0.00    -0.171 F 
HETATM   27  F   UNL     1     -40.475 -51.999  13.248  1.00  0.00    -0.171 F 
ENDBRANCH  22  24
ENDBRANCH   4  18
TORSDOF 5
ENDMDL
