MODEL 1
REMARK VINA RESULT:      -7.0      0.000      0.000
REMARK  4 active torsions:
REMARK  status: ('A' for Active; 'I' for Inactive)
REMARK    1  A    between atoms: C_8  and  N_9 
REMARK       I    between atoms: N_9  and  C_10 
REMARK       I    between atoms: C_10  and  N_12 
REMARK    2  A    between atoms: N_12  and  C_13 
REMARK    3  A    between atoms: C_13  and  C_14 
REMARK       I    between atoms: C_14  and  N_16 
REMARK    4  A    between atoms: N_16  and  C_17 
ROOT
HETATM    1  N   UNL     1     -39.749 -49.005  11.329  1.00  0.00    -0.295 N 
HETATM    2  C   UNL     1     -39.689 -50.362  11.526  1.00  0.00     0.322 C 
HETATM    3  O   UNL     1     -38.601 -50.935  11.625  1.00  0.00    -0.247 OA
HETATM    4  N   UNL     1     -40.874 -51.007  11.605  1.00  0.00    -0.334 N 
HETATM    5  H   UNL     1     -38.848 -48.555  11.284  1.00  0.00     0.172 HD
HETATM    6  H   UNL     1     -41.708 -50.429  11.466  1.00  0.00     0.164 HD
ENDROOT
BRANCH   1   7
HETATM    7  C   UNL     1     -40.902 -48.221  11.176  1.00  0.00     0.109 A 
HETATM    8  N   UNL     1     -41.564 -48.275  10.003  1.00  0.00    -0.346 N 
HETATM    9  C   UNL     1     -42.670 -47.529   9.819  1.00  0.00     0.007 A 
ATOM     10  HN  UNL     1     -41.227 -48.880   9.255  1.00  0.00     0.167 HD
HETATM   11  C   UNL     1     -43.161 -46.696  10.809  1.00  0.00     0.031 A 
HETATM   12  C   UNL     1     -43.332 -47.657   8.483  1.00  0.00     0.068 C 
HETATM   13  C   UNL     1     -42.485 -46.632  12.031  1.00  0.00    -0.057 A 
HETATM   14  C   UNL     1     -42.991 -45.744  13.127  1.00  0.00     0.048 C 
HETATM   15  C   UNL     1     -41.332 -47.410  12.215  1.00  0.00     0.055 A 
ENDBRANCH   1   7
BRANCH   4  16
HETATM   16  C   UNL     1     -41.093 -52.420  11.752  1.00  0.00     0.227 C 
BRANCH  16  17
HETATM   17  C   UNL     1     -42.091 -52.632  12.903  1.00  0.00     0.235 C 
HETATM   18  O   UNL     1     -41.749 -52.931  14.045  1.00  0.00    -0.272 OA
HETATM   19  N   UNL     1     -43.405 -52.454  12.548  1.00  0.00    -0.355 N 
HETATM   20  H   UNL     1     -43.611 -52.189  11.593  1.00  0.00     0.162 HD
BRANCH  19  21
HETATM   21  C   UNL     1     -44.526 -52.603  13.460  1.00  0.00     0.084 C 
HETATM   22  C   UNL     1     -45.586 -51.501  13.338  1.00  0.00     0.025 C 
HETATM   23  C   UNL     1     -46.543 -51.586  14.528  1.00  0.00     0.002 C 
HETATM   24  C   UNL     1     -47.172 -52.974  14.676  1.00  0.00     0.000 C 
HETATM   25  C   UNL     1     -46.162 -54.121  14.577  1.00  0.00     0.002 C 
HETATM   26  C   UNL     1     -45.221 -53.968  13.381  1.00  0.00     0.025 C 
ENDBRANCH  19  21
ENDBRANCH  16  17
ENDBRANCH   4  16
TORSDOF 4
ENDMDL
MODEL 2
REMARK VINA RESULT:      -6.8      1.995      6.714
REMARK  4 active torsions:
REMARK  status: ('A' for Active; 'I' for Inactive)
REMARK    1  A    between atoms: C_8  and  N_9 
REMARK       I    between atoms: N_9  and  C_10 
REMARK       I    between atoms: C_10  and  N_12 
REMARK    2  A    between atoms: N_12  and  C_13 
REMARK    3  A    between atoms: C_13  and  C_14 
REMARK       I    between atoms: C_14  and  N_16 
REMARK    4  A    between atoms: N_16  and  C_17 
ROOT
HETATM    1  N   UNL     1     -42.825 -53.141  12.690  1.00  0.00    -0.295 N 
HETATM    2  C   UNL     1     -41.738 -52.523  12.124  1.00  0.00     0.322 C 
HETATM    3  O   UNL     1     -40.711 -53.159  11.881  1.00  0.00    -0.247 OA
HETATM    4  N   UNL     1     -41.874 -51.205  11.856  1.00  0.00    -0.334 N 
HETATM    5  H   UNL     1     -42.694 -54.124  12.868  1.00  0.00     0.172 HD
HETATM    6  H   UNL     1     -42.760 -50.779  12.142  1.00  0.00     0.164 HD
ENDROOT
BRANCH   1   7
HETATM    7  C   UNL     1     -44.048 -52.551  13.045  1.00  0.00     0.109 A 
HETATM    8  N   UNL     1     -45.014 -52.464  12.109  1.00  0.00    -0.346 N 
HETATM    9  C   UNL     1     -46.197 -51.896  12.414  1.00  0.00     0.007 A 
ATOM     10  HN  UNL     1     -44.850 -52.828  11.171  1.00  0.00     0.167 HD
HETATM   11  C   UNL     1     -46.460 -51.392  13.675  1.00  0.00     0.031 A 
HETATM   12  C   UNL     1     -47.204 -51.845  11.308  1.00  0.00     0.068 C 
HETATM   13  C   UNL     1     -45.467 -51.477  14.655  1.00  0.00    -0.057 A 
HETATM   14  C   UNL     1     -45.720 -50.945  16.033  1.00  0.00     0.048 C 
HETATM   15  C   UNL     1     -44.236 -52.067  14.330  1.00  0.00     0.055 A 
ENDBRANCH   1   7
BRANCH   4  16
HETATM   16  C   UNL     1     -40.881 -50.315  11.319  1.00  0.00     0.227 C 
BRANCH  16  17
HETATM   17  C   UNL     1     -41.173 -48.900  11.843  1.00  0.00     0.235 C 
HETATM   18  O   UNL     1     -41.747 -48.679  12.907  1.00  0.00    -0.272 OA
HETATM   19  N   UNL     1     -40.731 -47.894  11.020  1.00  0.00    -0.355 N 
HETATM   20  H   UNL     1     -40.249 -48.150  10.168  1.00  0.00     0.162 HD
BRANCH  19  21
HETATM   21  C   UNL     1     -40.895 -46.477  11.299  1.00  0.00     0.084 C 
HETATM   22  C   UNL     1     -39.809 -45.586  10.684  1.00  0.00     0.025 C 
HETATM   23  C   UNL     1     -39.904 -44.183  11.284  1.00  0.00     0.002 C 
HETATM   24  C   UNL     1     -41.301 -43.575  11.131  1.00  0.00     0.000 C 
HETATM   25  C   UNL     1     -42.434 -44.526  11.528  1.00  0.00     0.002 C 
HETATM   26  C   UNL     1     -42.270 -45.917  10.914  1.00  0.00     0.025 C 
ENDBRANCH  19  21
ENDBRANCH  16  17
ENDBRANCH   4  16
TORSDOF 4
ENDMDL
MODEL 3
REMARK VINA RESULT:      -6.6      1.656      6.394
REMARK  4 active torsions:
REMARK  status: ('A' for Active; 'I' for Inactive)
REMARK    1  A    between atoms: C_8  and  N_9 
REMARK       I    between atoms: N_9  and  C_10 
REMARK       I    between atoms: C_10  and  N_12 
REMARK    2  A    between atoms: N_12  and  C_13 
REMARK    3  A    between atoms: C_13  and  C_14 
REMARK       I    between atoms: C_14  and  N_16 
REMARK    4  A    between atoms: N_16  and  C_17 
ROOT
HETATM    1  N   UNL     1     -43.468 -53.826  13.303  1.00  0.00    -0.295 N 
HETATM    2  C   UNL     1     -42.231 -53.436  12.854  1.00  0.00     0.322 C 
HETATM    3  O   UNL     1     -41.305 -54.247  12.785  1.00  0.00    -0.247 OA
HETATM    4  N   UNL     1     -42.105 -52.138  12.502  1.00  0.00    -0.334 N 
HETATM    5  H   UNL     1     -43.529 -54.801  13.549  1.00  0.00     0.172 HD
HETATM    6  H   UNL     1     -42.934 -51.553  12.644  1.00  0.00     0.164 HD
ENDROOT
BRANCH   1   7
HETATM    7  C   UNL     1     -44.606 -53.019  13.459  1.00  0.00     0.109 A 
HETATM    8  N   UNL     1     -45.364 -52.760  12.375  1.00  0.00    -0.346 N 
HETATM    9  C   UNL     1     -46.458 -51.983  12.489  1.00  0.00     0.007 A 
ATOM     10  HN  UNL     1     -45.108 -53.151  11.469  1.00  0.00     0.167 HD
HETATM   11  C   UNL     1     -46.841 -51.435  13.700  1.00  0.00     0.031 A 
HETATM   12  C   UNL     1     -47.231 -51.752  11.228  1.00  0.00     0.068 C 
HETATM   13  C   UNL     1     -46.065 -51.698  14.833  1.00  0.00    -0.057 A 
HETATM   14  C   UNL     1     -46.452 -51.124  16.162  1.00  0.00     0.048 C 
HETATM   15  C   UNL     1     -44.924 -52.505  14.707  1.00  0.00     0.055 A 
ENDBRANCH   1   7
BRANCH   4  16
HETATM   16  C   UNL     1     -40.917 -51.463  12.055  1.00  0.00     0.227 C 
BRANCH  16  17
HETATM   17  C   UNL     1     -41.202 -49.952  12.037  1.00  0.00     0.235 C 
HETATM   18  O   UNL     1     -41.415 -49.293  13.052  1.00  0.00    -0.272 OA
HETATM   19  N   UNL     1     -41.193 -49.394  10.782  1.00  0.00    -0.355 N 
HETATM   20  H   UNL     1     -40.991 -49.994   9.993  1.00  0.00     0.162 HD
BRANCH  19  21
HETATM   21  C   UNL     1     -41.439 -47.988  10.511  1.00  0.00     0.084 C 
HETATM   22  C   UNL     1     -42.867 -47.527  10.829  1.00  0.00     0.025 C 
HETATM   23  C   UNL     1     -43.097 -46.140  10.229  1.00  0.00     0.002 C 
HETATM   24  C   UNL     1     -42.049 -45.122  10.688  1.00  0.00     0.000 C 
HETATM   25  C   UNL     1     -40.610 -45.636  10.593  1.00  0.00     0.002 C 
HETATM   26  C   UNL     1     -40.449 -47.035  11.190  1.00  0.00     0.025 C 
ENDBRANCH  19  21
ENDBRANCH  16  17
ENDBRANCH   4  16
TORSDOF 4
ENDMDL
MODEL 4
REMARK VINA RESULT:      -6.4      1.587      6.347
REMARK  4 active torsions:
REMARK  status: ('A' for Active; 'I' for Inactive)
REMARK    1  A    between atoms: C_8  and  N_9 
REMARK       I    between atoms: N_9  and  C_10 
REMARK       I    between atoms: C_10  and  N_12 
REMARK    2  A    between atoms: N_12  and  C_13 
REMARK    3  A    between atoms: C_13  and  C_14 
REMARK       I    between atoms: C_14  and  N_16 
REMARK    4  A    between atoms: N_16  and  C_17 
ROOT
HETATM    1  N   UNL     1     -43.324 -53.809  13.233  1.00  0.00    -0.295 N 
HETATM    2  C   UNL     1     -42.014 -53.417  13.109  1.00  0.00     0.322 C 
HETATM    3  O   UNL     1     -41.115 -54.255  13.005  1.00  0.00    -0.247 OA
HETATM    4  N   UNL     1     -41.788 -52.085  13.106  1.00  0.00    -0.334 N 
HETATM    5  H   UNL     1     -43.457 -54.808  13.222  1.00  0.00     0.172 HD
HETATM    6  H   UNL     1     -42.611 -51.491  13.242  1.00  0.00     0.164 HD
ENDROOT
BRANCH   1   7
HETATM    7  C   UNL     1     -44.446 -52.981  13.382  1.00  0.00     0.109 A 
HETATM    8  N   UNL     1     -44.685 -52.434  14.591  1.00  0.00    -0.346 N 
HETATM    9  C   UNL     1     -45.758 -51.640  14.771  1.00  0.00     0.007 A 
ATOM     10  HN  UNL     1     -44.052 -52.621  15.368  1.00  0.00     0.167 HD
HETATM   11  C   UNL     1     -46.638 -51.360  13.742  1.00  0.00     0.031 A 
HETATM   12  C   UNL     1     -45.937 -51.083  16.149  1.00  0.00     0.068 C 
HETATM   13  C   UNL     1     -46.402 -51.920  12.482  1.00  0.00    -0.057 A 
HETATM   14  C   UNL     1     -47.334 -51.634  11.344  1.00  0.00     0.048 C 
HETATM   15  C   UNL     1     -45.284 -52.748  12.303  1.00  0.00     0.055 A 
ENDBRANCH   1   7
BRANCH   4  16
HETATM   16  C   UNL     1     -40.519 -51.413  13.044  1.00  0.00     0.227 C 
BRANCH  16  17
HETATM   17  C   UNL     1     -40.617 -50.300  11.988  1.00  0.00     0.235 C 
HETATM   18  O   UNL     1     -39.791 -50.145  11.091  1.00  0.00    -0.272 OA
HETATM   19  N   UNL     1     -41.716 -49.489  12.127  1.00  0.00    -0.355 N 
HETATM   20  H   UNL     1     -42.366 -49.687  12.878  1.00  0.00     0.162 HD
BRANCH  19  21
HETATM   21  C   UNL     1     -42.022 -48.368  11.255  1.00  0.00     0.084 C 
HETATM   22  C   UNL     1     -43.520 -48.072  11.113  1.00  0.00     0.025 C 
HETATM   23  C   UNL     1     -43.737 -47.094   9.958  1.00  0.00     0.002 C 
HETATM   24  C   UNL     1     -42.911 -45.815  10.110  1.00  0.00     0.000 C 
HETATM   25  C   UNL     1     -41.445 -46.069  10.476  1.00  0.00     0.002 C 
HETATM   26  C   UNL     1     -41.294 -47.070  11.622  1.00  0.00     0.025 C 
ENDBRANCH  19  21
ENDBRANCH  16  17
ENDBRANCH   4  16
TORSDOF 4
ENDMDL
MODEL 5
REMARK VINA RESULT:      -6.4      0.824      2.197
REMARK  4 active torsions:
REMARK  status: ('A' for Active; 'I' for Inactive)
REMARK    1  A    between atoms: C_8  and  N_9 
REMARK       I    between atoms: N_9  and  C_10 
REMARK       I    between atoms: C_10  and  N_12 
REMARK    2  A    between atoms: N_12  and  C_13 
REMARK    3  A    between atoms: C_13  and  C_14 
REMARK       I    between atoms: C_14  and  N_16 
REMARK    4  A    between atoms: N_16  and  C_17 
ROOT
HETATM    1  N   UNL     1     -39.876 -48.987  11.484  1.00  0.00    -0.295 N 
HETATM    2  C   UNL     1     -39.726 -50.345  11.612  1.00  0.00     0.322 C 
HETATM    3  O   UNL     1     -38.603 -50.848  11.696  1.00  0.00    -0.247 OA
HETATM    4  N   UNL     1     -40.866 -51.071  11.641  1.00  0.00    -0.334 N 
HETATM    5  H   UNL     1     -39.007 -48.476  11.474  1.00  0.00     0.172 HD
HETATM    6  H   UNL     1     -41.735 -50.544  11.520  1.00  0.00     0.164 HD
ENDROOT
BRANCH   1   7
HETATM    7  C   UNL     1     -41.077 -48.274  11.354  1.00  0.00     0.109 A 
HETATM    8  N   UNL     1     -41.549 -47.610  12.427  1.00  0.00    -0.346 N 
HETATM    9  C   UNL     1     -42.704 -46.922  12.340  1.00  0.00     0.007 A 
ATOM     10  HN  UNL     1     -41.032 -47.628  13.306  1.00  0.00     0.167 HD
HETATM   11  C   UNL     1     -43.434 -46.871  11.166  1.00  0.00     0.031 A 
HETATM   12  C   UNL     1     -43.145 -46.220  13.586  1.00  0.00     0.068 C 
HETATM   13  C   UNL     1     -42.955 -47.554  10.044  1.00  0.00    -0.057 A 
HETATM   14  C   UNL     1     -43.719 -47.516   8.755  1.00  0.00     0.048 C 
HETATM   15  C   UNL     1     -41.753 -48.271  10.144  1.00  0.00     0.055 A 
ENDBRANCH   1   7
BRANCH   4  16
HETATM   16  C   UNL     1     -40.991 -52.501  11.713  1.00  0.00     0.227 C 
BRANCH  16  17
HETATM   17  C   UNL     1     -42.148 -52.833  12.669  1.00  0.00     0.235 C 
HETATM   18  O   UNL     1     -42.008 -52.951  13.884  1.00  0.00    -0.272 OA
HETATM   19  N   UNL     1     -43.364 -52.982  12.048  1.00  0.00    -0.355 N 
HETATM   20  H   UNL     1     -43.409 -52.851  11.046  1.00  0.00     0.162 HD
BRANCH  19  21
HETATM   21  C   UNL     1     -44.602 -53.301  12.739  1.00  0.00     0.084 C 
HETATM   22  C   UNL     1     -44.513 -54.529  13.653  1.00  0.00     0.025 C 
HETATM   23  C   UNL     1     -45.921 -54.946  14.080  1.00  0.00     0.002 C 
HETATM   24  C   UNL     1     -46.699 -53.800  14.731  1.00  0.00     0.000 C 
HETATM   25  C   UNL     1     -46.624 -52.484  13.952  1.00  0.00     0.002 C 
HETATM   26  C   UNL     1     -45.194 -52.133  13.536  1.00  0.00     0.025 C 
ENDBRANCH  19  21
ENDBRANCH  16  17
ENDBRANCH   4  16
TORSDOF 4
ENDMDL
MODEL 6
REMARK VINA RESULT:      -6.1      2.815      3.763
REMARK  4 active torsions:
REMARK  status: ('A' for Active; 'I' for Inactive)
REMARK    1  A    between atoms: C_8  and  N_9 
REMARK       I    between atoms: N_9  and  C_10 
REMARK       I    between atoms: C_10  and  N_12 
REMARK    2  A    between atoms: N_12  and  C_13 
REMARK    3  A    between atoms: C_13  and  C_14 
REMARK       I    between atoms: C_14  and  N_16 
REMARK    4  A    between atoms: N_16  and  C_17 
ROOT
HETATM    1  N   UNL     1     -40.374 -50.694  11.211  1.00  0.00    -0.295 N 
HETATM    2  C   UNL     1     -41.122 -51.698  11.776  1.00  0.00     0.322 C 
HETATM    3  O   UNL     1     -40.720 -52.864  11.761  1.00  0.00    -0.247 OA
HETATM    4  N   UNL     1     -42.294 -51.326  12.336  1.00  0.00    -0.334 N 
HETATM    5  H   UNL     1     -39.503 -51.005  10.812  1.00  0.00     0.172 HD
HETATM    6  H   UNL     1     -42.538 -50.335  12.247  1.00  0.00     0.164 HD
ENDROOT
BRANCH   1   7
HETATM    7  C   UNL     1     -40.706 -49.334  11.129  1.00  0.00     0.109 A 
HETATM    8  N   UNL     1     -41.668 -48.958  10.263  1.00  0.00    -0.346 N 
HETATM    9  C   UNL     1     -42.006 -47.659  10.153  1.00  0.00     0.007 A 
ATOM     10  HN  UNL     1     -42.140 -49.657   9.691  1.00  0.00     0.167 HD
HETATM   11  C   UNL     1     -41.391 -46.679  10.913  1.00  0.00     0.031 A 
HETATM   12  C   UNL     1     -43.082 -47.342   9.163  1.00  0.00     0.068 C 
HETATM   13  C   UNL     1     -40.393 -47.055  11.817  1.00  0.00    -0.057 A 
HETATM   14  C   UNL     1     -39.709 -46.021  12.659  1.00  0.00     0.048 C 
HETATM   15  C   UNL     1     -40.044 -48.410  11.924  1.00  0.00     0.055 A 
ENDBRANCH   1   7
BRANCH   4  16
HETATM   16  C   UNL     1     -43.283 -52.176  12.941  1.00  0.00     0.227 C 
BRANCH  16  17
HETATM   17  C   UNL     1     -42.735 -52.660  14.293  1.00  0.00     0.235 C 
HETATM   18  O   UNL     1     -42.816 -52.003  15.329  1.00  0.00    -0.272 OA
HETATM   19  N   UNL     1     -42.148 -53.900  14.250  1.00  0.00    -0.355 N 
HETATM   20  H   UNL     1     -42.134 -54.393  13.366  1.00  0.00     0.162 HD
BRANCH  19  21
HETATM   21  C   UNL     1     -41.555 -54.566  15.397  1.00  0.00     0.084 C 
HETATM   22  C   UNL     1     -42.334 -55.794  15.883  1.00  0.00     0.025 C 
HETATM   23  C   UNL     1     -41.803 -56.223  17.252  1.00  0.00     0.002 C 
HETATM   24  C   UNL     1     -40.292 -56.468  17.242  1.00  0.00     0.000 C 
HETATM   25  C   UNL     1     -39.492 -55.356  16.558  1.00  0.00     0.002 C 
HETATM   26  C   UNL     1     -40.085 -54.957  15.206  1.00  0.00     0.025 C 
ENDBRANCH  19  21
ENDBRANCH  16  17
ENDBRANCH   4  16
TORSDOF 4
ENDMDL
MODEL 7
REMARK VINA RESULT:      -5.9      3.269      5.307
REMARK  4 active torsions:
REMARK  status: ('A' for Active; 'I' for Inactive)
REMARK    1  A    between atoms: C_8  and  N_9 
REMARK       I    between atoms: N_9  and  C_10 
REMARK       I    between atoms: C_10  and  N_12 
REMARK    2  A    between atoms: N_12  and  C_13 
REMARK    3  A    between atoms: C_13  and  C_14 
REMARK       I    between atoms: C_14  and  N_16 
REMARK    4  A    between atoms: N_16  and  C_17 
ROOT
HETATM    1  N   UNL     1     -42.957 -50.156  13.174  1.00  0.00    -0.295 N 
HETATM    2  C   UNL     1     -41.859 -50.870  12.764  1.00  0.00     0.322 C 
HETATM    3  O   UNL     1     -40.811 -50.294  12.464  1.00  0.00    -0.247 OA
HETATM    4  N   UNL     1     -42.006 -52.213  12.716  1.00  0.00    -0.334 N 
HETATM    5  H   UNL     1     -42.811 -49.159  13.206  1.00  0.00     0.172 HD
HETATM    6  H   UNL     1     -42.937 -52.571  12.948  1.00  0.00     0.164 HD
ENDROOT
BRANCH   1   7
HETATM    7  C   UNL     1     -44.218 -50.663  13.523  1.00  0.00     0.109 A 
HETATM    8  N   UNL     1     -45.072 -50.997  12.535  1.00  0.00    -0.346 N 
HETATM    9  C   UNL     1     -46.293 -51.480  12.835  1.00  0.00     0.007 A 
ATOM     10  HN  UNL     1     -44.794 -50.883  11.561  1.00  0.00     0.167 HD
HETATM   11  C   UNL     1     -46.708 -51.650  14.144  1.00  0.00     0.031 A 
HETATM   12  C   UNL     1     -47.169 -51.818  11.670  1.00  0.00     0.068 C 
HETATM   13  C   UNL     1     -45.831 -51.310  15.179  1.00  0.00    -0.057 A 
HETATM   14  C   UNL     1     -46.246 -51.486  16.608  1.00  0.00     0.048 C 
HETATM   15  C   UNL     1     -44.562 -50.805  14.859  1.00  0.00     0.055 A 
ENDBRANCH   1   7
BRANCH   4  16
HETATM   16  C   UNL     1     -41.041 -53.183  12.275  1.00  0.00     0.227 C 
BRANCH  16  17
HETATM   17  C   UNL     1     -40.371 -53.792  13.517  1.00  0.00     0.235 C 
HETATM   18  O   UNL     1     -39.156 -53.948  13.620  1.00  0.00    -0.272 OA
HETATM   19  N   UNL     1     -41.247 -54.143  14.513  1.00  0.00    -0.355 N 
HETATM   20  H   UNL     1     -42.233 -53.967  14.367  1.00  0.00     0.162 HD
BRANCH  19  21
HETATM   21  C   UNL     1     -40.853 -54.740  15.778  1.00  0.00     0.084 C 
HETATM   22  C   UNL     1     -40.506 -53.722  16.872  1.00  0.00     0.025 C 
HETATM   23  C   UNL     1     -39.823 -54.442  18.035  1.00  0.00     0.002 C 
HETATM   24  C   UNL     1     -40.659 -55.604  18.577  1.00  0.00     0.000 C 
HETATM   25  C   UNL     1     -41.215 -56.524  17.485  1.00  0.00     0.002 C 
HETATM   26  C   UNL     1     -41.865 -55.745  16.341  1.00  0.00     0.025 C 
ENDBRANCH  19  21
ENDBRANCH  16  17
ENDBRANCH   4  16
TORSDOF 4
ENDMDL
MODEL 8
REMARK VINA RESULT:      -5.9      3.885      6.403
REMARK  4 active torsions:
REMARK  status: ('A' for Active; 'I' for Inactive)
REMARK    1  A    between atoms: C_8  and  N_9 
REMARK       I    between atoms: N_9  and  C_10 
REMARK       I    between atoms: C_10  and  N_12 
REMARK    2  A    between atoms: N_12  and  C_13 
REMARK    3  A    between atoms: C_13  and  C_14 
REMARK       I    between atoms: C_14  and  N_16 
REMARK    4  A    between atoms: N_16  and  C_17 
ROOT
HETATM    1  N   UNL     1     -42.964 -50.723  13.536  1.00  0.00    -0.295 N 
HETATM    2  C   UNL     1     -41.941 -51.631  13.422  1.00  0.00     0.322 C 
HETATM    3  O   UNL     1     -40.780 -51.252  13.261  1.00  0.00    -0.247 OA
HETATM    4  N   UNL     1     -42.290 -52.935  13.502  1.00  0.00    -0.334 N 
HETATM    5  H   UNL     1     -42.668 -49.761  13.481  1.00  0.00     0.172 HD
HETATM    6  H   UNL     1     -43.292 -53.125  13.595  1.00  0.00     0.164 HD
ENDROOT
BRANCH   1   7
HETATM    7  C   UNL     1     -44.330 -50.999  13.698  1.00  0.00     0.109 A 
HETATM    8  N   UNL     1     -45.071 -51.244  12.599  1.00  0.00    -0.346 N 
HETATM    9  C   UNL     1     -46.387 -51.506  12.718  1.00  0.00     0.007 A 
ATOM     10  HN  UNL     1     -44.635 -51.232  11.677  1.00  0.00     0.167 HD
HETATM   11  C   UNL     1     -47.016 -51.534  13.950  1.00  0.00     0.031 A 
HETATM   12  C   UNL     1     -47.123 -51.762  11.440  1.00  0.00     0.068 C 
HETATM   13  C   UNL     1     -46.259 -51.283  15.098  1.00  0.00    -0.057 A 
HETATM   14  C   UNL     1     -46.907 -51.310  16.449  1.00  0.00     0.048 C 
HETATM   15  C   UNL     1     -44.889 -51.009  14.966  1.00  0.00     0.055 A 
ENDBRANCH   1   7
BRANCH   4  16
HETATM   16  C   UNL     1     -41.432 -54.080  13.363  1.00  0.00     0.227 C 
BRANCH  16  17
HETATM   17  C   UNL     1     -40.982 -54.514  14.767  1.00  0.00     0.235 C 
HETATM   18  O   UNL     1     -41.720 -55.088  15.565  1.00  0.00    -0.272 OA
HETATM   19  N   UNL     1     -39.675 -54.212  15.057  1.00  0.00    -0.355 N 
HETATM   20  H   UNL     1     -39.120 -53.756  14.344  1.00  0.00     0.162 HD
BRANCH  19  21
HETATM   21  C   UNL     1     -39.025 -54.518  16.320  1.00  0.00     0.084 C 
HETATM   22  C   UNL     1     -37.991 -55.648  16.236  1.00  0.00     0.025 C 
HETATM   23  C   UNL     1     -37.603 -56.085  17.649  1.00  0.00     0.002 C 
HETATM   24  C   UNL     1     -37.110 -54.918  18.508  1.00  0.00     0.000 C 
HETATM   25  C   UNL     1     -38.008 -53.680  18.439  1.00  0.00     0.002 C 
HETATM   26  C   UNL     1     -38.379 -53.307  17.003  1.00  0.00     0.025 C 
ENDBRANCH  19  21
ENDBRANCH  16  17
ENDBRANCH   4  16
TORSDOF 4
ENDMDL
MODEL 9
REMARK VINA RESULT:      -5.8      1.924      2.415
REMARK  4 active torsions:
REMARK  status: ('A' for Active; 'I' for Inactive)
REMARK    1  A    between atoms: C_8  and  N_9 
REMARK       I    between atoms: N_9  and  C_10 
REMARK       I    between atoms: C_10  and  N_12 
REMARK    2  A    between atoms: N_12  and  C_13 
REMARK    3  A    between atoms: C_13  and  C_14 
REMARK       I    between atoms: C_14  and  N_16 
REMARK    4  A    between atoms: N_16  and  C_17 
ROOT
HETATM    1  N   UNL     1     -40.958 -50.821  12.119  1.00  0.00    -0.295 N 
HETATM    2  C   UNL     1     -41.483 -52.089  12.142  1.00  0.00     0.322 C 
HETATM    3  O   UNL     1     -40.744 -53.075  12.103  1.00  0.00    -0.247 OA
HETATM    4  N   UNL     1     -42.830 -52.177  12.212  1.00  0.00    -0.334 N 
HETATM    5  H   UNL     1     -39.952 -50.793  12.075  1.00  0.00     0.172 HD
HETATM    6  H   UNL     1     -43.338 -51.287  12.197  1.00  0.00     0.164 HD
ENDROOT
BRANCH   1   7
HETATM    7  C   UNL     1     -41.666 -49.610  12.133  1.00  0.00     0.109 A 
HETATM    8  N   UNL     1     -42.077 -49.092  10.959  1.00  0.00    -0.346 N 
HETATM    9  C   UNL     1     -42.753 -47.927  10.936  1.00  0.00     0.007 A 
ATOM     10  HN  UNL     1     -41.877 -49.582  10.088  1.00  0.00     0.167 HD
HETATM   11  C   UNL     1     -43.047 -47.232  12.095  1.00  0.00     0.031 A 
HETATM   12  C   UNL     1     -43.164 -47.434   9.584  1.00  0.00     0.068 C 
HETATM   13  C   UNL     1     -42.628 -47.759  13.321  1.00  0.00    -0.057 A 
HETATM   14  C   UNL     1     -42.932 -47.034  14.597  1.00  0.00     0.048 C 
HETATM   15  C   UNL     1     -41.922 -48.971  13.337  1.00  0.00     0.055 A 
ENDBRANCH   1   7
BRANCH   4  16
HETATM   16  C   UNL     1     -43.632 -53.369  12.197  1.00  0.00     0.227 C 
BRANCH  16  17
HETATM   17  C   UNL     1     -44.605 -53.308  13.386  1.00  0.00     0.235 C 
HETATM   18  O   UNL     1     -45.436 -54.182  13.624  1.00  0.00    -0.272 OA
HETATM   19  N   UNL     1     -44.464 -52.190  14.170  1.00  0.00    -0.355 N 
HETATM   20  H   UNL     1     -43.745 -51.521  13.926  1.00  0.00     0.162 HD
BRANCH  19  21
HETATM   21  C   UNL     1     -45.271 -51.907  15.345  1.00  0.00     0.084 C 
HETATM   22  C   UNL     1     -46.773 -51.784  15.061  1.00  0.00     0.025 C 
HETATM   23  C   UNL     1     -47.473 -51.194  16.285  1.00  0.00     0.002 C 
HETATM   24  C   UNL     1     -47.194 -51.992  17.561  1.00  0.00     0.000 C 
HETATM   25  C   UNL     1     -45.714 -52.330  17.764  1.00  0.00     0.002 C 
HETATM   26  C   UNL     1     -45.066 -52.895  16.500  1.00  0.00     0.025 C 
ENDBRANCH  19  21
ENDBRANCH  16  17
ENDBRANCH   4  16
TORSDOF 4
ENDMDL
