MODEL 1
REMARK VINA RESULT:      -5.7      0.000      0.000
REMARK  3 active torsions:
REMARK  status: ('A' for Active; 'I' for Inactive)
REMARK       I    between atoms: C_2  and  N_3 
REMARK       I    between atoms: C_2  and  N_9 
REMARK    1  A    between atoms: N_3  and  C_4 
REMARK    2  A    between atoms: C_4  and  C_5 
REMARK    3  A    between atoms: N_9  and  C_10 
ROOT
HETATM    1  O   UNL     1     -45.005 -54.651  12.669  1.00  0.00    -0.247 OA
HETATM    2  C   UNL     1     -44.286 -53.653  12.612  1.00  0.00     0.322 C 
HETATM    3  N   UNL     1     -44.772 -52.379  12.606  1.00  0.00    -0.342 N 
HETATM    4  N   UNL     1     -42.936 -53.804  12.514  1.00  0.00    -0.289 N 
HETATM    5  H   UNL     1     -44.100 -51.641  12.416  1.00  0.00     0.164 HD
HETATM    6  H   UNL     1     -42.606 -54.753  12.439  1.00  0.00     0.172 HD
ENDROOT
BRANCH   3   7
HETATM    7  C   UNL     1     -46.185 -52.096  12.500  1.00  0.00     0.129 C 
BRANCH   7   8
HETATM    8  C   UNL     1     -46.614 -51.462  13.807  1.00  0.00     0.003 C 
HETATM    9  C   UNL     1     -45.450 -51.011  14.727  1.00  0.00     0.006 C 
HETATM   10  C   UNL     1     -46.329 -51.422  15.924  1.00  0.00     0.001 C 
HETATM   11  C   UNL     1     -47.046 -52.399  14.971  1.00  0.00     0.006 C 
ENDBRANCH   7   8
ENDBRANCH   3   7
BRANCH   4  12
HETATM   12  C   UNL     1     -42.016 -52.797  12.455  1.00  0.00     0.152 A 
HETATM   13  N   UNL     1     -41.450 -52.276  11.393  1.00  0.00    -0.346 N 
HETATM   14  C   UNL     1     -40.578 -51.281  11.793  1.00  0.00     0.097 A 
ATOM     15  HN  UNL     1     -41.625 -52.559  10.429  1.00  0.00     0.167 HD
HETATM   16  C   UNL     1     -40.448 -51.116  13.157  1.00  0.00     0.070 A 
HETATM   17  S   UNL     1     -41.532 -52.174  13.967  1.00  0.00    -0.064 SA
ENDBRANCH   4  12
TORSDOF 3
ENDMDL
MODEL 2
REMARK VINA RESULT:      -5.3      2.638      3.242
REMARK  3 active torsions:
REMARK  status: ('A' for Active; 'I' for Inactive)
REMARK       I    between atoms: C_2  and  N_3 
REMARK       I    between atoms: C_2  and  N_9 
REMARK    1  A    between atoms: N_3  and  C_4 
REMARK    2  A    between atoms: C_4  and  C_5 
REMARK    3  A    between atoms: N_9  and  C_10 
ROOT
HETATM    1  O   UNL     1     -41.080 -52.965  12.020  1.00  0.00    -0.247 OA
HETATM    2  C   UNL     1     -41.419 -51.782  11.964  1.00  0.00     0.322 C 
HETATM    3  N   UNL     1     -42.617 -51.323  12.427  1.00  0.00    -0.342 N 
HETATM    4  N   UNL     1     -40.588 -50.874  11.384  1.00  0.00    -0.289 N 
HETATM    5  H   UNL     1     -42.848 -50.360  12.204  1.00  0.00     0.164 HD
HETATM    6  H   UNL     1     -39.746 -51.247  10.978  1.00  0.00     0.172 HD
ENDROOT
BRANCH   3   7
HETATM    7  C   UNL     1     -43.662 -52.217  12.875  1.00  0.00     0.129 C 
BRANCH   7   8
HETATM    8  C   UNL     1     -44.802 -51.357  13.377  1.00  0.00     0.003 C 
HETATM    9  C   UNL     1     -45.291 -51.693  14.810  1.00  0.00     0.006 C 
HETATM   10  C   UNL     1     -46.714 -51.347  14.331  1.00  0.00     0.001 C 
HETATM   11  C   UNL     1     -46.244 -51.701  12.905  1.00  0.00     0.006 C 
ENDBRANCH   7   8
ENDBRANCH   3   7
BRANCH   4  12
HETATM   12  C   UNL     1     -40.821 -49.534  11.261  1.00  0.00     0.152 A 
HETATM   13  N   UNL     1     -41.404 -48.899  10.273  1.00  0.00    -0.346 N 
HETATM   14  C   UNL     1     -41.427 -47.547  10.560  1.00  0.00     0.097 A 
ATOM     15  HN  UNL     1     -41.781 -49.332   9.430  1.00  0.00     0.167 HD
HETATM   16  C   UNL     1     -40.795 -47.177  11.729  1.00  0.00     0.070 A 
HETATM   17  S   UNL     1     -40.242 -48.580  12.551  1.00  0.00    -0.064 SA
ENDBRANCH   4  12
TORSDOF 3
ENDMDL
MODEL 3
REMARK VINA RESULT:      -4.9      5.738      7.205
REMARK  3 active torsions:
REMARK  status: ('A' for Active; 'I' for Inactive)
REMARK       I    between atoms: C_2  and  N_3 
REMARK       I    between atoms: C_2  and  N_9 
REMARK    1  A    between atoms: N_3  and  C_4 
REMARK    2  A    between atoms: C_4  and  C_5 
REMARK    3  A    between atoms: N_9  and  C_10 
ROOT
HETATM    1  O   UNL     1     -42.614 -47.887   9.801  1.00  0.00    -0.247 OA
HETATM    2  C   UNL     1     -41.533 -48.060  10.365  1.00  0.00     0.322 C 
HETATM    3  N   UNL     1     -40.692 -47.040  10.701  1.00  0.00    -0.342 N 
HETATM    4  N   UNL     1     -41.119 -49.326  10.646  1.00  0.00    -0.289 N 
HETATM    5  H   UNL     1     -39.771 -47.307  11.034  1.00  0.00     0.164 HD
HETATM    6  H   UNL     1     -41.717 -50.066  10.318  1.00  0.00     0.172 HD
ENDROOT
BRANCH   3   7
HETATM    7  C   UNL     1     -40.926 -45.679  10.274  1.00  0.00     0.129 C 
BRANCH   7   8
HETATM    8  C   UNL     1     -39.909 -44.807  10.980  1.00  0.00     0.003 C 
HETATM    9  C   UNL     1     -39.622 -45.201  12.453  1.00  0.00     0.006 C 
HETATM   10  C   UNL     1     -39.466 -43.698  12.752  1.00  0.00     0.001 C 
HETATM   11  C   UNL     1     -40.380 -43.434  11.538  1.00  0.00     0.006 C 
ENDBRANCH   7   8
ENDBRANCH   3   7
BRANCH   4  12
HETATM   12  C   UNL     1     -39.958 -49.670  11.276  1.00  0.00     0.152 A 
HETATM   13  N   UNL     1     -38.777 -49.876  10.745  1.00  0.00    -0.346 N 
HETATM   14  C   UNL     1     -37.885 -50.208  11.748  1.00  0.00     0.097 A 
ATOM     15  HN  UNL     1     -38.552 -49.803   9.753  1.00  0.00     0.167 HD
HETATM   16  C   UNL     1     -38.426 -50.316  13.012  1.00  0.00     0.070 A 
HETATM   17  S   UNL     1     -40.089 -49.888  12.963  1.00  0.00    -0.064 SA
ENDBRANCH   4  12
TORSDOF 3
ENDMDL
MODEL 4
REMARK VINA RESULT:      -4.8      1.738      2.194
REMARK  3 active torsions:
REMARK  status: ('A' for Active; 'I' for Inactive)
REMARK       I    between atoms: C_2  and  N_3 
REMARK       I    between atoms: C_2  and  N_9 
REMARK    1  A    between atoms: N_3  and  C_4 
REMARK    2  A    between atoms: C_4  and  C_5 
REMARK    3  A    between atoms: N_9  and  C_10 
ROOT
HETATM    1  O   UNL     1     -43.462 -55.755  15.478  1.00  0.00    -0.247 OA
HETATM    2  C   UNL     1     -43.237 -54.728  14.837  1.00  0.00     0.322 C 
HETATM    3  N   UNL     1     -44.126 -53.697  14.738  1.00  0.00    -0.342 N 
HETATM    4  N   UNL     1     -42.064 -54.605  14.158  1.00  0.00    -0.289 N 
HETATM    5  H   UNL     1     -43.894 -52.965  14.073  1.00  0.00     0.164 HD
HETATM    6  H   UNL     1     -41.458 -55.409  14.180  1.00  0.00     0.172 HD
ENDROOT
BRANCH   3   7
HETATM    7  C   UNL     1     -45.477 -53.796  15.241  1.00  0.00     0.129 C 
BRANCH   7   8
HETATM    8  C   UNL     1     -46.383 -53.134  14.225  1.00  0.00     0.003 C 
HETATM    9  C   UNL     1     -45.724 -52.849  12.851  1.00  0.00     0.006 C 
HETATM   10  C   UNL     1     -46.570 -51.563  12.789  1.00  0.00     0.001 C 
HETATM   11  C   UNL     1     -46.607 -51.598  14.331  1.00  0.00     0.006 C 
ENDBRANCH   7   8
ENDBRANCH   3   7
BRANCH   4  12
HETATM   12  C   UNL     1     -41.672 -53.525  13.419  1.00  0.00     0.152 A 
HETATM   13  N   UNL     1     -41.976 -53.238  12.177  1.00  0.00    -0.346 N 
HETATM   14  C   UNL     1     -41.360 -52.051  11.827  1.00  0.00     0.097 A 
ATOM     15  HN  UNL     1     -42.570 -53.799  11.567  1.00  0.00     0.167 HD
HETATM   16  C   UNL     1     -40.543 -51.498  12.791  1.00  0.00     0.070 A 
HETATM   17  S   UNL     1     -40.627 -52.442  14.224  1.00  0.00    -0.064 SA
ENDBRANCH   4  12
TORSDOF 3
ENDMDL
MODEL 5
REMARK VINA RESULT:      -4.6      5.440      6.763
REMARK  3 active torsions:
REMARK  status: ('A' for Active; 'I' for Inactive)
REMARK       I    between atoms: C_2  and  N_3 
REMARK       I    between atoms: C_2  and  N_9 
REMARK    1  A    between atoms: N_3  and  C_4 
REMARK    2  A    between atoms: C_4  and  C_5 
REMARK    3  A    between atoms: N_9  and  C_10 
ROOT
HETATM    1  O   UNL     1     -39.963 -45.457  10.361  1.00  0.00    -0.247 OA
HETATM    2  C   UNL     1     -40.505 -46.527  10.642  1.00  0.00     0.322 C 
HETATM    3  N   UNL     1     -41.835 -46.766  10.451  1.00  0.00    -0.342 N 
HETATM    4  N   UNL     1     -39.769 -47.523  11.206  1.00  0.00    -0.289 N 
HETATM    5  H   UNL     1     -42.199 -47.628  10.847  1.00  0.00     0.164 HD
HETATM    6  H   UNL     1     -38.810 -47.296  11.412  1.00  0.00     0.172 HD
ENDROOT
BRANCH   3   7
HETATM    7  C   UNL     1     -42.754 -45.724  10.054  1.00  0.00     0.129 C 
BRANCH   7   8
HETATM    8  C   UNL     1     -43.575 -46.266   8.903  1.00  0.00     0.003 C 
HETATM    9  C   UNL     1     -45.008 -46.722   9.281  1.00  0.00     0.006 C 
HETATM   10  C   UNL     1     -44.851 -47.845   8.238  1.00  0.00     0.001 C 
HETATM   11  C   UNL     1     -43.328 -47.734   8.451  1.00  0.00     0.006 C 
ENDBRANCH   7   8
ENDBRANCH   3   7
BRANCH   4  12
HETATM   12  C   UNL     1     -40.226 -48.760  11.559  1.00  0.00     0.152 A 
HETATM   13  N   UNL     1     -40.365 -49.821  10.801  1.00  0.00    -0.346 N 
HETATM   14  C   UNL     1     -40.864 -50.858  11.567  1.00  0.00     0.097 A 
ATOM     15  HN  UNL     1     -40.141 -49.872   9.807  1.00  0.00     0.167 HD
HETATM   16  C   UNL     1     -41.160 -50.541  12.876  1.00  0.00     0.070 A 
HETATM   17  S   UNL     1     -40.703 -48.915  13.190  1.00  0.00    -0.064 SA
ENDBRANCH   4  12
TORSDOF 3
ENDMDL
MODEL 6
REMARK VINA RESULT:      -4.6      4.020      6.289
REMARK  3 active torsions:
REMARK  status: ('A' for Active; 'I' for Inactive)
REMARK       I    between atoms: C_2  and  N_3 
REMARK       I    between atoms: C_2  and  N_9 
REMARK    1  A    between atoms: N_3  and  C_4 
REMARK    2  A    between atoms: C_4  and  C_5 
REMARK    3  A    between atoms: N_9  and  C_10 
ROOT
HETATM    1  O   UNL     1     -40.872 -49.094  10.750  1.00  0.00    -0.247 OA
HETATM    2  C   UNL     1     -40.611 -50.141  11.343  1.00  0.00     0.322 C 
HETATM    3  N   UNL     1     -39.357 -50.467  11.770  1.00  0.00    -0.342 N 
HETATM    4  N   UNL     1     -41.599 -51.051  11.565  1.00  0.00    -0.289 N 
HETATM    5  H   UNL     1     -39.231 -51.412  12.120  1.00  0.00     0.164 HD
HETATM    6  H   UNL     1     -42.498 -50.826  11.172  1.00  0.00     0.172 HD
ENDROOT
BRANCH   3   7
HETATM    7  C   UNL     1     -38.196 -49.683  11.415  1.00  0.00     0.129 C 
BRANCH   7   8
HETATM    8  C   UNL     1     -37.395 -49.469  12.682  1.00  0.00     0.003 C 
HETATM    9  C   UNL     1     -37.545 -50.588  13.745  1.00  0.00     0.006 C 
HETATM   10  C   UNL     1     -37.438 -49.487  14.818  1.00  0.00     0.001 C 
HETATM   11  C   UNL     1     -37.966 -48.500  13.757  1.00  0.00     0.006 C 
ENDBRANCH   7   8
ENDBRANCH   3   7
BRANCH   4  12
HETATM   12  C   UNL     1     -41.463 -52.243  12.216  1.00  0.00     0.152 A 
HETATM   13  N   UNL     1     -40.972 -53.368  11.755  1.00  0.00    -0.346 N 
HETATM   14  C   UNL     1     -41.027 -54.324  12.753  1.00  0.00     0.097 A 
ATOM     15  HN  UNL     1     -40.608 -53.514  10.814  1.00  0.00     0.167 HD
HETATM   16  C   UNL     1     -41.625 -53.922  13.929  1.00  0.00     0.070 A 
HETATM   17  S   UNL     1     -42.042 -52.259  13.821  1.00  0.00    -0.064 SA
ENDBRANCH   4  12
TORSDOF 3
ENDMDL
MODEL 7
REMARK VINA RESULT:      -4.5      2.454      5.868
REMARK  3 active torsions:
REMARK  status: ('A' for Active; 'I' for Inactive)
REMARK       I    between atoms: C_2  and  N_3 
REMARK       I    between atoms: C_2  and  N_9 
REMARK    1  A    between atoms: N_3  and  C_4 
REMARK    2  A    between atoms: C_4  and  C_5 
REMARK    3  A    between atoms: N_9  and  C_10 
ROOT
HETATM    1  O   UNL     1     -39.605 -53.989  13.186  1.00  0.00    -0.247 OA
HETATM    2  C   UNL     1     -40.711 -53.448  13.187  1.00  0.00     0.322 C 
HETATM    3  N   UNL     1     -40.887 -52.104  13.341  1.00  0.00    -0.342 N 
HETATM    4  N   UNL     1     -41.831 -54.212  13.064  1.00  0.00    -0.289 N 
HETATM    5  H   UNL     1     -41.843 -51.786  13.466  1.00  0.00     0.164 HD
HETATM    6  H   UNL     1     -41.682 -55.207  13.032  1.00  0.00     0.172 HD
ENDROOT
BRANCH   3   7
HETATM    7  C   UNL     1     -39.795 -51.220  13.683  1.00  0.00     0.129 C 
BRANCH   7   8
HETATM    8  C   UNL     1     -39.084 -50.867  12.393  1.00  0.00     0.003 C 
HETATM    9  C   UNL     1     -37.536 -50.851  12.485  1.00  0.00     0.006 C 
HETATM   10  C   UNL     1     -37.559 -49.672  11.492  1.00  0.00     0.001 C 
HETATM   11  C   UNL     1     -38.983 -49.365  11.998  1.00  0.00     0.006 C 
ENDBRANCH   7   8
ENDBRANCH   3   7
BRANCH   4  12
HETATM   12  C   UNL     1     -43.117 -53.754  13.035  1.00  0.00     0.152 A 
HETATM   13  N   UNL     1     -43.769 -53.227  12.027  1.00  0.00    -0.346 N 
HETATM   14  C   UNL     1     -45.047 -52.900  12.441  1.00  0.00     0.097 A 
ATOM     15  HN  UNL     1     -43.394 -53.083  11.090  1.00  0.00     0.167 HD
HETATM   16  C   UNL     1     -45.315 -53.122  13.776  1.00  0.00     0.070 A 
HETATM   17  S   UNL     1     -43.953 -53.860  14.519  1.00  0.00    -0.064 SA
ENDBRANCH   4  12
TORSDOF 3
ENDMDL
MODEL 8
REMARK VINA RESULT:      -4.5      1.782      2.342
REMARK  3 active torsions:
REMARK  status: ('A' for Active; 'I' for Inactive)
REMARK       I    between atoms: C_2  and  N_3 
REMARK       I    between atoms: C_2  and  N_9 
REMARK    1  A    between atoms: N_3  and  C_4 
REMARK    2  A    between atoms: C_4  and  C_5 
REMARK    3  A    between atoms: N_9  and  C_10 
ROOT
HETATM    1  O   UNL     1     -42.034 -54.423  13.629  1.00  0.00    -0.247 OA
HETATM    2  C   UNL     1     -41.780 -53.239  13.401  1.00  0.00     0.322 C 
HETATM    3  N   UNL     1     -42.429 -52.204  14.007  1.00  0.00    -0.342 N 
HETATM    4  N   UNL     1     -40.834 -52.923  12.474  1.00  0.00    -0.289 N 
HETATM    5  H   UNL     1     -42.237 -51.276  13.641  1.00  0.00     0.164 HD
HETATM    6  H   UNL     1     -40.426 -53.701  11.982  1.00  0.00     0.172 HD
ENDROOT
BRANCH   3   7
HETATM    7  C   UNL     1     -43.585 -52.409  14.850  1.00  0.00     0.129 C 
BRANCH   7   8
HETATM    8  C   UNL     1     -44.709 -51.569  14.281  1.00  0.00     0.003 C 
HETATM    9  C   UNL     1     -45.891 -51.318  15.253  1.00  0.00     0.006 C 
HETATM   10  C   UNL     1     -46.823 -51.393  14.028  1.00  0.00     0.001 C 
HETATM   11  C   UNL     1     -45.744 -52.261  13.349  1.00  0.00     0.006 C 
ENDBRANCH   7   8
ENDBRANCH   3   7
BRANCH   4  12
HETATM   12  C   UNL     1     -40.439 -51.664  12.126  1.00  0.00     0.152 A 
HETATM   13  N   UNL     1     -40.936 -50.886  11.194  1.00  0.00    -0.346 N 
HETATM   14  C   UNL     1     -40.232 -49.696  11.181  1.00  0.00     0.097 A 
ATOM     15  HN  UNL     1     -41.715 -51.120  10.580  1.00  0.00     0.167 HD
HETATM   16  C   UNL     1     -39.168 -49.625  12.056  1.00  0.00     0.070 A 
HETATM   17  S   UNL     1     -39.108 -51.057  13.003  1.00  0.00    -0.064 SA
ENDBRANCH   4  12
TORSDOF 3
ENDMDL
MODEL 9
REMARK VINA RESULT:      -4.4      4.110      5.614
REMARK  3 active torsions:
REMARK  status: ('A' for Active; 'I' for Inactive)
REMARK       I    between atoms: C_2  and  N_3 
REMARK       I    between atoms: C_2  and  N_9 
REMARK    1  A    between atoms: N_3  and  C_4 
REMARK    2  A    between atoms: C_4  and  C_5 
REMARK    3  A    between atoms: N_9  and  C_10 
ROOT
HETATM    1  O   UNL     1     -38.236 -49.783  12.013  1.00  0.00    -0.247 OA
HETATM    2  C   UNL     1     -39.429 -49.574  11.792  1.00  0.00     0.322 C 
HETATM    3  N   UNL     1     -40.418 -50.455  12.120  1.00  0.00    -0.342 N 
HETATM    4  N   UNL     1     -39.803 -48.429  11.158  1.00  0.00    -0.289 N 
HETATM    5  H   UNL     1     -41.346 -50.243  11.766  1.00  0.00     0.164 HD
HETATM    6  H   UNL     1     -39.051 -47.831  10.854  1.00  0.00     0.172 HD
ENDROOT
BRANCH   3   7
HETATM    7  C   UNL     1     -40.131 -51.785  12.607  1.00  0.00     0.129 C 
BRANCH   7   8
HETATM    8  C   UNL     1     -41.307 -52.663  12.232  1.00  0.00     0.003 C 
HETATM    9  C   UNL     1     -42.687 -52.144  12.714  1.00  0.00     0.006 C 
HETATM   10  C   UNL     1     -43.087 -53.616  12.931  1.00  0.00     0.001 C 
HETATM   11  C   UNL     1     -41.585 -53.926  13.097  1.00  0.00     0.006 C 
ENDBRANCH   7   8
ENDBRANCH   3   7
BRANCH   4  12
HETATM   12  C   UNL     1     -41.081 -48.056  10.858  1.00  0.00     0.152 A 
HETATM   13  N   UNL     1     -41.767 -48.310   9.770  1.00  0.00    -0.346 N 
HETATM   14  C   UNL     1     -43.021 -47.740   9.886  1.00  0.00     0.097 A 
ATOM     15  HN  UNL     1     -41.431 -48.843   8.969  1.00  0.00     0.167 HD
HETATM   16  C   UNL     1     -43.235 -47.003  11.032  1.00  0.00     0.070 A 
HETATM   17  S   UNL     1     -41.855 -47.111  12.049  1.00  0.00    -0.064 SA
ENDBRANCH   4  12
TORSDOF 3
ENDMDL
