MODEL 1
REMARK VINA RESULT:      -5.7      0.000      0.000
REMARK  3 active torsions:
REMARK  status: ('A' for Active; 'I' for Inactive)
REMARK    1  A    between atoms: S_2  and  C_3 
REMARK    2  A    between atoms: C_7  and  N_8 
REMARK       I    between atoms: N_8  and  C_9 
REMARK       I    between atoms: C_9  and  N_11 
REMARK    3  A    between atoms: N_11  and  C_12 
ROOT
HETATM    1  N   UNL     1     -41.773 -47.795   9.838  1.00  0.00    -0.288 N 
HETATM    2  C   UNL     1     -41.467 -48.553  10.942  1.00  0.00     0.322 C 
HETATM    3  O   UNL     1     -42.223 -48.795  11.877  1.00  0.00    -0.247 OA
HETATM    4  N   UNL     1     -40.185 -49.073  10.906  1.00  0.00    -0.338 N 
HETATM    5  H   UNL     1     -41.048 -47.524   9.192  1.00  0.00     0.172 HD
HETATM    6  H   UNL     1     -39.504 -48.673  10.276  1.00  0.00     0.164 HD
ENDROOT
BRANCH   1   7
HETATM    7  C   UNL     1     -43.020 -47.273   9.570  1.00  0.00     0.171 A 
HETATM    8  S   UNL     1     -43.316 -45.611   9.299  1.00  0.00     0.025 SA
HETATM    9  N   UNL     1     -44.951 -45.825   9.102  1.00  0.00    -0.304 N 
HETATM   10  C   UNL     1     -45.182 -47.129   9.250  1.00  0.00     0.152 A 
ATOM     11  HN  UNL     1     -45.643 -45.101   8.906  1.00  0.00     0.176 HD
HETATM   12  N   UNL     1     -44.125 -47.988   9.538  1.00  0.00    -0.315 N 
ATOM     13  HN  UNL     1     -44.195 -48.993   9.696  1.00  0.00     0.170 HD
BRANCH  10  14
HETATM   14  S   UNL     1     -46.834 -47.683   9.043  1.00  0.00    -0.098 SA
HETATM   15  C   UNL     1     -46.626 -49.053   7.899  1.00  0.00     0.099 C 
ENDBRANCH  10  14
ENDBRANCH   1   7
BRANCH   4  16
HETATM   16  C   UNL     1     -39.709 -49.903  11.976  1.00  0.00     0.090 A 
HETATM   17  C   UNL     1     -38.777 -49.382  13.035  1.00  0.00     0.032 A 
HETATM   18  C   UNL     1     -38.281 -50.389  12.035  1.00  0.00     0.006 A 
HETATM   19  C   UNL     1     -37.250 -49.995  11.034  1.00  0.00     0.012 C 
ENDBRANCH   4  16
TORSDOF 3
ENDMDL
MODEL 2
REMARK VINA RESULT:      -5.4      3.787      6.942
REMARK  3 active torsions:
REMARK  status: ('A' for Active; 'I' for Inactive)
REMARK    1  A    between atoms: S_2  and  C_3 
REMARK    2  A    between atoms: C_7  and  N_8 
REMARK       I    between atoms: N_8  and  C_9 
REMARK       I    between atoms: C_9  and  N_11 
REMARK    3  A    between atoms: N_11  and  C_12 
ROOT
HETATM    1  N   UNL     1     -40.214 -49.825  10.740  1.00  0.00    -0.288 N 
HETATM    2  C   UNL     1     -41.163 -48.855  10.950  1.00  0.00     0.322 C 
HETATM    3  O   UNL     1     -41.529 -48.436  12.043  1.00  0.00    -0.247 OA
HETATM    4  N   UNL     1     -41.682 -48.339   9.776  1.00  0.00    -0.338 N 
HETATM    5  H   UNL     1     -40.082 -50.215   9.819  1.00  0.00     0.172 HD
HETATM    6  H   UNL     1     -41.565 -48.851   8.914  1.00  0.00     0.164 HD
ENDROOT
BRANCH   1   7
HETATM    7  C   UNL     1     -39.455 -50.405  11.734  1.00  0.00     0.171 A 
HETATM    8  S   UNL     1     -37.761 -50.223  11.864  1.00  0.00     0.025 SA
HETATM    9  N   UNL     1     -37.652 -51.194  13.207  1.00  0.00    -0.304 N 
HETATM   10  C   UNL     1     -38.891 -51.599  13.482  1.00  0.00     0.152 A 
ATOM     11  HN  UNL     1     -36.803 -51.434  13.721  1.00  0.00     0.176 HD
HETATM   12  N   UNL     1     -39.944 -51.197  12.665  1.00  0.00    -0.315 N 
ATOM     13  HN  UNL     1     -40.922 -51.469  12.769  1.00  0.00     0.170 HD
BRANCH  10  14
HETATM   14  S   UNL     1     -39.114 -52.611  14.898  1.00  0.00    -0.098 SA
HETATM   15  C   UNL     1     -39.176 -54.254  14.175  1.00  0.00     0.099 C 
ENDBRANCH  10  14
ENDBRANCH   1   7
BRANCH   4  16
HETATM   16  C   UNL     1     -42.675 -47.302   9.817  1.00  0.00     0.090 A 
HETATM   17  C   UNL     1     -44.133 -47.604  10.022  1.00  0.00     0.032 A 
HETATM   18  C   UNL     1     -43.658 -47.094   8.690  1.00  0.00     0.006 A 
HETATM   19  C   UNL     1     -43.717 -47.980   7.493  1.00  0.00     0.012 C 
ENDBRANCH   4  16
TORSDOF 3
ENDMDL
MODEL 3
REMARK VINA RESULT:      -5.0      2.864      3.655
REMARK  3 active torsions:
REMARK  status: ('A' for Active; 'I' for Inactive)
REMARK    1  A    between atoms: S_2  and  C_3 
REMARK    2  A    between atoms: C_7  and  N_8 
REMARK       I    between atoms: N_8  and  C_9 
REMARK       I    between atoms: C_9  and  N_11 
REMARK    3  A    between atoms: N_11  and  C_12 
ROOT
HETATM    1  N   UNL     1     -40.447 -50.013  11.393  1.00  0.00    -0.288 N 
HETATM    2  C   UNL     1     -41.210 -51.004  11.960  1.00  0.00     0.322 C 
HETATM    3  O   UNL     1     -42.405 -50.924  12.226  1.00  0.00    -0.247 OA
HETATM    4  N   UNL     1     -40.501 -52.168  12.196  1.00  0.00    -0.338 N 
HETATM    5  H   UNL     1     -39.444 -50.108  11.346  1.00  0.00     0.172 HD
HETATM    6  H   UNL     1     -39.492 -52.142  12.209  1.00  0.00     0.164 HD
ENDROOT
BRANCH   1   7
HETATM    7  C   UNL     1     -40.941 -48.807  10.943  1.00  0.00     0.171 A 
HETATM    8  S   UNL     1     -40.254 -47.292  11.342  1.00  0.00     0.025 SA
HETATM    9  N   UNL     1     -41.389 -46.433  10.485  1.00  0.00    -0.304 N 
HETATM   10  C   UNL     1     -42.216 -47.329   9.950  1.00  0.00     0.152 A 
ATOM     11  HN  UNL     1     -41.442 -45.419  10.389  1.00  0.00     0.176 HD
HETATM   12  N   UNL     1     -42.018 -48.685  10.197  1.00  0.00    -0.315 N 
ATOM     13  HN  UNL     1     -42.604 -49.449   9.861  1.00  0.00     0.170 HD
BRANCH  10  14
HETATM   14  S   UNL     1     -43.509 -46.724   8.930  1.00  0.00    -0.098 SA
HETATM   15  C   UNL     1     -43.541 -47.941   7.608  1.00  0.00     0.099 C 
ENDBRANCH  10  14
ENDBRANCH   1   7
BRANCH   4  16
HETATM   16  C   UNL     1     -41.154 -53.311  12.771  1.00  0.00     0.090 A 
HETATM   17  C   UNL     1     -41.510 -53.373  14.230  1.00  0.00     0.032 A 
HETATM   18  C   UNL     1     -40.430 -54.266  13.688  1.00  0.00     0.006 A 
HETATM   19  C   UNL     1     -39.016 -54.063  14.116  1.00  0.00     0.012 C 
ENDBRANCH   4  16
TORSDOF 3
ENDMDL
MODEL 4
REMARK VINA RESULT:      -5.0      2.780      6.815
REMARK  3 active torsions:
REMARK  status: ('A' for Active; 'I' for Inactive)
REMARK    1  A    between atoms: S_2  and  C_3 
REMARK    2  A    between atoms: C_7  and  N_8 
REMARK       I    between atoms: N_8  and  C_9 
REMARK       I    between atoms: C_9  and  N_11 
REMARK    3  A    between atoms: N_11  and  C_12 
ROOT
HETATM    1  N   UNL     1     -42.658 -48.034  11.690  1.00  0.00    -0.288 N 
HETATM    2  C   UNL     1     -43.106 -47.740  10.426  1.00  0.00     0.322 C 
HETATM    3  O   UNL     1     -42.400 -47.537   9.444  1.00  0.00    -0.247 OA
HETATM    4  N   UNL     1     -44.487 -47.716  10.331  1.00  0.00    -0.338 N 
HETATM    5  H   UNL     1     -43.299 -48.038  12.468  1.00  0.00     0.172 HD
HETATM    6  H   UNL     1     -45.041 -47.635  11.171  1.00  0.00     0.164 HD
ENDROOT
BRANCH   1   7
HETATM    7  C   UNL     1     -41.336 -48.244  12.021  1.00  0.00     0.171 A 
HETATM    8  S   UNL     1     -40.594 -47.604  13.422  1.00  0.00     0.025 SA
HETATM    9  N   UNL     1     -39.109 -48.256  13.063  1.00  0.00    -0.304 N 
HETATM   10  C   UNL     1     -39.254 -48.916  11.915  1.00  0.00     0.152 A 
ATOM     11  HN  UNL     1     -38.254 -48.168  13.614  1.00  0.00     0.176 HD
HETATM   12  N   UNL     1     -40.489 -48.921  11.274  1.00  0.00    -0.315 N 
ATOM     13  HN  UNL     1     -40.701 -49.370  10.382  1.00  0.00     0.170 HD
BRANCH  10  14
HETATM   14  S   UNL     1     -37.852 -49.769  11.293  1.00  0.00    -0.098 SA
HETATM   15  C   UNL     1     -37.463 -50.882  12.649  1.00  0.00     0.099 C 
ENDBRANCH  10  14
ENDBRANCH   1   7
BRANCH   4  16
HETATM   16  C   UNL     1     -45.122 -47.440   9.074  1.00  0.00     0.090 A 
HETATM   17  C   UNL     1     -46.482 -46.804   8.991  1.00  0.00     0.032 A 
HETATM   18  C   UNL     1     -46.305 -48.240   8.584  1.00  0.00     0.006 A 
HETATM   19  C   UNL     1     -46.938 -49.323   9.389  1.00  0.00     0.012 C 
ENDBRANCH   4  16
TORSDOF 3
ENDMDL
MODEL 5
REMARK VINA RESULT:      -5.0      4.027      5.998
REMARK  3 active torsions:
REMARK  status: ('A' for Active; 'I' for Inactive)
REMARK    1  A    between atoms: S_2  and  C_3 
REMARK    2  A    between atoms: C_7  and  N_8 
REMARK       I    between atoms: N_8  and  C_9 
REMARK       I    between atoms: C_9  and  N_11 
REMARK    3  A    between atoms: N_11  and  C_12 
ROOT
HETATM    1  N   UNL     1     -42.215 -50.543  11.973  1.00  0.00    -0.288 N 
HETATM    2  C   UNL     1     -43.233 -50.438  12.889  1.00  0.00     0.322 C 
HETATM    3  O   UNL     1     -43.421 -49.492  13.646  1.00  0.00    -0.247 OA
HETATM    4  N   UNL     1     -44.090 -51.525  12.876  1.00  0.00    -0.338 N 
HETATM    5  H   UNL     1     -42.047 -51.416  11.499  1.00  0.00     0.172 HD
HETATM    6  H   UNL     1     -43.793 -52.387  12.444  1.00  0.00     0.164 HD
ENDROOT
BRANCH   1   7
HETATM    7  C   UNL     1     -41.306 -49.544  11.698  1.00  0.00     0.171 A 
HETATM    8  S   UNL     1     -39.614 -49.787  11.649  1.00  0.00     0.025 SA
HETATM    9  N   UNL     1     -39.288 -48.193  11.311  1.00  0.00    -0.304 N 
HETATM   10  C   UNL     1     -40.465 -47.571  11.254  1.00  0.00     0.152 A 
ATOM     11  HN  UNL     1     -38.368 -47.774  11.175  1.00  0.00     0.176 HD
HETATM   12  N   UNL     1     -41.635 -48.287  11.487  1.00  0.00    -0.315 N 
ATOM     13  HN  UNL     1     -42.581 -47.905  11.494  1.00  0.00     0.170 HD
BRANCH  10  14
HETATM   14  S   UNL     1     -40.454 -45.862  10.857  1.00  0.00    -0.098 SA
HETATM   15  C   UNL     1     -42.180 -45.561  10.460  1.00  0.00     0.099 C 
ENDBRANCH  10  14
ENDBRANCH   1   7
BRANCH   4  16
HETATM   16  C   UNL     1     -45.219 -51.568  13.762  1.00  0.00     0.090 A 
HETATM   17  C   UNL     1     -46.048 -52.811  13.936  1.00  0.00     0.032 A 
HETATM   18  C   UNL     1     -46.637 -51.612  13.247  1.00  0.00     0.006 A 
HETATM   19  C   UNL     1     -46.969 -51.679  11.795  1.00  0.00     0.012 C 
ENDBRANCH   4  16
TORSDOF 3
ENDMDL
MODEL 6
REMARK VINA RESULT:      -5.0      4.741      6.760
REMARK  3 active torsions:
REMARK  status: ('A' for Active; 'I' for Inactive)
REMARK    1  A    between atoms: S_2  and  C_3 
REMARK    2  A    between atoms: C_7  and  N_8 
REMARK       I    between atoms: N_8  and  C_9 
REMARK       I    between atoms: C_9  and  N_11 
REMARK    3  A    between atoms: N_11  and  C_12 
ROOT
HETATM    1  N   UNL     1     -42.437 -50.946  11.959  1.00  0.00    -0.288 N 
HETATM    2  C   UNL     1     -42.472 -52.280  12.282  1.00  0.00     0.322 C 
HETATM    3  O   UNL     1     -41.498 -53.021  12.374  1.00  0.00    -0.247 OA
HETATM    4  N   UNL     1     -43.750 -52.745  12.536  1.00  0.00    -0.338 N 
HETATM    5  H   UNL     1     -43.291 -50.449  11.759  1.00  0.00     0.172 HD
HETATM    6  H   UNL     1     -44.546 -52.209  12.220  1.00  0.00     0.164 HD
ENDROOT
BRANCH   1   7
HETATM    7  C   UNL     1     -41.282 -50.213  11.787  1.00  0.00     0.171 A 
HETATM    8  S   UNL     1     -41.248 -48.508  11.666  1.00  0.00     0.025 SA
HETATM    9  N   UNL     1     -39.601 -48.449  11.456  1.00  0.00    -0.304 N 
HETATM   10  C   UNL     1     -39.171 -49.710  11.490  1.00  0.00     0.152 A 
ATOM     11  HN  UNL     1     -39.031 -47.613  11.328  1.00  0.00     0.176 HD
HETATM   12  N   UNL     1     -40.086 -50.746  11.653  1.00  0.00    -0.315 N 
ATOM     13  HN  UNL     1     -39.868 -51.743  11.666  1.00  0.00     0.170 HD
BRANCH  10  14
HETATM   14  S   UNL     1     -37.443 -49.976  11.347  1.00  0.00    -0.098 SA
HETATM   15  C   UNL     1     -37.130 -51.122  12.695  1.00  0.00     0.099 C 
ENDBRANCH  10  14
ENDBRANCH   1   7
BRANCH   4  16
HETATM   16  C   UNL     1     -43.963 -54.116  12.904  1.00  0.00     0.090 A 
HETATM   17  C   UNL     1     -45.251 -54.584  13.523  1.00  0.00     0.032 A 
HETATM   18  C   UNL     1     -43.994 -54.560  14.347  1.00  0.00     0.006 A 
HETATM   19  C   UNL     1     -43.874 -53.609  15.489  1.00  0.00     0.012 C 
ENDBRANCH   4  16
TORSDOF 3
ENDMDL
MODEL 7
REMARK VINA RESULT:      -4.9      3.044      4.679
REMARK  3 active torsions:
REMARK  status: ('A' for Active; 'I' for Inactive)
REMARK    1  A    between atoms: S_2  and  C_3 
REMARK    2  A    between atoms: C_7  and  N_8 
REMARK       I    between atoms: N_8  and  C_9 
REMARK       I    between atoms: C_9  and  N_11 
REMARK    3  A    between atoms: N_11  and  C_12 
ROOT
HETATM    1  N   UNL     1     -41.390 -49.412  10.629  1.00  0.00    -0.288 N 
HETATM    2  C   UNL     1     -41.123 -50.096  11.790  1.00  0.00     0.322 C 
HETATM    3  O   UNL     1     -40.858 -49.590  12.875  1.00  0.00    -0.247 OA
HETATM    4  N   UNL     1     -41.205 -51.469  11.642  1.00  0.00    -0.338 N 
HETATM    5  H   UNL     1     -41.450 -49.904   9.751  1.00  0.00     0.172 HD
HETATM    6  H   UNL     1     -41.174 -51.873  10.717  1.00  0.00     0.164 HD
ENDROOT
BRANCH   1   7
HETATM    7  C   UNL     1     -41.499 -48.040  10.537  1.00  0.00     0.171 A 
HETATM    8  S   UNL     1     -42.954 -47.226  10.158  1.00  0.00     0.025 SA
HETATM    9  N   UNL     1     -42.252 -45.722  10.216  1.00  0.00    -0.304 N 
HETATM   10  C   UNL     1     -40.969 -45.915  10.517  1.00  0.00     0.152 A 
ATOM     11  HN  UNL     1     -42.713 -44.826  10.054  1.00  0.00     0.176 HD
HETATM   12  N   UNL     1     -40.488 -47.211  10.687  1.00  0.00    -0.315 N 
ATOM     13  HN  UNL     1     -39.523 -47.471  10.891  1.00  0.00     0.170 HD
BRANCH  10  14
HETATM   14  S   UNL     1     -39.961 -44.491  10.705  1.00  0.00    -0.098 SA
HETATM   15  C   UNL     1     -39.606 -44.516  12.465  1.00  0.00     0.099 C 
ENDBRANCH  10  14
ENDBRANCH   1   7
BRANCH   4  16
HETATM   16  C   UNL     1     -40.971 -52.334  12.764  1.00  0.00     0.090 A 
HETATM   17  C   UNL     1     -40.863 -53.826  12.611  1.00  0.00     0.032 A 
HETATM   18  C   UNL     1     -42.049 -53.233  13.319  1.00  0.00     0.006 A 
HETATM   19  C   UNL     1     -43.406 -53.340  12.710  1.00  0.00     0.012 C 
ENDBRANCH   4  16
TORSDOF 3
ENDMDL
MODEL 8
REMARK VINA RESULT:      -4.9      4.556      5.274
REMARK  3 active torsions:
REMARK  status: ('A' for Active; 'I' for Inactive)
REMARK    1  A    between atoms: S_2  and  C_3 
REMARK    2  A    between atoms: C_7  and  N_8 
REMARK       I    between atoms: N_8  and  C_9 
REMARK       I    between atoms: C_9  and  N_11 
REMARK    3  A    between atoms: N_11  and  C_12 
ROOT
HETATM    1  N   UNL     1     -41.487 -52.368  12.175  1.00  0.00    -0.288 N 
HETATM    2  C   UNL     1     -40.949 -51.108  12.077  1.00  0.00     0.322 C 
HETATM    3  O   UNL     1     -41.541 -50.056  12.297  1.00  0.00    -0.247 OA
HETATM    4  N   UNL     1     -39.612 -51.114  11.719  1.00  0.00    -0.338 N 
HETATM    5  H   UNL     1     -40.976 -53.166  11.832  1.00  0.00     0.172 HD
HETATM    6  H   UNL     1     -39.212 -51.943  11.305  1.00  0.00     0.164 HD
ENDROOT
BRANCH   1   7
HETATM    7  C   UNL     1     -42.757 -52.641  12.637  1.00  0.00     0.171 A 
HETATM    8  S   UNL     1     -43.160 -54.039  13.535  1.00  0.00     0.025 SA
HETATM    9  N   UNL     1     -44.767 -53.633  13.650  1.00  0.00    -0.304 N 
HETATM   10  C   UNL     1     -44.909 -52.473  13.009  1.00  0.00     0.152 A 
ATOM     11  HN  UNL     1     -45.500 -54.165  14.118  1.00  0.00     0.176 HD
HETATM   12  N   UNL     1     -43.805 -51.882  12.400  1.00  0.00    -0.315 N 
ATOM     13  HN  UNL     1     -43.809 -51.013  11.864  1.00  0.00     0.170 HD
BRANCH  10  14
HETATM   14  S   UNL     1     -46.506 -51.747  13.000  1.00  0.00    -0.098 SA
HETATM   15  C   UNL     1     -46.785 -51.440  14.748  1.00  0.00     0.099 C 
ENDBRANCH  10  14
ENDBRANCH   1   7
BRANCH   4  16
HETATM   16  C   UNL     1     -38.891 -49.879  11.588  1.00  0.00     0.090 A 
HETATM   17  C   UNL     1     -37.427 -49.844  11.250  1.00  0.00     0.032 A 
HETATM   18  C   UNL     1     -37.886 -49.429  12.620  1.00  0.00     0.006 A 
HETATM   19  C   UNL     1     -37.519 -50.253  13.807  1.00  0.00     0.012 C 
ENDBRANCH   4  16
TORSDOF 3
ENDMDL
MODEL 9
REMARK VINA RESULT:      -4.6      3.479      6.928
REMARK  3 active torsions:
REMARK  status: ('A' for Active; 'I' for Inactive)
REMARK    1  A    between atoms: S_2  and  C_3 
REMARK    2  A    between atoms: C_7  and  N_8 
REMARK       I    between atoms: N_8  and  C_9 
REMARK       I    between atoms: C_9  and  N_11 
REMARK    3  A    between atoms: N_11  and  C_12 
ROOT
HETATM    1  N   UNL     1     -42.464 -49.789  11.787  1.00  0.00    -0.288 N 
HETATM    2  C   UNL     1     -42.405 -48.533  11.235  1.00  0.00     0.322 C 
HETATM    3  O   UNL     1     -41.456 -47.760  11.311  1.00  0.00    -0.247 OA
HETATM    4  N   UNL     1     -43.545 -48.197  10.526  1.00  0.00    -0.338 N 
HETATM    5  H   UNL     1     -43.335 -50.296  11.805  1.00  0.00     0.172 HD
HETATM    6  H   UNL     1     -44.396 -48.719  10.677  1.00  0.00     0.164 HD
ENDROOT
BRANCH   1   7
HETATM    7  C   UNL     1     -41.414 -50.410  12.431  1.00  0.00     0.171 A 
HETATM    8  S   UNL     1     -41.613 -51.603  13.639  1.00  0.00     0.025 SA
HETATM    9  N   UNL     1     -39.979 -51.779  13.884  1.00  0.00    -0.304 N 
HETATM   10  C   UNL     1     -39.379 -50.934  13.047  1.00  0.00     0.152 A 
ATOM     11  HN  UNL     1     -39.526 -52.409  14.545  1.00  0.00     0.176 HD
HETATM   12  N   UNL     1     -40.148 -50.121  12.218  1.00  0.00    -0.315 N 
ATOM     13  HN  UNL     1     -39.792 -49.425  11.563  1.00  0.00     0.170 HD
BRANCH  10  14
HETATM   14  S   UNL     1     -37.624 -50.925  13.031  1.00  0.00    -0.098 SA
HETATM   15  C   UNL     1     -37.242 -50.222  14.640  1.00  0.00     0.099 C 
ENDBRANCH  10  14
ENDBRANCH   1   7
BRANCH   4  16
HETATM   16  C   UNL     1     -43.642 -46.923   9.870  1.00  0.00     0.090 A 
HETATM   17  C   UNL     1     -44.856 -46.526   9.078  1.00  0.00     0.032 A 
HETATM   18  C   UNL     1     -43.557 -46.790   8.369  1.00  0.00     0.006 A 
HETATM   19  C   UNL     1     -43.434 -47.963   7.458  1.00  0.00     0.012 C 
ENDBRANCH   4  16
TORSDOF 3
ENDMDL
