MODEL 1
REMARK VINA RESULT:      -5.9      0.000      0.000
REMARK  3 active torsions:
REMARK  status: ('A' for Active; 'I' for Inactive)
REMARK    1  A    between atoms: C_2  and  C_5 
REMARK    2  A    between atoms: C_9  and  N_10 
REMARK       I    between atoms: N_10  and  C_11 
REMARK       I    between atoms: C_11  and  N_13 
REMARK    3  A    between atoms: N_13  and  C_14 
ROOT
HETATM    1  C   UNL     1     -42.426 -47.423   9.954  1.00  0.00     0.088 A 
HETATM    2  N   UNL     1     -42.272 -48.673  10.418  1.00  0.00    -0.353 N 
ATOM      3  HN  UNL     1     -42.938 -49.410  10.186  1.00  0.00     0.166 HD
HETATM    4  C   UNL     1     -41.202 -48.920  11.203  1.00  0.00     0.120 A 
HETATM    5  C   UNL     1     -40.262 -47.974  11.558  1.00  0.00     0.067 A 
HETATM    6  C   UNL     1     -40.506 -46.724  11.017  1.00  0.00     0.120 A 
HETATM    7  N   UNL     1     -41.564 -46.420  10.224  1.00  0.00    -0.353 N 
ATOM      8  HN  UNL     1     -41.702 -45.481   9.851  1.00  0.00     0.166 HD
ENDROOT
BRANCH   5   9
HETATM    9  N   UNL     1     -39.133 -48.213  12.379  1.00  0.00    -0.306 N 
HETATM   10  C   UNL     1     -39.168 -48.328  13.748  1.00  0.00     0.321 C 
HETATM   11  O   UNL     1     -40.160 -48.195  14.456  1.00  0.00    -0.247 OA
HETATM   12  N   UNL     1     -37.950 -48.680  14.284  1.00  0.00    -0.338 N 
HETATM   13  H   UNL     1     -37.124 -48.326  13.823  1.00  0.00     0.164 HD
HETATM   14  H   UNL     1     -38.244 -48.370  11.924  1.00  0.00     0.171 HD
BRANCH  12  15
HETATM   15  C   UNL     1     -37.845 -48.869  15.738  1.00  0.00     0.093 C 
HETATM   16  C   UNL     1     -37.026 -47.741  16.394  1.00  0.00     0.052 C 
HETATM   17  C   UNL     1     -35.654 -48.340  16.468  1.00  0.00    -0.029 C 
HETATM   18  C   UNL     1     -35.686 -49.666  16.293  1.00  0.00    -0.029 C 
HETATM   19  C   UNL     1     -37.084 -50.157  16.078  1.00  0.00     0.052 C 
ENDBRANCH  12  15
ENDBRANCH   5   9
BRANCH   1  20
HETATM   20  C   UNL     1     -43.669 -47.129   9.116  1.00  0.00     0.007 C 
HETATM   21  C   UNL     1     -43.846 -45.609   8.899  1.00  0.00     0.022 C 
HETATM   22  C   UNL     1     -44.924 -47.663   9.822  1.00  0.00     0.022 C 
HETATM   23  C   UNL     1     -43.522 -47.799   7.739  1.00  0.00     0.022 C 
ENDBRANCH   1  20
TORSDOF 3
ENDMDL
MODEL 2
REMARK VINA RESULT:      -5.8      4.142      6.382
REMARK  3 active torsions:
REMARK  status: ('A' for Active; 'I' for Inactive)
REMARK    1  A    between atoms: C_2  and  C_5 
REMARK    2  A    between atoms: C_9  and  N_10 
REMARK       I    between atoms: N_10  and  C_11 
REMARK       I    between atoms: C_11  and  N_13 
REMARK    3  A    between atoms: N_13  and  C_14 
ROOT
HETATM    1  C   UNL     1     -40.902 -45.744  11.331  1.00  0.00     0.088 A 
HETATM    2  N   UNL     1     -40.625 -46.854  10.628  1.00  0.00    -0.353 N 
ATOM      3  HN  UNL     1     -39.827 -46.894   9.994  1.00  0.00     0.166 HD
HETATM    4  C   UNL     1     -41.441 -47.917  10.793  1.00  0.00     0.120 A 
HETATM    5  C   UNL     1     -42.537 -47.934  11.631  1.00  0.00     0.067 A 
HETATM    6  C   UNL     1     -42.725 -46.747  12.316  1.00  0.00     0.120 A 
HETATM    7  N   UNL     1     -41.938 -45.650  12.189  1.00  0.00    -0.353 N 
ATOM      8  HN  UNL     1     -42.121 -44.796  12.717  1.00  0.00     0.166 HD
ENDROOT
BRANCH   5   9
HETATM    9  N   UNL     1     -43.404 -49.038  11.817  1.00  0.00    -0.306 N 
HETATM   10  C   UNL     1     -43.405 -49.858  12.921  1.00  0.00     0.321 C 
HETATM   11  O   UNL     1     -42.635 -49.784  13.872  1.00  0.00    -0.247 OA
HETATM   12  N   UNL     1     -44.429 -50.777  12.899  1.00  0.00    -0.338 N 
HETATM   13  H   UNL     1     -44.707 -51.136  11.997  1.00  0.00     0.164 HD
HETATM   14  H   UNL     1     -44.114 -49.203  11.118  1.00  0.00     0.171 HD
BRANCH  12  15
HETATM   15  C   UNL     1     -44.573 -51.702  14.032  1.00  0.00     0.093 C 
HETATM   16  C   UNL     1     -45.309 -52.991  13.618  1.00  0.00     0.052 C 
HETATM   17  C   UNL     1     -46.726 -52.691  14.004  1.00  0.00    -0.029 C 
HETATM   18  C   UNL     1     -46.798 -51.649  14.840  1.00  0.00    -0.029 C 
HETATM   19  C   UNL     1     -45.442 -51.092  15.142  1.00  0.00     0.052 C 
ENDBRANCH  12  15
ENDBRANCH   5   9
BRANCH   1  20
HETATM   20  C   UNL     1     -40.014 -44.522  11.100  1.00  0.00     0.007 C 
HETATM   21  C   UNL     1     -40.859 -43.231  11.013  1.00  0.00     0.022 C 
HETATM   22  C   UNL     1     -39.233 -44.674   9.785  1.00  0.00     0.022 C 
HETATM   23  C   UNL     1     -39.033 -44.380  12.275  1.00  0.00     0.022 C 
ENDBRANCH   1  20
TORSDOF 3
ENDMDL
MODEL 3
REMARK VINA RESULT:      -5.8      3.777      4.336
REMARK  3 active torsions:
REMARK  status: ('A' for Active; 'I' for Inactive)
REMARK    1  A    between atoms: C_2  and  C_5 
REMARK    2  A    between atoms: C_9  and  N_10 
REMARK       I    between atoms: N_10  and  C_11 
REMARK       I    between atoms: C_11  and  N_13 
REMARK    3  A    between atoms: N_13  and  C_14 
ROOT
HETATM    1  C   UNL     1     -42.910 -48.014  10.319  1.00  0.00     0.088 A 
HETATM    2  N   UNL     1     -41.666 -48.398   9.991  1.00  0.00    -0.353 N 
ATOM      3  HN  UNL     1     -41.214 -48.058   9.143  1.00  0.00     0.166 HD
HETATM    4  C   UNL     1     -41.036 -49.252  10.826  1.00  0.00     0.120 A 
HETATM    5  C   UNL     1     -41.586 -49.753  11.988  1.00  0.00     0.067 A 
HETATM    6  C   UNL     1     -42.863 -49.285  12.240  1.00  0.00     0.120 A 
HETATM    7  N   UNL     1     -43.543 -48.429  11.437  1.00  0.00    -0.353 N 
ATOM      8  HN  UNL     1     -44.486 -48.114  11.666  1.00  0.00     0.166 HD
ENDROOT
BRANCH   5   9
HETATM    9  N   UNL     1     -40.941 -50.647  12.876  1.00  0.00    -0.306 N 
HETATM   10  C   UNL     1     -41.133 -52.008  12.897  1.00  0.00     0.321 C 
HETATM   11  O   UNL     1     -41.916 -52.635  12.192  1.00  0.00    -0.247 OA
HETATM   12  N   UNL     1     -40.291 -52.651  13.776  1.00  0.00    -0.338 N 
HETATM   13  H   UNL     1     -40.045 -52.158  14.623  1.00  0.00     0.164 HD
HETATM   14  H   UNL     1     -40.243 -50.269  13.502  1.00  0.00     0.171 HD
BRANCH  12  15
HETATM   15  C   UNL     1     -40.364 -54.115  13.882  1.00  0.00     0.093 C 
HETATM   16  C   UNL     1     -41.223 -54.550  15.085  1.00  0.00     0.052 C 
HETATM   17  C   UNL     1     -40.194 -54.773  16.152  1.00  0.00    -0.029 C 
HETATM   18  C   UNL     1     -38.963 -54.867  15.637  1.00  0.00    -0.029 C 
HETATM   19  C   UNL     1     -38.980 -54.723  14.147  1.00  0.00     0.052 C 
ENDBRANCH  12  15
ENDBRANCH   5   9
BRANCH   1  20
HETATM   20  C   UNL     1     -43.647 -47.096   9.345  1.00  0.00     0.007 C 
HETATM   21  C   UNL     1     -45.175 -47.166   9.564  1.00  0.00     0.022 C 
HETATM   22  C   UNL     1     -43.349 -47.513   7.896  1.00  0.00     0.022 C 
HETATM   23  C   UNL     1     -43.191 -45.646   9.573  1.00  0.00     0.022 C 
ENDBRANCH   1  20
TORSDOF 3
ENDMDL
MODEL 4
REMARK VINA RESULT:      -5.6      3.842      6.065
REMARK  3 active torsions:
REMARK  status: ('A' for Active; 'I' for Inactive)
REMARK    1  A    between atoms: C_2  and  C_5 
REMARK    2  A    between atoms: C_9  and  N_10 
REMARK       I    between atoms: N_10  and  C_11 
REMARK       I    between atoms: C_11  and  N_13 
REMARK    3  A    between atoms: N_13  and  C_14 
ROOT
HETATM    1  C   UNL     1     -40.604 -46.313  11.289  1.00  0.00     0.088 A 
HETATM    2  N   UNL     1     -41.349 -46.836  10.302  1.00  0.00    -0.353 N 
ATOM      3  HN  UNL     1     -41.533 -46.314   9.445  1.00  0.00     0.166 HD
HETATM    4  C   UNL     1     -41.843 -48.079  10.484  1.00  0.00     0.120 A 
HETATM    5  C   UNL     1     -41.635 -48.841  11.615  1.00  0.00     0.067 A 
HETATM    6  C   UNL     1     -40.845 -48.216  12.564  1.00  0.00     0.120 A 
HETATM    7  N   UNL     1     -40.324 -46.971  12.433  1.00  0.00    -0.353 N 
ATOM      8  HN  UNL     1     -39.748 -46.552  13.164  1.00  0.00     0.166 HD
ENDROOT
BRANCH   5   9
HETATM    9  N   UNL     1     -42.144 -50.145  11.825  1.00  0.00    -0.306 N 
HETATM   10  C   UNL     1     -43.039 -50.491  12.810  1.00  0.00     0.321 C 
HETATM   11  O   UNL     1     -43.486 -49.740  13.670  1.00  0.00    -0.247 OA
HETATM   12  N   UNL     1     -43.460 -51.797  12.712  1.00  0.00    -0.338 N 
HETATM   13  H   UNL     1     -42.790 -52.473  12.373  1.00  0.00     0.164 HD
HETATM   14  H   UNL     1     -41.879 -50.867  11.169  1.00  0.00     0.171 HD
BRANCH  12  15
HETATM   15  C   UNL     1     -44.443 -52.297  13.684  1.00  0.00     0.093 C 
HETATM   16  C   UNL     1     -43.771 -53.151  14.777  1.00  0.00     0.052 C 
HETATM   17  C   UNL     1     -43.949 -54.544  14.253  1.00  0.00    -0.029 C 
HETATM   18  C   UNL     1     -44.873 -54.592  13.286  1.00  0.00    -0.029 C 
HETATM   19  C   UNL     1     -45.455 -53.239  13.016  1.00  0.00     0.052 C 
ENDBRANCH  12  15
ENDBRANCH   5   9
BRANCH   1  20
HETATM   20  C   UNL     1     -40.095 -44.884  11.108  1.00  0.00     0.007 C 
HETATM   21  C   UNL     1     -41.268 -43.881  11.031  1.00  0.00     0.022 C 
HETATM   22  C   UNL     1     -39.280 -44.771   9.810  1.00  0.00     0.022 C 
HETATM   23  C   UNL     1     -39.213 -44.505  12.310  1.00  0.00     0.022 C 
ENDBRANCH   1  20
TORSDOF 3
ENDMDL
MODEL 5
REMARK VINA RESULT:      -5.6      1.381      2.005
REMARK  3 active torsions:
REMARK  status: ('A' for Active; 'I' for Inactive)
REMARK    1  A    between atoms: C_2  and  C_5 
REMARK    2  A    between atoms: C_9  and  N_10 
REMARK       I    between atoms: N_10  and  C_11 
REMARK       I    between atoms: C_11  and  N_13 
REMARK    3  A    between atoms: N_13  and  C_14 
ROOT
HETATM    1  C   UNL     1     -43.306 -47.554  10.194  1.00  0.00     0.088 A 
HETATM    2  N   UNL     1     -43.603 -46.984  11.373  1.00  0.00    -0.353 N 
ATOM      3  HN  UNL     1     -44.411 -46.371  11.475  1.00  0.00     0.166 HD
HETATM    4  C   UNL     1     -42.792 -47.252  12.418  1.00  0.00     0.120 A 
HETATM    5  C   UNL     1     -41.682 -48.070  12.352  1.00  0.00     0.067 A 
HETATM    6  C   UNL     1     -41.474 -48.617  11.098  1.00  0.00     0.120 A 
HETATM    7  N   UNL     1     -42.255 -48.381  10.015  1.00  0.00    -0.353 N 
ATOM      8  HN  UNL     1     -42.058 -48.807   9.109  1.00  0.00     0.166 HD
ENDROOT
BRANCH   5   9
HETATM    9  N   UNL     1     -40.821 -48.365  13.436  1.00  0.00    -0.306 N 
HETATM   10  C   UNL     1     -39.781 -47.567  13.852  1.00  0.00     0.321 C 
HETATM   11  O   UNL     1     -39.422 -46.521  13.324  1.00  0.00    -0.247 OA
HETATM   12  N   UNL     1     -39.183 -48.030  15.002  1.00  0.00    -0.338 N 
HETATM   13  H   UNL     1     -39.139 -49.031  15.128  1.00  0.00     0.164 HD
HETATM   14  H   UNL     1     -41.016 -49.191  13.983  1.00  0.00     0.171 HD
BRANCH  12  15
HETATM   15  C   UNL     1     -38.074 -47.259  15.581  1.00  0.00     0.093 C 
HETATM   16  C   UNL     1     -36.708 -47.808  15.125  1.00  0.00     0.052 C 
HETATM   17  C   UNL     1     -36.335 -48.721  16.254  1.00  0.00    -0.029 C 
HETATM   18  C   UNL     1     -37.074 -48.484  17.344  1.00  0.00    -0.029 C 
HETATM   19  C   UNL     1     -38.054 -47.376  17.112  1.00  0.00     0.052 C 
ENDBRANCH  12  15
ENDBRANCH   5   9
BRANCH   1  20
HETATM   20  C   UNL     1     -44.188 -47.202   8.997  1.00  0.00     0.007 C 
HETATM   21  C   UNL     1     -45.631 -47.716   9.200  1.00  0.00     0.022 C 
HETATM   22  C   UNL     1     -43.627 -47.842   7.718  1.00  0.00     0.022 C 
HETATM   23  C   UNL     1     -44.238 -45.674   8.836  1.00  0.00     0.022 C 
ENDBRANCH   1  20
TORSDOF 3
ENDMDL
MODEL 6
REMARK VINA RESULT:      -5.3      3.437      8.182
REMARK  3 active torsions:
REMARK  status: ('A' for Active; 'I' for Inactive)
REMARK    1  A    between atoms: C_2  and  C_5 
REMARK    2  A    between atoms: C_9  and  N_10 
REMARK       I    between atoms: N_10  and  C_11 
REMARK       I    between atoms: C_11  and  N_13 
REMARK    3  A    between atoms: N_13  and  C_14 
ROOT
HETATM    1  C   UNL     1     -40.289 -53.036  14.468  1.00  0.00     0.088 A 
HETATM    2  N   UNL     1     -41.492 -53.253  13.914  1.00  0.00    -0.353 N 
ATOM      3  HN  UNL     1     -42.079 -54.032  14.212  1.00  0.00     0.166 HD
HETATM    4  C   UNL     1     -41.898 -52.401  12.949  1.00  0.00     0.120 A 
HETATM    5  C   UNL     1     -41.158 -51.328  12.496  1.00  0.00     0.067 A 
HETATM    6  C   UNL     1     -39.942 -51.186  13.141  1.00  0.00     0.120 A 
HETATM    7  N   UNL     1     -39.484 -52.012  14.115  1.00  0.00    -0.353 N 
ATOM      8  HN  UNL     1     -38.578 -51.866  14.559  1.00  0.00     0.166 HD
ENDROOT
BRANCH   5   9
HETATM    9  N   UNL     1     -41.566 -50.423  11.487  1.00  0.00    -0.306 N 
HETATM   10  C   UNL     1     -42.361 -49.321  11.694  1.00  0.00     0.321 C 
HETATM   11  O   UNL     1     -42.866 -48.989  12.760  1.00  0.00    -0.247 OA
HETATM   12  N   UNL     1     -42.503 -48.548  10.564  1.00  0.00    -0.338 N 
HETATM   13  H   UNL     1     -42.520 -49.028   9.676  1.00  0.00     0.164 HD
HETATM   14  H   UNL     1     -41.200 -50.561  10.554  1.00  0.00     0.171 HD
BRANCH  12  15
HETATM   15  C   UNL     1     -43.305 -47.318  10.646  1.00  0.00     0.093 C 
HETATM   16  C   UNL     1     -44.704 -47.516  10.033  1.00  0.00     0.052 C 
HETATM   17  C   UNL     1     -44.520 -47.007   8.635  1.00  0.00    -0.029 C 
HETATM   18  C   UNL     1     -43.403 -46.279   8.521  1.00  0.00    -0.029 C 
HETATM   19  C   UNL     1     -42.672 -46.187   9.824  1.00  0.00     0.052 C 
ENDBRANCH  12  15
ENDBRANCH   5   9
BRANCH   1  20
HETATM   20  C   UNL     1     -39.804 -54.034  15.518  1.00  0.00     0.007 C 
HETATM   21  C   UNL     1     -39.062 -53.316  16.668  1.00  0.00     0.022 C 
HETATM   22  C   UNL     1     -38.837 -55.046  14.882  1.00  0.00     0.022 C 
HETATM   23  C   UNL     1     -41.014 -54.774  16.111  1.00  0.00     0.022 C 
ENDBRANCH   1  20
TORSDOF 3
ENDMDL
MODEL 7
REMARK VINA RESULT:      -5.1      1.426      2.088
REMARK  3 active torsions:
REMARK  status: ('A' for Active; 'I' for Inactive)
REMARK    1  A    between atoms: C_2  and  C_5 
REMARK    2  A    between atoms: C_9  and  N_10 
REMARK       I    between atoms: N_10  and  C_11 
REMARK       I    between atoms: C_11  and  N_13 
REMARK    3  A    between atoms: N_13  and  C_14 
ROOT
HETATM    1  C   UNL     1     -43.146 -47.496  10.179  1.00  0.00     0.088 A 
HETATM    2  N   UNL     1     -43.484 -47.052  11.400  1.00  0.00    -0.353 N 
ATOM      3  HN  UNL     1     -44.371 -46.575  11.562  1.00  0.00     0.166 HD
HETATM    4  C   UNL     1     -42.608 -47.261  12.405  1.00  0.00     0.120 A 
HETATM    5  C   UNL     1     -41.392 -47.898  12.258  1.00  0.00     0.067 A 
HETATM    6  C   UNL     1     -41.147 -48.326  10.966  1.00  0.00     0.120 A 
HETATM    7  N   UNL     1     -41.990 -48.142   9.919  1.00  0.00    -0.353 N 
ATOM      8  HN  UNL     1     -41.762 -48.476   8.983  1.00  0.00     0.166 HD
ENDROOT
BRANCH   5   9
HETATM    9  N   UNL     1     -40.461 -48.127  13.299  1.00  0.00    -0.306 N 
HETATM   10  C   UNL     1     -39.905 -49.348  13.601  1.00  0.00     0.321 C 
HETATM   11  O   UNL     1     -40.166 -50.412  13.051  1.00  0.00    -0.247 OA
HETATM   12  N   UNL     1     -38.940 -49.266  14.579  1.00  0.00    -0.338 N 
HETATM   13  H   UNL     1     -39.075 -48.575  15.303  1.00  0.00     0.164 HD
HETATM   14  H   UNL     1     -40.133 -47.328  13.824  1.00  0.00     0.171 HD
BRANCH  12  15
HETATM   15  C   UNL     1     -38.237 -50.492  14.983  1.00  0.00     0.093 C 
HETATM   16  C   UNL     1     -38.873 -51.118  16.239  1.00  0.00     0.052 C 
HETATM   17  C   UNL     1     -38.022 -50.564  17.341  1.00  0.00    -0.029 C 
HETATM   18  C   UNL     1     -36.877 -50.057  16.871  1.00  0.00    -0.029 C 
HETATM   19  C   UNL     1     -36.785 -50.195  15.383  1.00  0.00     0.052 C 
ENDBRANCH  12  15
ENDBRANCH   5   9
BRANCH   1  20
HETATM   20  C   UNL     1     -44.110 -47.206   9.029  1.00  0.00     0.007 C 
HETATM   21  C   UNL     1     -43.609 -47.839   7.711  1.00  0.00     0.022 C 
HETATM   22  C   UNL     1     -44.240 -45.690   8.815  1.00  0.00     0.022 C 
HETATM   23  C   UNL     1     -45.487 -47.805   9.360  1.00  0.00     0.022 C 
ENDBRANCH   1  20
TORSDOF 3
ENDMDL
MODEL 8
REMARK VINA RESULT:      -5.0      7.610     11.538
REMARK  3 active torsions:
REMARK  status: ('A' for Active; 'I' for Inactive)
REMARK    1  A    between atoms: C_2  and  C_5 
REMARK    2  A    between atoms: C_9  and  N_10 
REMARK       I    between atoms: N_10  and  C_11 
REMARK       I    between atoms: C_11  and  N_13 
REMARK    3  A    between atoms: N_13  and  C_14 
ROOT
HETATM    1  C   UNL     1     -40.069 -56.967  17.942  1.00  0.00     0.088 A 
HETATM    2  N   UNL     1     -41.268 -56.717  18.491  1.00  0.00    -0.353 N 
ATOM      3  HN  UNL     1     -41.572 -57.195  19.339  1.00  0.00     0.166 HD
HETATM    4  C   UNL     1     -42.056 -55.807  17.880  1.00  0.00     0.120 A 
HETATM    5  C   UNL     1     -41.711 -55.123  16.732  1.00  0.00     0.067 A 
HETATM    6  C   UNL     1     -40.452 -55.445  16.257  1.00  0.00     0.120 A 
HETATM    7  N   UNL     1     -39.620 -56.350  16.829  1.00  0.00    -0.353 N 
ATOM      8  HN  UNL     1     -38.700 -56.554  16.438  1.00  0.00     0.166 HD
ENDROOT
BRANCH   5   9
HETATM    9  N   UNL     1     -42.523 -54.166  16.078  1.00  0.00    -0.306 N 
HETATM   10  C   UNL     1     -43.604 -54.465  15.282  1.00  0.00     0.321 C 
HETATM   11  O   UNL     1     -43.990 -55.590  14.987  1.00  0.00    -0.247 OA
HETATM   12  N   UNL     1     -44.287 -53.344  14.870  1.00  0.00    -0.338 N 
HETATM   13  H   UNL     1     -43.744 -52.509  14.699  1.00  0.00     0.164 HD
HETATM   14  H   UNL     1     -42.335 -53.188  16.252  1.00  0.00     0.171 HD
BRANCH  12  15
HETATM   15  C   UNL     1     -45.486 -53.513  14.036  1.00  0.00     0.093 C 
HETATM   16  C   UNL     1     -45.317 -52.835  12.663  1.00  0.00     0.052 C 
HETATM   17  C   UNL     1     -45.962 -51.500  12.882  1.00  0.00    -0.029 C 
HETATM   18  C   UNL     1     -46.723 -51.495  13.982  1.00  0.00    -0.029 C 
HETATM   19  C   UNL     1     -46.705 -52.826  14.668  1.00  0.00     0.052 C 
ENDBRANCH  12  15
ENDBRANCH   5   9
BRANCH   1  20
HETATM   20  C   UNL     1     -39.201 -58.040  18.598  1.00  0.00     0.007 C 
HETATM   21  C   UNL     1     -39.348 -59.395  17.871  1.00  0.00     0.022 C 
HETATM   22  C   UNL     1     -39.616 -58.234  20.065  1.00  0.00     0.022 C 
HETATM   23  C   UNL     1     -37.726 -57.611  18.527  1.00  0.00     0.022 C 
ENDBRANCH   1  20
TORSDOF 3
ENDMDL
MODEL 9
REMARK VINA RESULT:      -4.9     15.357     19.158
REMARK  3 active torsions:
REMARK  status: ('A' for Active; 'I' for Inactive)
REMARK    1  A    between atoms: C_2  and  C_5 
REMARK    2  A    between atoms: C_9  and  N_10 
REMARK       I    between atoms: N_10  and  C_11 
REMARK       I    between atoms: C_11  and  N_13 
REMARK    3  A    between atoms: N_13  and  C_14 
ROOT
HETATM    1  C   UNL     1     -52.514 -55.870  -2.860  1.00  0.00     0.088 A 
HETATM    2  N   UNL     1     -53.238 -55.402  -1.831  1.00  0.00    -0.353 N 
ATOM      3  HN  UNL     1     -54.161 -55.780  -1.617  1.00  0.00     0.166 HD
HETATM    4  C   UNL     1     -52.699 -54.411  -1.089  1.00  0.00     0.120 A 
HETATM    5  C   UNL     1     -51.458 -53.852  -1.320  1.00  0.00     0.067 A 
HETATM    6  C   UNL     1     -50.792 -54.415  -2.393  1.00  0.00     0.120 A 
HETATM    7  N   UNL     1     -51.285 -55.409  -3.173  1.00  0.00    -0.353 N 
ATOM      8  HN  UNL     1     -50.754 -55.790  -3.956  1.00  0.00     0.166 HD
ENDROOT
BRANCH   5   9
HETATM    9  N   UNL     1     -50.876 -52.815  -0.553  1.00  0.00    -0.306 N 
HETATM   10  C   UNL     1     -51.199 -51.482  -0.660  1.00  0.00     0.321 C 
HETATM   11  O   UNL     1     -51.994 -50.997  -1.457  1.00  0.00    -0.247 OA
HETATM   12  N   UNL     1     -50.571 -50.706   0.287  1.00  0.00    -0.338 N 
HETATM   13  H   UNL     1     -49.642 -50.983   0.569  1.00  0.00     0.164 HD
HETATM   14  H   UNL     1     -50.217 -53.074   0.168  1.00  0.00     0.171 HD
BRANCH  12  15
HETATM   15  C   UNL     1     -50.847 -49.262   0.312  1.00  0.00     0.093 C 
HETATM   16  C   UNL     1     -49.897 -48.491  -0.624  1.00  0.00     0.052 C 
HETATM   17  C   UNL     1     -48.812 -48.048   0.311  1.00  0.00    -0.029 C 
HETATM   18  C   UNL     1     -49.193 -48.148   1.589  1.00  0.00    -0.029 C 
HETATM   19  C   UNL     1     -50.591 -48.671   1.706  1.00  0.00     0.052 C 
ENDBRANCH  12  15
ENDBRANCH   5   9
BRANCH   1  20
HETATM   20  C   UNL     1     -53.149 -56.949  -3.737  1.00  0.00     0.007 C 
HETATM   21  C   UNL     1     -53.684 -58.118  -2.880  1.00  0.00     0.022 C 
HETATM   22  C   UNL     1     -52.112 -57.511  -4.722  1.00  0.00     0.022 C 
HETATM   23  C   UNL     1     -54.328 -56.340  -4.514  1.00  0.00     0.022 C 
ENDBRANCH   1  20
TORSDOF 3
ENDMDL
