MODEL 1
REMARK VINA RESULT:      -5.1      0.000      0.000
REMARK  4 active torsions:
REMARK  status: ('A' for Active; 'I' for Inactive)
REMARK    1  A    between atoms: C_1  and  N_2 
REMARK    2  A    between atoms: C_8  and  C_9 
REMARK    3  A    between atoms: C_9  and  O_15 
REMARK    4  A    between atoms: C_12  and  O_16 
ROOT
HETATM    1  N   UNL     1     -42.205 -47.002  11.007  1.00  0.00    -0.198 N 
HETATM    2  C   UNL     1     -42.710 -47.588  12.274  1.00  0.00     0.202 C 
HETATM    3  C   UNL     1     -40.743 -47.145  11.020  1.00  0.00     0.174 C 
HETATM    4  C   UNL     1     -41.741 -48.784  12.503  1.00  0.00     0.070 C 
HETATM    5  C   UNL     1     -40.595 -48.588  11.505  1.00  0.00     0.139 C 
ENDROOT
BRANCH   1   6
HETATM    6  C   UNL     1     -42.772 -45.921  10.421  1.00  0.00     0.708 A 
HETATM    7  N   UNL     1     -43.517 -45.979   9.265  1.00  0.00    -0.113 N 
HETATM    8  N   UNL     1     -43.953 -44.750   8.939  1.00  0.00     0.009 NA
HETATM    9  C   UNL     1     -44.025 -47.119   8.556  1.00  0.00     0.194 C 
HETATM   10  N   UNL     1     -43.520 -43.961   9.909  1.00  0.00     0.007 NA
HETATM   11  N   UNL     1     -42.837 -44.680  10.856  1.00  0.00    -0.117 N 
ATOM     12  HN  UNL     1     -42.453 -44.322  11.730  1.00  0.00     0.202 HD
ENDBRANCH   1   6
BRANCH   2  13
HETATM   13  C   UNL     1     -42.702 -46.652  13.505  1.00  0.00     0.164 C 
HETATM   14  O   UNL     1     -41.855 -46.686  14.389  1.00  0.00    -0.648 OA
BRANCH  13  15
HETATM   15  O   UNL     1     -43.754 -45.811  13.597  1.00  0.00    -0.775 OA
HETATM   16  H   UNL     1     -43.525 -44.873  13.400  1.00  0.00     0.167 HD
ENDBRANCH  13  15
ENDBRANCH   2  13
BRANCH   5  17
HETATM   17  O   UNL     1     -40.782 -49.481  10.396  1.00  0.00    -0.394 OA
HETATM   18  H   UNL     1     -41.604 -49.972  10.566  1.00  0.00     0.210 HD
ENDBRANCH   5  17
TORSDOF 4
ENDMDL
MODEL 2
REMARK VINA RESULT:      -5.0      6.189      7.666
REMARK  4 active torsions:
REMARK  status: ('A' for Active; 'I' for Inactive)
REMARK    1  A    between atoms: C_1  and  N_2 
REMARK    2  A    between atoms: C_8  and  C_9 
REMARK    3  A    between atoms: C_9  and  O_15 
REMARK    4  A    between atoms: C_12  and  O_16 
ROOT
HETATM    1  N   UNL     1     -43.138 -53.541  13.452  1.00  0.00    -0.198 N 
HETATM    2  C   UNL     1     -44.456 -53.797  12.818  1.00  0.00     0.202 C 
HETATM    3  C   UNL     1     -43.366 -53.466  14.901  1.00  0.00     0.174 C 
HETATM    4  C   UNL     1     -45.155 -54.725  13.853  1.00  0.00     0.070 C 
HETATM    5  C   UNL     1     -44.287 -54.669  15.115  1.00  0.00     0.139 C 
ENDROOT
BRANCH   1   6
HETATM    6  C   UNL     1     -42.185 -52.770  12.878  1.00  0.00     0.708 A 
HETATM    7  N   UNL     1     -40.834 -53.009  12.994  1.00  0.00    -0.113 N 
HETATM    8  N   UNL     1     -40.145 -52.082  12.307  1.00  0.00     0.009 NA
HETATM    9  C   UNL     1     -40.145 -54.152  13.522  1.00  0.00     0.194 C 
HETATM   10  N   UNL     1     -41.064 -51.316  11.742  1.00  0.00     0.007 NA
HETATM   11  N   UNL     1     -42.325 -51.763  12.043  1.00  0.00    -0.117 N 
ATOM     12  HN  UNL     1     -43.203 -51.386  11.686  1.00  0.00     0.202 HD
ENDBRANCH   1   6
BRANCH   2  13
HETATM   13  C   UNL     1     -45.329 -52.551  12.542  1.00  0.00     0.164 C 
HETATM   14  O   UNL     1     -45.209 -51.483  13.132  1.00  0.00    -0.648 OA
BRANCH  13  15
HETATM   15  O   UNL     1     -46.314 -52.724  11.636  1.00  0.00    -0.775 OA
HETATM   16  H   UNL     1     -46.508 -53.671  11.444  1.00  0.00     0.167 HD
ENDBRANCH  13  15
ENDBRANCH   2  13
BRANCH   5  17
HETATM   17  O   UNL     1     -43.494 -55.864  15.190  1.00  0.00    -0.394 OA
HETATM   18  H   UNL     1     -43.981 -56.489  15.754  1.00  0.00     0.210 HD
ENDBRANCH   5  17
TORSDOF 4
ENDMDL
MODEL 3
REMARK VINA RESULT:      -5.0      2.252      3.885
REMARK  4 active torsions:
REMARK  status: ('A' for Active; 'I' for Inactive)
REMARK    1  A    between atoms: C_1  and  N_2 
REMARK    2  A    between atoms: C_8  and  C_9 
REMARK    3  A    between atoms: C_9  and  O_15 
REMARK    4  A    between atoms: C_12  and  O_16 
ROOT
HETATM    1  N   UNL     1     -42.786 -46.032  10.015  1.00  0.00    -0.198 N 
HETATM    2  C   UNL     1     -43.253 -47.188  10.822  1.00  0.00     0.202 C 
HETATM    3  C   UNL     1     -43.146 -46.309   8.618  1.00  0.00     0.174 C 
HETATM    4  C   UNL     1     -44.574 -47.590  10.103  1.00  0.00     0.070 C 
HETATM    5  C   UNL     1     -44.581 -46.815   8.781  1.00  0.00     0.139 C 
ENDROOT
BRANCH   1   6
HETATM    6  C   UNL     1     -41.650 -45.351  10.297  1.00  0.00     0.708 A 
HETATM    7  N   UNL     1     -41.608 -44.225  11.088  1.00  0.00    -0.113 N 
HETATM    8  N   UNL     1     -40.342 -43.785  11.190  1.00  0.00     0.009 NA
HETATM    9  C   UNL     1     -42.624 -43.651  11.923  1.00  0.00     0.194 C 
HETATM   10  N   UNL     1     -39.617 -44.657  10.509  1.00  0.00     0.007 NA
HETATM   11  N   UNL     1     -40.405 -45.657  10.000  1.00  0.00    -0.117 N 
ATOM     12  HN  UNL     1     -40.086 -46.480   9.488  1.00  0.00     0.202 HD
ENDBRANCH   1   6
BRANCH   2  13
HETATM   13  C   UNL     1     -42.292 -48.398  10.891  1.00  0.00     0.164 C 
HETATM   14  O   UNL     1     -42.146 -49.103  11.883  1.00  0.00    -0.648 OA
BRANCH  13  15
HETATM   15  O   UNL     1     -41.542 -48.603   9.789  1.00  0.00    -0.775 OA
HETATM   16  H   UNL     1     -41.593 -47.867   9.136  1.00  0.00     0.167 HD
ENDBRANCH  13  15
ENDBRANCH   2  13
BRANCH   5  17
HETATM   17  O   UNL     1     -45.467 -45.692   8.902  1.00  0.00    -0.394 OA
HETATM   18  H   UNL     1     -44.909 -44.903   9.004  1.00  0.00     0.210 HD
ENDBRANCH   5  17
TORSDOF 4
ENDMDL
MODEL 4
REMARK VINA RESULT:      -4.9      4.971      6.830
REMARK  4 active torsions:
REMARK  status: ('A' for Active; 'I' for Inactive)
REMARK    1  A    between atoms: C_1  and  N_2 
REMARK    2  A    between atoms: C_8  and  C_9 
REMARK    3  A    between atoms: C_9  and  O_15 
REMARK    4  A    between atoms: C_12  and  O_16 
ROOT
HETATM    1  N   UNL     1     -42.889 -51.483  12.988  1.00  0.00    -0.198 N 
HETATM    2  C   UNL     1     -41.681 -51.290  12.146  1.00  0.00     0.202 C 
HETATM    3  C   UNL     1     -42.566 -50.975  14.327  1.00  0.00     0.174 C 
HETATM    4  C   UNL     1     -41.104 -49.949  12.685  1.00  0.00     0.070 C 
HETATM    5  C   UNL     1     -41.870 -49.657  13.979  1.00  0.00     0.139 C 
ENDROOT
BRANCH   1   6
HETATM    6  C   UNL     1     -43.717 -52.545  12.851  1.00  0.00     0.708 A 
HETATM    7  N   UNL     1     -45.076 -52.490  13.063  1.00  0.00    -0.113 N 
HETATM    8  N   UNL     1     -45.624 -53.697  12.839  1.00  0.00     0.009 NA
HETATM    9  C   UNL     1     -45.930 -51.353  13.258  1.00  0.00     0.194 C 
HETATM   10  N   UNL     1     -44.620 -54.465  12.449  1.00  0.00     0.007 NA
HETATM   11  N   UNL     1     -43.450 -53.753  12.400  1.00  0.00    -0.117 N 
ATOM     12  HN  UNL     1     -42.544 -54.094  12.076  1.00  0.00     0.202 HD
ENDBRANCH   1   6
BRANCH   2  13
HETATM   13  C   UNL     1     -40.612 -52.404  12.230  1.00  0.00     0.164 C 
HETATM   14  O   UNL     1     -39.719 -52.438  13.069  1.00  0.00    -0.648 OA
BRANCH  13  15
HETATM   15  O   UNL     1     -40.670 -53.335  11.255  1.00  0.00    -0.775 OA
HETATM   16  H   UNL     1     -41.588 -53.542  10.963  1.00  0.00     0.167 HD
ENDBRANCH  13  15
ENDBRANCH   2  13
BRANCH   5  17
HETATM   17  O   UNL     1     -42.863 -48.653  13.719  1.00  0.00    -0.394 OA
HETATM   18  H   UNL     1     -42.411 -47.921  13.266  1.00  0.00     0.210 HD
ENDBRANCH   5  17
TORSDOF 4
ENDMDL
MODEL 5
REMARK VINA RESULT:      -4.8      6.421      7.921
REMARK  4 active torsions:
REMARK  status: ('A' for Active; 'I' for Inactive)
REMARK    1  A    between atoms: C_1  and  N_2 
REMARK    2  A    between atoms: C_8  and  C_9 
REMARK    3  A    between atoms: C_9  and  O_15 
REMARK    4  A    between atoms: C_12  and  O_16 
ROOT
HETATM    1  N   UNL     1     -41.732 -53.540  13.690  1.00  0.00    -0.198 N 
HETATM    2  C   UNL     1     -41.285 -52.133  13.534  1.00  0.00     0.202 C 
HETATM    3  C   UNL     1     -40.608 -54.396  13.290  1.00  0.00     0.174 C 
HETATM    4  C   UNL     1     -39.784 -52.209  13.938  1.00  0.00     0.070 C 
HETATM    5  C   UNL     1     -39.444 -53.702  14.000  1.00  0.00     0.139 C 
ENDROOT
BRANCH   1   6
HETATM    6  C   UNL     1     -43.003 -53.938  13.447  1.00  0.00     0.708 A 
HETATM    7  N   UNL     1     -43.868 -54.380  14.422  1.00  0.00    -0.113 N 
HETATM    8  N   UNL     1     -45.055 -54.692  13.874  1.00  0.00     0.009 NA
HETATM    9  C   UNL     1     -43.740 -54.338  15.851  1.00  0.00     0.194 C 
HETATM   10  N   UNL     1     -44.930 -54.399  12.590  1.00  0.00     0.007 NA
HETATM   11  N   UNL     1     -43.688 -53.884  12.324  1.00  0.00    -0.117 N 
ATOM     12  HN  UNL     1     -43.359 -53.525  11.428  1.00  0.00     0.202 HD
ENDBRANCH   1   6
BRANCH   2  13
HETATM   13  C   UNL     1     -41.427 -51.531  12.117  1.00  0.00     0.164 C 
HETATM   14  O   UNL     1     -41.769 -50.376  11.892  1.00  0.00    -0.648 OA
BRANCH  13  15
HETATM   15  O   UNL     1     -41.218 -52.392  11.100  1.00  0.00    -0.775 OA
HETATM   16  H   UNL     1     -41.961 -52.424  10.453  1.00  0.00     0.167 HD
ENDBRANCH  13  15
ENDBRANCH   2  13
BRANCH   5  17
HETATM   17  O   UNL     1     -39.413 -54.117  15.374  1.00  0.00    -0.394 OA
HETATM   18  H   UNL     1     -39.379 -55.089  15.373  1.00  0.00     0.210 HD
ENDBRANCH   5  17
TORSDOF 4
ENDMDL
MODEL 6
REMARK VINA RESULT:      -4.7      6.092      7.293
REMARK  4 active torsions:
REMARK  status: ('A' for Active; 'I' for Inactive)
REMARK    1  A    between atoms: C_1  and  N_2 
REMARK    2  A    between atoms: C_8  and  C_9 
REMARK    3  A    between atoms: C_9  and  O_15 
REMARK    4  A    between atoms: C_12  and  O_16 
ROOT
HETATM    1  N   UNL     1     -43.907 -52.410  12.780  1.00  0.00    -0.198 N 
HETATM    2  C   UNL     1     -44.361 -51.307  13.664  1.00  0.00     0.202 C 
HETATM    3  C   UNL     1     -44.855 -53.518  12.954  1.00  0.00     0.174 C 
HETATM    4  C   UNL     1     -45.911 -51.429  13.588  1.00  0.00     0.070 C 
HETATM    5  C   UNL     1     -46.190 -52.772  12.906  1.00  0.00     0.139 C 
ENDROOT
BRANCH   1   6
HETATM    6  C   UNL     1     -42.600 -52.671  12.543  1.00  0.00     0.708 A 
HETATM    7  N   UNL     1     -41.836 -53.519  13.313  1.00  0.00    -0.113 N 
HETATM    8  N   UNL     1     -40.586 -53.581  12.822  1.00  0.00     0.009 NA
HETATM    9  C   UNL     1     -42.235 -54.433  14.345  1.00  0.00     0.194 C 
HETATM   10  N   UNL     1     -40.601 -52.819  11.740  1.00  0.00     0.007 NA
HETATM   11  N   UNL     1     -41.850 -52.296  11.528  1.00  0.00    -0.117 N 
ATOM     12  HN  UNL     1     -42.143 -51.726  10.734  1.00  0.00     0.202 HD
ENDBRANCH   1   6
BRANCH   2  13
HETATM   13  C   UNL     1     -43.890 -51.381  15.135  1.00  0.00     0.164 C 
HETATM   14  O   UNL     1     -44.508 -51.952  16.026  1.00  0.00    -0.648 OA
BRANCH  13  15
HETATM   15  O   UNL     1     -42.760 -50.700  15.415  1.00  0.00    -0.775 OA
HETATM   16  H   UNL     1     -42.715 -49.818  14.979  1.00  0.00     0.167 HD
ENDBRANCH  13  15
ENDBRANCH   2  13
BRANCH   5  17
HETATM   17  O   UNL     1     -46.550 -52.535  11.536  1.00  0.00    -0.394 OA
HETATM   18  H   UNL     1     -46.254 -51.634  11.320  1.00  0.00     0.210 HD
ENDBRANCH   5  17
TORSDOF 4
ENDMDL
MODEL 7
REMARK VINA RESULT:      -4.6      2.558      3.860
REMARK  4 active torsions:
REMARK  status: ('A' for Active; 'I' for Inactive)
REMARK    1  A    between atoms: C_1  and  N_2 
REMARK    2  A    between atoms: C_8  and  C_9 
REMARK    3  A    between atoms: C_9  and  O_15 
REMARK    4  A    between atoms: C_12  and  O_16 
ROOT
HETATM    1  N   UNL     1     -40.091 -47.390  12.106  1.00  0.00    -0.198 N 
HETATM    2  C   UNL     1     -39.239 -48.552  11.750  1.00  0.00     0.202 C 
HETATM    3  C   UNL     1     -40.374 -47.489  13.544  1.00  0.00     0.174 C 
HETATM    4  C   UNL     1     -38.354 -48.725  13.019  1.00  0.00     0.070 C 
HETATM    5  C   UNL     1     -38.988 -47.833  14.092  1.00  0.00     0.139 C 
ENDROOT
BRANCH   1   6
HETATM    6  C   UNL     1     -41.023 -46.879  11.268  1.00  0.00     0.708 A 
HETATM    7  N   UNL     1     -40.840 -45.737  10.521  1.00  0.00    -0.113 N 
HETATM    8  N   UNL     1     -41.935 -45.493   9.782  1.00  0.00     0.009 NA
HETATM    9  C   UNL     1     -39.647 -44.975  10.288  1.00  0.00     0.194 C 
HETATM   10  N   UNL     1     -42.757 -46.497  10.039  1.00  0.00     0.007 NA
HETATM   11  N   UNL     1     -42.185 -47.386  10.912  1.00  0.00    -0.117 N 
ATOM     12  HN  UNL     1     -42.583 -48.272  11.225  1.00  0.00     0.202 HD
ENDBRANCH   1   6
BRANCH   2  13
HETATM   13  C   UNL     1     -39.986 -49.870  11.437  1.00  0.00     0.164 C 
HETATM   14  O   UNL     1     -40.101 -50.799  12.228  1.00  0.00    -0.648 OA
BRANCH  13  15
HETATM   15  O   UNL     1     -40.461 -49.979  10.179  1.00  0.00    -0.775 OA
HETATM   16  H   UNL     1     -41.362 -50.376  10.133  1.00  0.00     0.167 HD
ENDBRANCH  13  15
ENDBRANCH   2  13
BRANCH   5  17
HETATM   17  O   UNL     1     -38.216 -46.629  14.216  1.00  0.00    -0.394 OA
HETATM   18  H   UNL     1     -37.549 -46.792  14.904  1.00  0.00     0.210 HD
ENDBRANCH   5  17
TORSDOF 4
ENDMDL
MODEL 8
REMARK VINA RESULT:      -4.6      6.368      7.117
REMARK  4 active torsions:
REMARK  status: ('A' for Active; 'I' for Inactive)
REMARK    1  A    between atoms: C_1  and  N_2 
REMARK    2  A    between atoms: C_8  and  C_9 
REMARK    3  A    between atoms: C_9  and  O_15 
REMARK    4  A    between atoms: C_12  and  O_16 
ROOT
HETATM    1  N   UNL     1     -43.469 -52.778  12.831  1.00  0.00    -0.198 N 
HETATM    2  C   UNL     1     -43.005 -54.079  13.374  1.00  0.00     0.202 C 
HETATM    3  C   UNL     1     -42.362 -51.825  12.991  1.00  0.00     0.174 C 
HETATM    4  C   UNL     1     -41.499 -54.092  12.980  1.00  0.00     0.070 C 
HETATM    5  C   UNL     1     -41.179 -52.669  12.512  1.00  0.00     0.139 C 
ENDROOT
BRANCH   1   6
HETATM    6  C   UNL     1     -44.749 -52.350  12.943  1.00  0.00     0.708 A 
HETATM    7  N   UNL     1     -45.228 -51.639  14.020  1.00  0.00    -0.113 N 
HETATM    8  N   UNL     1     -46.528 -51.350  13.835  1.00  0.00     0.009 NA
HETATM    9  C   UNL     1     -44.518 -51.031  15.109  1.00  0.00     0.194 C 
HETATM   10  N   UNL     1     -46.824 -51.836  12.641  1.00  0.00     0.007 NA
HETATM   11  N   UNL     1     -45.722 -52.407  12.058  1.00  0.00    -0.117 N 
ATOM     12  HN  UNL     1     -45.667 -52.801  11.119  1.00  0.00     0.202 HD
ENDBRANCH   1   6
BRANCH   2  13
HETATM   13  C   UNL     1     -43.159 -54.270  14.901  1.00  0.00     0.164 C 
HETATM   14  O   UNL     1     -42.330 -53.905  15.727  1.00  0.00    -0.648 OA
BRANCH  13  15
HETATM   15  O   UNL     1     -44.259 -54.947  15.290  1.00  0.00    -0.775 OA
HETATM   16  H   UNL     1     -44.130 -55.462  16.120  1.00  0.00     0.167 HD
ENDBRANCH  13  15
ENDBRANCH   2  13
BRANCH   5  17
HETATM   17  O   UNL     1     -41.135 -52.647  11.077  1.00  0.00    -0.394 OA
HETATM   18  H   UNL     1     -42.012 -52.361  10.772  1.00  0.00     0.210 HD
ENDBRANCH   5  17
TORSDOF 4
ENDMDL
MODEL 9
REMARK VINA RESULT:      -4.5      6.947      8.447
REMARK  4 active torsions:
REMARK  status: ('A' for Active; 'I' for Inactive)
REMARK    1  A    between atoms: C_1  and  N_2 
REMARK    2  A    between atoms: C_8  and  C_9 
REMARK    3  A    between atoms: C_9  and  O_15 
REMARK    4  A    between atoms: C_12  and  O_16 
ROOT
HETATM    1  N   UNL     1     -41.887 -53.827  14.389  1.00  0.00    -0.198 N 
HETATM    2  C   UNL     1     -42.987 -54.224  13.474  1.00  0.00     0.202 C 
HETATM    3  C   UNL     1     -42.509 -53.368  15.637  1.00  0.00     0.174 C 
HETATM    4  C   UNL     1     -44.034 -54.835  14.450  1.00  0.00     0.070 C 
HETATM    5  C   UNL     1     -43.560 -54.459  15.858  1.00  0.00     0.139 C 
ENDROOT
BRANCH   1   6
HETATM    6  C   UNL     1     -40.743 -53.249  13.953  1.00  0.00     0.708 A 
HETATM    7  N   UNL     1     -39.484 -53.721  14.250  1.00  0.00    -0.113 N 
HETATM    8  N   UNL     1     -38.555 -52.944  13.667  1.00  0.00     0.009 NA
HETATM    9  C   UNL     1     -39.087 -54.957  14.862  1.00  0.00     0.194 C 
HETATM   10  N   UNL     1     -39.238 -52.039  12.986  1.00  0.00     0.007 NA
HETATM   11  N   UNL     1     -40.587 -52.249  13.111  1.00  0.00    -0.117 N 
ATOM     12  HN  UNL     1     -41.329 -51.730  12.640  1.00  0.00     0.202 HD
ENDBRANCH   1   6
BRANCH   2  13
HETATM   13  C   UNL     1     -43.627 -53.083  12.649  1.00  0.00     0.164 C 
HETATM   14  O   UNL     1     -44.674 -52.522  12.951  1.00  0.00    -0.648 OA
BRANCH  13  15
HETATM   15  O   UNL     1     -42.991 -52.774  11.501  1.00  0.00    -0.775 OA
HETATM   16  H   UNL     1     -43.599 -52.496  10.778  1.00  0.00     0.167 HD
ENDBRANCH  13  15
ENDBRANCH   2  13
BRANCH   5  17
HETATM   17  O   UNL     1     -42.934 -55.602  16.462  1.00  0.00    -0.394 OA
HETATM   18  H   UNL     1     -43.397 -56.387  16.123  1.00  0.00     0.210 HD
ENDBRANCH   5  17
TORSDOF 4
ENDMDL
