MODEL 1
REMARK VINA RESULT:      -6.3      0.000      0.000
REMARK  4 active torsions:
REMARK  status: ('A' for Active; 'I' for Inactive)
REMARK    1  A    between atoms: N_6  and  C_7 
REMARK    2  A    between atoms: C_7  and  C_8 
REMARK    3  A    between atoms: C_8  and  O_9 
REMARK    4  A    between atoms: C_8  and  C_10 
ROOT
HETATM    1  C   UNL     1     -39.850 -51.758  12.936  1.00  0.00     0.169 C 
ENDROOT
BRANCH   1   2
HETATM    2  N   UNL     1     -39.933 -50.356  12.535  1.00  0.00    -0.307 N 
HETATM    3  C   UNL     1     -40.490 -50.015  11.331  1.00  0.00     0.186 A 
HETATM    4  N   UNL     1     -40.565 -48.814  10.866  1.00  0.00    -0.355 N 
HETATM    5  C   UNL     1     -40.056 -47.802  11.644  1.00  0.00     0.017 A 
ATOM      6  HN  UNL     1     -40.986 -48.623   9.957  1.00  0.00     0.166 HD
HETATM    7  C   UNL     1     -40.125 -46.436  11.012  1.00  0.00     0.069 C 
HETATM    8  C   UNL     1     -39.537 -47.987  12.873  1.00  0.00     0.028 A 
HETATM    9  C   UNL     1     -39.492 -49.377  13.398  1.00  0.00     0.256 A 
HETATM   10  C   UNL     1     -38.993 -46.892  13.736  1.00  0.00     0.056 C 
HETATM   11  O   UNL     1     -39.070 -49.623  14.525  1.00  0.00    -0.267 OA
ENDBRANCH   1   2
BRANCH   1  12
HETATM   12  C   UNL     1     -41.051 -52.607  12.451  1.00  0.00     0.171 C 
BRANCH  12  13
HETATM   13  O   UNL     1     -40.594 -53.448  11.383  1.00  0.00    -0.389 OA
HETATM   14  H   UNL     1     -39.629 -53.541  11.451  1.00  0.00     0.210 HD
ENDBRANCH  12  13
BRANCH  12  15
HETATM   15  C   UNL     1     -41.681 -53.496  13.518  1.00  0.00    -0.005 A 
HETATM   16  C   UNL     1     -40.896 -54.046  14.554  1.00  0.00     0.035 A 
HETATM   17  C   UNL     1     -41.448 -54.913  15.501  1.00  0.00     0.034 A 
HETATM   18 CL   UNL     1     -40.451 -55.559  16.744  1.00  0.00    -0.084 Cl
HETATM   19  C   UNL     1     -42.790 -55.262  15.442  1.00  0.00     0.025 A 
HETATM   20  C   UNL     1     -43.587 -54.737  14.427  1.00  0.00     0.026 A 
HETATM   21  C   UNL     1     -43.041 -53.863  13.473  1.00  0.00     0.043 A 
HETATM   22 CL   UNL     1     -44.115 -53.286  12.248  1.00  0.00    -0.084 Cl
ENDBRANCH  12  15
ENDBRANCH   1  12
TORSDOF 4
ENDMDL
MODEL 2
REMARK VINA RESULT:      -6.3      3.400      7.053
REMARK  4 active torsions:
REMARK  status: ('A' for Active; 'I' for Inactive)
REMARK    1  A    between atoms: N_6  and  C_7 
REMARK    2  A    between atoms: C_7  and  C_8 
REMARK    3  A    between atoms: C_8  and  O_9 
REMARK    4  A    between atoms: C_8  and  C_10 
ROOT
HETATM    1  C   UNL     1     -40.508 -49.367  12.655  1.00  0.00     0.169 C 
ENDROOT
BRANCH   1   2
HETATM    2  N   UNL     1     -41.319 -50.582  12.678  1.00  0.00    -0.307 N 
HETATM    3  C   UNL     1     -42.686 -50.500  12.651  1.00  0.00     0.186 A 
HETATM    4  N   UNL     1     -43.487 -51.509  12.716  1.00  0.00    -0.355 N 
HETATM    5  C   UNL     1     -42.924 -52.759  12.810  1.00  0.00     0.017 A 
ATOM      6  HN  UNL     1     -44.499 -51.384  12.698  1.00  0.00     0.166 HD
HETATM    7  C   UNL     1     -43.920 -53.881  12.942  1.00  0.00     0.069 C 
HETATM    8  C   UNL     1     -41.597 -52.990  12.786  1.00  0.00     0.028 A 
HETATM    9  C   UNL     1     -40.697 -51.811  12.678  1.00  0.00     0.256 A 
HETATM   10  C   UNL     1     -40.972 -54.346  12.873  1.00  0.00     0.056 C 
HETATM   11  O   UNL     1     -39.478 -51.941  12.609  1.00  0.00    -0.267 OA
ENDBRANCH   1   2
BRANCH   1  12
HETATM   12  C   UNL     1     -40.276 -48.812  11.229  1.00  0.00     0.171 C 
BRANCH  12  13
HETATM   13  O   UNL     1     -40.372 -49.906  10.307  1.00  0.00    -0.389 OA
HETATM   14  H   UNL     1     -40.316 -50.739  10.806  1.00  0.00     0.210 HD
ENDBRANCH  12  13
BRANCH  12  15
HETATM   15  C   UNL     1     -41.264 -47.736  10.791  1.00  0.00    -0.005 A 
HETATM   16  C   UNL     1     -42.367 -48.059   9.972  1.00  0.00     0.035 A 
HETATM   17  C   UNL     1     -43.244 -47.073   9.512  1.00  0.00     0.034 A 
HETATM   18 CL   UNL     1     -44.574 -47.518   8.515  1.00  0.00    -0.084 Cl
HETATM   19  C   UNL     1     -43.047 -45.741   9.845  1.00  0.00     0.025 A 
HETATM   20  C   UNL     1     -41.964 -45.392  10.649  1.00  0.00     0.026 A 
HETATM   21  C   UNL     1     -41.079 -46.377  11.118  1.00  0.00     0.043 A 
HETATM   22 CL   UNL     1     -39.760 -45.831  12.092  1.00  0.00    -0.084 Cl
ENDBRANCH  12  15
ENDBRANCH   1  12
TORSDOF 4
ENDMDL
MODEL 3
REMARK VINA RESULT:      -6.3      3.862      5.616
REMARK  4 active torsions:
REMARK  status: ('A' for Active; 'I' for Inactive)
REMARK    1  A    between atoms: N_6  and  C_7 
REMARK    2  A    between atoms: C_7  and  C_8 
REMARK    3  A    between atoms: C_8  and  O_9 
REMARK    4  A    between atoms: C_8  and  C_10 
ROOT
HETATM    1  C   UNL     1     -44.892 -55.186  14.031  1.00  0.00     0.169 C 
ENDROOT
BRANCH   1   2
HETATM    2  N   UNL     1     -43.807 -54.329  13.558  1.00  0.00    -0.307 N 
HETATM    3  C   UNL     1     -44.016 -53.463  12.518  1.00  0.00     0.186 A 
HETATM    4  N   UNL     1     -43.113 -52.703  11.998  1.00  0.00    -0.355 N 
HETATM    5  C   UNL     1     -41.850 -52.762  12.536  1.00  0.00     0.017 A 
ATOM      6  HN  UNL     1     -43.327 -52.082  11.218  1.00  0.00     0.166 HD
HETATM    7  C   UNL     1     -40.836 -51.892  11.840  1.00  0.00     0.069 C 
HETATM    8  C   UNL     1     -41.519 -53.523  13.598  1.00  0.00     0.028 A 
HETATM    9  C   UNL     1     -42.588 -54.365  14.198  1.00  0.00     0.256 A 
HETATM   10  C   UNL     1     -40.152 -53.585  14.202  1.00  0.00     0.056 C 
HETATM   11  O   UNL     1     -42.377 -55.055  15.192  1.00  0.00    -0.267 OA
ENDBRANCH   1   2
BRANCH   1  12
HETATM   12  C   UNL     1     -46.205 -54.415  14.311  1.00  0.00     0.171 C 
BRANCH  12  13
HETATM   13  O   UNL     1     -47.223 -55.375  14.625  1.00  0.00    -0.389 OA
HETATM   14  H   UNL     1     -47.441 -55.872  13.818  1.00  0.00     0.210 HD
ENDBRANCH  12  13
BRANCH  12  15
HETATM   15  C   UNL     1     -46.128 -53.414  15.458  1.00  0.00    -0.005 A 
HETATM   16  C   UNL     1     -45.865 -53.845  16.776  1.00  0.00     0.035 A 
HETATM   17  C   UNL     1     -45.854 -52.946  17.846  1.00  0.00     0.034 A 
HETATM   18 CL   UNL     1     -45.530 -53.521  19.435  1.00  0.00    -0.084 Cl
HETATM   19  C   UNL     1     -46.111 -51.598  17.639  1.00  0.00     0.025 A 
HETATM   20  C   UNL     1     -46.378 -51.145  16.349  1.00  0.00     0.026 A 
HETATM   21  C   UNL     1     -46.388 -52.041  15.268  1.00  0.00     0.043 A 
HETATM   22 CL   UNL     1     -46.749 -51.375  13.714  1.00  0.00    -0.084 Cl
ENDBRANCH  12  15
ENDBRANCH   1  12
TORSDOF 4
ENDMDL
MODEL 4
REMARK VINA RESULT:      -6.2      2.953      3.718
REMARK  4 active torsions:
REMARK  status: ('A' for Active; 'I' for Inactive)
REMARK    1  A    between atoms: N_6  and  C_7 
REMARK    2  A    between atoms: C_7  and  C_8 
REMARK    3  A    between atoms: C_8  and  O_9 
REMARK    4  A    between atoms: C_8  and  C_10 
ROOT
HETATM    1  C   UNL     1     -42.387 -53.474  13.217  1.00  0.00     0.169 C 
ENDROOT
BRANCH   1   2
HETATM    2  N   UNL     1     -41.348 -52.494  12.908  1.00  0.00    -0.307 N 
HETATM    3  C   UNL     1     -41.367 -51.821  11.716  1.00  0.00     0.186 A 
HETATM    4  N   UNL     1     -40.472 -50.976  11.332  1.00  0.00    -0.355 N 
HETATM    5  C   UNL     1     -39.427 -50.727  12.189  1.00  0.00     0.017 A 
ATOM      6  HN  UNL     1     -40.537 -50.510  10.427  1.00  0.00     0.166 HD
HETATM    7  C   UNL     1     -38.391 -49.777  11.648  1.00  0.00     0.069 C 
HETATM    8  C   UNL     1     -39.315 -51.272  13.416  1.00  0.00     0.028 A 
HETATM    9  C   UNL     1     -40.378 -52.218  13.846  1.00  0.00     0.256 A 
HETATM   10  C   UNL     1     -38.190 -50.999  14.364  1.00  0.00     0.056 C 
HETATM   11  O   UNL     1     -40.369 -52.725  14.965  1.00  0.00    -0.267 OA
ENDBRANCH   1   2
BRANCH   1  12
HETATM   12  C   UNL     1     -43.785 -53.073  12.685  1.00  0.00     0.171 C 
BRANCH  12  13
HETATM   13  O   UNL     1     -44.437 -54.261  12.216  1.00  0.00    -0.389 OA
HETATM   14  H   UNL     1     -44.385 -54.282  11.245  1.00  0.00     0.210 HD
ENDBRANCH  12  13
BRANCH  12  15
HETATM   15  C   UNL     1     -44.695 -52.407  13.712  1.00  0.00    -0.005 A 
HETATM   16  C   UNL     1     -44.296 -52.287  15.060  1.00  0.00     0.035 A 
HETATM   17  C   UNL     1     -45.145 -51.736  16.023  1.00  0.00     0.034 A 
HETATM   18 CL   UNL     1     -44.613 -51.613  17.654  1.00  0.00    -0.084 Cl
HETATM   19  C   UNL     1     -46.416 -51.298  15.677  1.00  0.00     0.025 A 
HETATM   20  C   UNL     1     -46.838 -51.408  14.354  1.00  0.00     0.026 A 
HETATM   21  C   UNL     1     -45.990 -51.957  13.379  1.00  0.00     0.043 A 
HETATM   22 CL   UNL     1     -46.622 -52.063  11.774  1.00  0.00    -0.084 Cl
ENDBRANCH  12  15
ENDBRANCH   1  12
TORSDOF 4
ENDMDL
MODEL 5
REMARK VINA RESULT:      -6.1      3.289      6.414
REMARK  4 active torsions:
REMARK  status: ('A' for Active; 'I' for Inactive)
REMARK    1  A    between atoms: N_6  and  C_7 
REMARK    2  A    between atoms: C_7  and  C_8 
REMARK    3  A    between atoms: C_8  and  O_9 
REMARK    4  A    between atoms: C_8  and  C_10 
ROOT
HETATM    1  C   UNL     1     -42.426 -52.222  12.064  1.00  0.00     0.169 C 
ENDROOT
BRANCH   1   2
HETATM    2  N   UNL     1     -43.555 -52.722  12.845  1.00  0.00    -0.307 N 
HETATM    3  C   UNL     1     -43.669 -54.060  13.114  1.00  0.00     0.186 A 
HETATM    4  N   UNL     1     -44.651 -54.603  13.750  1.00  0.00    -0.355 N 
HETATM    5  C   UNL     1     -45.650 -53.774  14.199  1.00  0.00     0.017 A 
ATOM      6  HN  UNL     1     -44.684 -55.609  13.914  1.00  0.00     0.166 HD
HETATM    7  C   UNL     1     -46.790 -54.486  14.880  1.00  0.00     0.069 C 
HETATM    8  C   UNL     1     -45.636 -52.434  14.058  1.00  0.00     0.028 A 
HETATM    9  C   UNL     1     -44.477 -51.831  13.349  1.00  0.00     0.256 A 
HETATM   10  C   UNL     1     -46.710 -51.519  14.554  1.00  0.00     0.056 C 
HETATM   11  O   UNL     1     -44.371 -50.615  13.215  1.00  0.00    -0.267 OA
ENDBRANCH   1   2
BRANCH   1  12
HETATM   12  C   UNL     1     -41.059 -52.775  12.540  1.00  0.00     0.171 C 
BRANCH  12  13
HETATM   13  O   UNL     1     -40.513 -53.574  11.482  1.00  0.00    -0.389 OA
HETATM   14  H   UNL     1     -40.834 -54.486  11.584  1.00  0.00     0.210 HD
ENDBRANCH  12  13
BRANCH  12  15
HETATM   15  C   UNL     1     -40.031 -51.711  12.909  1.00  0.00    -0.005 A 
HETATM   16  C   UNL     1     -40.062 -50.437  12.303  1.00  0.00     0.035 A 
HETATM   17  C   UNL     1     -39.088 -49.475  12.585  1.00  0.00     0.034 A 
HETATM   18 CL   UNL     1     -39.167 -47.936  11.819  1.00  0.00    -0.084 Cl
HETATM   19  C   UNL     1     -38.055 -49.753  13.469  1.00  0.00     0.025 A 
HETATM   20  C   UNL     1     -37.998 -51.004  14.079  1.00  0.00     0.026 A 
HETATM   21  C   UNL     1     -38.973 -51.976  13.804  1.00  0.00     0.043 A 
HETATM   22 CL   UNL     1     -38.796 -53.499  14.601  1.00  0.00    -0.084 Cl
ENDBRANCH  12  15
ENDBRANCH   1  12
TORSDOF 4
ENDMDL
MODEL 6
REMARK VINA RESULT:      -6.1      1.864      2.637
REMARK  4 active torsions:
REMARK  status: ('A' for Active; 'I' for Inactive)
REMARK    1  A    between atoms: N_6  and  C_7 
REMARK    2  A    between atoms: C_7  and  C_8 
REMARK    3  A    between atoms: C_8  and  O_9 
REMARK    4  A    between atoms: C_8  and  C_10 
ROOT
HETATM    1  C   UNL     1     -40.681 -51.395  12.722  1.00  0.00     0.169 C 
ENDROOT
BRANCH   1   2
HETATM    2  N   UNL     1     -41.141 -50.123  12.168  1.00  0.00    -0.307 N 
HETATM    3  C   UNL     1     -40.833 -49.780  10.879  1.00  0.00     0.186 A 
HETATM    4  N   UNL     1     -41.150 -48.664  10.317  1.00  0.00    -0.355 N 
HETATM    5  C   UNL     1     -41.859 -47.757  11.067  1.00  0.00     0.017 A 
ATOM      6  HN  UNL     1     -40.885 -48.462   9.353  1.00  0.00     0.166 HD
HETATM    7  C   UNL     1     -42.141 -46.454  10.364  1.00  0.00     0.069 C 
HETATM    8  C   UNL     1     -42.281 -47.988  12.325  1.00  0.00     0.028 A 
HETATM    9  C   UNL     1     -41.929 -49.296  12.938  1.00  0.00     0.256 A 
HETATM   10  C   UNL     1     -43.065 -47.015  13.147  1.00  0.00     0.056 C 
HETATM   11  O   UNL     1     -42.311 -49.598  14.065  1.00  0.00    -0.267 OA
ENDBRANCH   1   2
BRANCH   1  12
HETATM   12  C   UNL     1     -41.411 -52.623  12.125  1.00  0.00     0.171 C 
BRANCH  12  13
HETATM   13  O   UNL     1     -40.459 -53.375  11.360  1.00  0.00    -0.389 OA
HETATM   14  H   UNL     1     -40.215 -52.858  10.573  1.00  0.00     0.210 HD
ENDBRANCH  12  13
BRANCH  12  15
HETATM   15  C   UNL     1     -42.037 -53.559  13.154  1.00  0.00    -0.005 A 
HETATM   16  C   UNL     1     -43.415 -53.858  13.113  1.00  0.00     0.035 A 
HETATM   17  C   UNL     1     -44.013 -54.663  14.087  1.00  0.00     0.034 A 
HETATM   18 CL   UNL     1     -45.698 -54.997  13.995  1.00  0.00    -0.084 Cl
HETATM   19  C   UNL     1     -43.261 -55.188  15.129  1.00  0.00     0.025 A 
HETATM   20  C   UNL     1     -41.899 -54.906  15.196  1.00  0.00     0.026 A 
HETATM   21  C   UNL     1     -41.290 -54.100  14.221  1.00  0.00     0.043 A 
HETATM   22 CL   UNL     1     -39.598 -53.800  14.411  1.00  0.00    -0.084 Cl
ENDBRANCH  12  15
ENDBRANCH   1  12
TORSDOF 4
ENDMDL
MODEL 7
REMARK VINA RESULT:      -6.0      2.897      4.339
REMARK  4 active torsions:
REMARK  status: ('A' for Active; 'I' for Inactive)
REMARK    1  A    between atoms: N_6  and  C_7 
REMARK    2  A    between atoms: C_7  and  C_8 
REMARK    3  A    between atoms: C_8  and  O_9 
REMARK    4  A    between atoms: C_8  and  C_10 
ROOT
HETATM    1  C   UNL     1     -42.197 -53.764  14.426  1.00  0.00     0.169 C 
ENDROOT
BRANCH   1   2
HETATM    2  N   UNL     1     -41.761 -52.634  13.608  1.00  0.00    -0.307 N 
HETATM    3  C   UNL     1     -41.545 -52.797  12.266  1.00  0.00     0.186 A 
HETATM    4  N   UNL     1     -41.115 -51.877  11.471  1.00  0.00    -0.355 N 
HETATM    5  C   UNL     1     -40.865 -50.639  12.012  1.00  0.00     0.017 A 
ATOM      6  HN  UNL     1     -40.966 -52.061  10.479  1.00  0.00     0.166 HD
HETATM    7  C   UNL     1     -40.310 -49.635  11.036  1.00  0.00     0.069 C 
HETATM    8  C   UNL     1     -41.092 -50.322  13.301  1.00  0.00     0.028 A 
HETATM    9  C   UNL     1     -41.618 -51.393  14.189  1.00  0.00     0.256 A 
HETATM   10  C   UNL     1     -40.838 -48.975  13.900  1.00  0.00     0.056 C 
HETATM   11  O   UNL     1     -41.889 -51.173  15.367  1.00  0.00    -0.267 OA
ENDBRANCH   1   2
BRANCH   1  12
HETATM   12  C   UNL     1     -43.563 -54.347  13.989  1.00  0.00     0.171 C 
BRANCH  12  13
HETATM   13  O   UNL     1     -43.884 -55.431  14.871  1.00  0.00    -0.389 OA
HETATM   14  H   UNL     1     -43.161 -56.081  14.841  1.00  0.00     0.210 HD
ENDBRANCH  12  13
BRANCH  12  15
HETATM   15  C   UNL     1     -44.721 -53.356  14.017  1.00  0.00    -0.005 A 
HETATM   16  C   UNL     1     -45.378 -52.980  12.825  1.00  0.00     0.035 A 
HETATM   17  C   UNL     1     -46.399 -52.025  12.829  1.00  0.00     0.034 A 
HETATM   18 CL   UNL     1     -47.169 -51.599  11.350  1.00  0.00    -0.084 Cl
HETATM   19  C   UNL     1     -46.790 -51.413  14.011  1.00  0.00     0.025 A 
HETATM   20  C   UNL     1     -46.156 -51.762  15.202  1.00  0.00     0.026 A 
HETATM   21  C   UNL     1     -45.132 -52.722  15.208  1.00  0.00     0.043 A 
HETATM   22 CL   UNL     1     -44.402 -53.065  16.736  1.00  0.00    -0.084 Cl
ENDBRANCH  12  15
ENDBRANCH   1  12
TORSDOF 4
ENDMDL
MODEL 8
REMARK VINA RESULT:      -5.8      3.772      4.755
REMARK  4 active torsions:
REMARK  status: ('A' for Active; 'I' for Inactive)
REMARK    1  A    between atoms: N_6  and  C_7 
REMARK    2  A    between atoms: C_7  and  C_8 
REMARK    3  A    between atoms: C_8  and  O_9 
REMARK    4  A    between atoms: C_8  and  C_10 
ROOT
HETATM    1  C   UNL     1     -41.324 -52.616  14.086  1.00  0.00     0.169 C 
ENDROOT
BRANCH   1   2
HETATM    2  N   UNL     1     -42.738 -52.451  13.755  1.00  0.00    -0.307 N 
HETATM    3  C   UNL     1     -43.202 -52.802  12.516  1.00  0.00     0.186 A 
HETATM    4  N   UNL     1     -44.418 -52.651  12.113  1.00  0.00    -0.355 N 
HETATM    5  C   UNL     1     -45.315 -52.104  12.999  1.00  0.00     0.017 A 
ATOM      6  HN  UNL     1     -44.703 -52.926  11.173  1.00  0.00     0.166 HD
HETATM    7  C   UNL     1     -46.699 -51.903  12.439  1.00  0.00     0.069 C 
HETATM    8  C   UNL     1     -45.009 -51.770  14.268  1.00  0.00     0.028 A 
HETATM    9  C   UNL     1     -43.608 -51.986  14.716  1.00  0.00     0.256 A 
HETATM   10  C   UNL     1     -45.979 -51.188  15.247  1.00  0.00     0.056 C 
HETATM   11  O   UNL     1     -43.261 -51.744  15.870  1.00  0.00    -0.267 OA
ENDBRANCH   1   2
BRANCH   1  12
HETATM   12  C   UNL     1     -40.798 -54.049  13.829  1.00  0.00     0.171 C 
BRANCH  12  13
HETATM   13  O   UNL     1     -39.640 -53.951  12.988  1.00  0.00    -0.389 OA
HETATM   14  H   UNL     1     -39.354 -53.022  12.960  1.00  0.00     0.210 HD
ENDBRANCH  12  13
BRANCH  12  15
HETATM   15  C   UNL     1     -40.407 -54.823  15.084  1.00  0.00    -0.005 A 
HETATM   16  C   UNL     1     -39.053 -54.959  15.455  1.00  0.00     0.035 A 
HETATM   17  C   UNL     1     -38.677 -55.718  16.567  1.00  0.00     0.034 A 
HETATM   18 CL   UNL     1     -37.012 -55.856  16.978  1.00  0.00    -0.084 Cl
HETATM   19  C   UNL     1     -39.633 -56.367  17.335  1.00  0.00     0.025 A 
HETATM   20  C   UNL     1     -40.978 -56.253  16.989  1.00  0.00     0.026 A 
HETATM   21  C   UNL     1     -41.364 -55.490  15.876  1.00  0.00     0.043 A 
HETATM   22 CL   UNL     1     -43.056 -55.432  15.527  1.00  0.00    -0.084 Cl
ENDBRANCH  12  15
ENDBRANCH   1  12
TORSDOF 4
ENDMDL
MODEL 9
REMARK VINA RESULT:      -5.8      2.889      7.041
REMARK  4 active torsions:
REMARK  status: ('A' for Active; 'I' for Inactive)
REMARK    1  A    between atoms: N_6  and  C_7 
REMARK    2  A    between atoms: C_7  and  C_8 
REMARK    3  A    between atoms: C_8  and  O_9 
REMARK    4  A    between atoms: C_8  and  C_10 
ROOT
HETATM    1  C   UNL     1     -40.972 -52.077  11.944  1.00  0.00     0.169 C 
ENDROOT
BRANCH   1   2
HETATM    2  N   UNL     1     -41.413 -52.959  13.022  1.00  0.00    -0.307 N 
HETATM    3  C   UNL     1     -40.538 -53.340  14.004  1.00  0.00     0.186 A 
HETATM    4  N   UNL     1     -40.817 -54.151  14.967  1.00  0.00    -0.355 N 
HETATM    5  C   UNL     1     -42.092 -54.662  15.015  1.00  0.00     0.017 A 
ATOM      6  HN  UNL     1     -40.119 -54.403  15.666  1.00  0.00     0.166 HD
HETATM    7  C   UNL     1     -42.326 -55.646  16.131  1.00  0.00     0.069 C 
HETATM    8  C   UNL     1     -43.070 -54.326  14.151  1.00  0.00     0.028 A 
HETATM    9  C   UNL     1     -42.729 -53.364  13.069  1.00  0.00     0.256 A 
HETATM   10  C   UNL     1     -44.465 -54.863  14.200  1.00  0.00     0.056 C 
HETATM   11  O   UNL     1     -43.575 -52.977  12.267  1.00  0.00    -0.267 OA
ENDBRANCH   1   2
BRANCH   1  12
HETATM   12  C   UNL     1     -39.934 -51.022  12.401  1.00  0.00     0.171 C 
BRANCH  12  13
HETATM   13  O   UNL     1     -38.666 -51.375  11.832  1.00  0.00    -0.389 OA
HETATM   14  H   UNL     1     -38.119 -51.787  12.523  1.00  0.00     0.210 HD
ENDBRANCH  12  13
BRANCH  12  15
HETATM   15  C   UNL     1     -40.254 -49.589  11.992  1.00  0.00    -0.005 A 
HETATM   16  C   UNL     1     -41.280 -49.316  11.061  1.00  0.00     0.035 A 
HETATM   17  C   UNL     1     -41.541 -48.012  10.630  1.00  0.00     0.034 A 
HETATM   18 CL   UNL     1     -42.801 -47.730   9.493  1.00  0.00    -0.084 Cl
HETATM   19  C   UNL     1     -40.789 -46.947  11.105  1.00  0.00     0.025 A 
HETATM   20  C   UNL     1     -39.768 -47.188  12.021  1.00  0.00     0.026 A 
HETATM   21  C   UNL     1     -39.500 -48.494  12.462  1.00  0.00     0.043 A 
HETATM   22 CL   UNL     1     -38.200 -48.680  13.585  1.00  0.00    -0.084 Cl
ENDBRANCH  12  15
ENDBRANCH   1  12
TORSDOF 4
ENDMDL
