MODEL 1
REMARK VINA RESULT:      -6.1      0.000      0.000
REMARK  4 active torsions:
REMARK  status: ('A' for Active; 'I' for Inactive)
REMARK    1  A    between atoms: C_2  and  O_3 
REMARK    2  A    between atoms: O_3  and  C_4 
REMARK    3  A    between atoms: C_6  and  N_7 
REMARK       I    between atoms: N_7  and  C_8 
REMARK       I    between atoms: C_8  and  N_10 
REMARK    4  A    between atoms: N_10  and  C_11 
ROOT
HETATM    1  N   UNL     1     -39.733 -46.979  10.980  1.00  0.00    -0.337 N 
HETATM    2  C   UNL     1     -40.472 -48.119  11.223  1.00  0.00     0.322 C 
HETATM    3  O   UNL     1     -41.694 -48.120  11.172  1.00  0.00    -0.247 OA
HETATM    4  N   UNL     1     -39.667 -49.191  11.513  1.00  0.00    -0.288 N 
HETATM    5  H   UNL     1     -38.775 -47.006  11.297  1.00  0.00     0.164 HD
HETATM    6  H   UNL     1     -38.690 -49.046  11.705  1.00  0.00     0.172 HD
ENDROOT
BRANCH   1   7
HETATM    7  C   UNL     1     -40.378 -45.658  10.875  1.00  0.00     0.099 C 
HETATM    8  C   UNL     1     -39.617 -44.522  10.151  1.00  0.00     0.059 C 
HETATM    9  C   UNL     1     -40.347 -43.554  11.139  1.00  0.00     0.133 C 
HETATM   10  C   UNL     1     -40.300 -44.757  12.160  1.00  0.00     0.006 C 
HETATM   11  C   UNL     1     -41.428 -44.992  13.159  1.00  0.00     0.014 C 
HETATM   12  C   UNL     1     -39.033 -44.793  13.028  1.00  0.00     0.014 C 
HETATM   13  C   UNL     1     -40.830 -45.905  14.231  1.00  0.00     0.001 C 
HETATM   14  C   UNL     1     -39.317 -45.899  14.035  1.00  0.00     0.001 C 
BRANCH   9  15
HETATM   15  O   UNL     1     -41.652 -43.147  10.659  1.00  0.00    -0.385 OA
BRANCH  15  16
HETATM   16  C   UNL     1     -42.115 -41.850  11.002  1.00  0.00     0.163 C 
HETATM   17  C   UNL     1     -41.037 -41.175  11.827  1.00  0.00     0.033 C 
ENDBRANCH  15  16
ENDBRANCH   9  15
ENDBRANCH   1   7
BRANCH   4  18
HETATM   18  C   UNL     1     -40.097 -50.466  11.781  1.00  0.00     0.168 A 
HETATM   19  N   UNL     1     -40.838 -51.150  10.937  1.00  0.00    -0.279 N 
HETATM   20  N   UNL     1     -41.140 -52.413  11.412  1.00  0.00    -0.303 N 
ATOM     21  HN  UNL     1     -41.152 -50.791  10.036  1.00  0.00     0.189 HD
HETATM   22  C   UNL     1     -40.641 -52.607  12.614  1.00  0.00     0.160 A 
ATOM     23  HN  UNL     1     -41.683 -53.106  10.897  1.00  0.00     0.186 HD
HETATM   24  S   UNL     1     -39.774 -51.276  13.249  1.00  0.00    -0.046 SA
ENDBRANCH   4  18
TORSDOF 4
ENDMDL
MODEL 2
REMARK VINA RESULT:      -5.8      4.022      8.587
REMARK  4 active torsions:
REMARK  status: ('A' for Active; 'I' for Inactive)
REMARK    1  A    between atoms: C_2  and  O_3 
REMARK    2  A    between atoms: O_3  and  C_4 
REMARK    3  A    between atoms: C_6  and  N_7 
REMARK       I    between atoms: N_7  and  C_8 
REMARK       I    between atoms: C_8  and  N_10 
REMARK    4  A    between atoms: N_10  and  C_11 
ROOT
HETATM    1  N   UNL     1     -42.854 -51.288  12.432  1.00  0.00    -0.337 N 
HETATM    2  C   UNL     1     -42.079 -50.147  12.388  1.00  0.00     0.322 C 
HETATM    3  O   UNL     1     -41.187 -49.940  13.197  1.00  0.00    -0.247 OA
HETATM    4  N   UNL     1     -42.447 -49.326  11.352  1.00  0.00    -0.288 N 
HETATM    5  H   UNL     1     -43.715 -51.251  11.906  1.00  0.00     0.164 HD
HETATM    6  H   UNL     1     -43.305 -49.500  10.856  1.00  0.00     0.172 HD
ENDROOT
BRANCH   1   7
HETATM    7  C   UNL     1     -42.801 -52.204  13.585  1.00  0.00     0.099 C 
HETATM    8  C   UNL     1     -42.280 -53.643  13.361  1.00  0.00     0.059 C 
HETATM    9  C   UNL     1     -43.265 -54.059  14.501  1.00  0.00     0.133 C 
HETATM   10  C   UNL     1     -44.166 -52.868  13.991  1.00  0.00     0.006 C 
HETATM   11  C   UNL     1     -45.003 -52.038  14.959  1.00  0.00     0.014 C 
HETATM   12  C   UNL     1     -45.166 -53.264  12.894  1.00  0.00     0.014 C 
HETATM   13  C   UNL     1     -46.046 -51.336  14.087  1.00  0.00     0.001 C 
HETATM   14  C   UNL     1     -46.025 -52.019  12.722  1.00  0.00     0.001 C 
BRANCH   9  15
HETATM   15  O   UNL     1     -42.680 -53.926  15.820  1.00  0.00    -0.385 OA
BRANCH  15  16
HETATM   16  C   UNL     1     -42.975 -54.924  16.786  1.00  0.00     0.163 C 
HETATM   17  C   UNL     1     -42.103 -56.128  16.491  1.00  0.00     0.033 C 
ENDBRANCH  15  16
ENDBRANCH   9  15
ENDBRANCH   1   7
BRANCH   4  18
HETATM   18  C   UNL     1     -41.858 -48.129  11.031  1.00  0.00     0.168 A 
HETATM   19  N   UNL     1     -40.557 -48.001  10.890  1.00  0.00    -0.279 N 
HETATM   20  N   UNL     1     -40.192 -46.710  10.555  1.00  0.00    -0.303 N 
ATOM     21  HN  UNL     1     -39.893 -48.765  11.014  1.00  0.00     0.189 HD
HETATM   22  C   UNL     1     -41.239 -45.915  10.494  1.00  0.00     0.160 A 
ATOM     23  HN  UNL     1     -39.234 -46.412  10.378  1.00  0.00     0.186 HD
HETATM   24  S   UNL     1     -42.731 -46.675  10.840  1.00  0.00    -0.046 SA
ENDBRANCH   4  18
TORSDOF 4
ENDMDL
MODEL 3
REMARK VINA RESULT:      -5.5      4.507      8.463
REMARK  4 active torsions:
REMARK  status: ('A' for Active; 'I' for Inactive)
REMARK    1  A    between atoms: C_2  and  O_3 
REMARK    2  A    between atoms: O_3  and  C_4 
REMARK    3  A    between atoms: C_6  and  N_7 
REMARK       I    between atoms: N_7  and  C_8 
REMARK       I    between atoms: C_8  and  N_10 
REMARK    4  A    between atoms: N_10  and  C_11 
ROOT
HETATM    1  N   UNL     1     -43.328 -50.845  12.735  1.00  0.00    -0.337 N 
HETATM    2  C   UNL     1     -42.553 -49.708  12.630  1.00  0.00     0.322 C 
HETATM    3  O   UNL     1     -41.856 -49.315  13.554  1.00  0.00    -0.247 OA
HETATM    4  N   UNL     1     -42.680 -49.121  11.397  1.00  0.00    -0.288 N 
HETATM    5  H   UNL     1     -44.054 -50.943  12.040  1.00  0.00     0.164 HD
HETATM    6  H   UNL     1     -43.411 -49.419  10.774  1.00  0.00     0.172 HD
ENDROOT
BRANCH   1   7
HETATM    7  C   UNL     1     -43.535 -51.513  14.032  1.00  0.00     0.099 C 
HETATM    8  C   UNL     1     -42.737 -52.804  14.332  1.00  0.00     0.059 C 
HETATM    9  C   UNL     1     -43.978 -53.243  15.176  1.00  0.00     0.133 C 
HETATM   10  C   UNL     1     -44.825 -52.403  14.142  1.00  0.00     0.006 C 
HETATM   11  C   UNL     1     -46.075 -51.644  14.574  1.00  0.00     0.014 C 
HETATM   12  C   UNL     1     -45.293 -53.205  12.918  1.00  0.00     0.014 C 
HETATM   13  C   UNL     1     -46.843 -51.367  13.281  1.00  0.00     0.001 C 
HETATM   14  C   UNL     1     -46.229 -52.247  12.196  1.00  0.00     0.001 C 
BRANCH   9  15
HETATM   15  O   UNL     1     -43.927 -52.753  16.539  1.00  0.00    -0.385 OA
BRANCH  15  16
HETATM   16  C   UNL     1     -44.298 -53.641  17.583  1.00  0.00     0.163 C 
HETATM   17  C   UNL     1     -45.716 -54.106  17.313  1.00  0.00     0.033 C 
ENDBRANCH  15  16
ENDBRANCH   9  15
ENDBRANCH   1   7
BRANCH   4  18
HETATM   18  C   UNL     1     -42.025 -47.991  10.977  1.00  0.00     0.168 A 
HETATM   19  N   UNL     1     -40.713 -47.913  10.935  1.00  0.00    -0.279 N 
HETATM   20  N   UNL     1     -40.277 -46.687  10.469  1.00  0.00    -0.303 N 
ATOM     21  HN  UNL     1     -40.089 -48.670  11.214  1.00  0.00     0.189 HD
HETATM   22  C   UNL     1     -41.288 -45.882  10.215  1.00  0.00     0.160 A 
ATOM     23  HN  UNL     1     -39.297 -46.437  10.339  1.00  0.00     0.186 HD
HETATM   24  S   UNL     1     -42.829 -46.555  10.525  1.00  0.00    -0.046 SA
ENDBRANCH   4  18
TORSDOF 4
ENDMDL
MODEL 4
REMARK VINA RESULT:      -5.3      4.254      8.692
REMARK  4 active torsions:
REMARK  status: ('A' for Active; 'I' for Inactive)
REMARK    1  A    between atoms: C_2  and  O_3 
REMARK    2  A    between atoms: O_3  and  C_4 
REMARK    3  A    between atoms: C_6  and  N_7 
REMARK       I    between atoms: N_7  and  C_8 
REMARK       I    between atoms: C_8  and  N_10 
REMARK    4  A    between atoms: N_10  and  C_11 
ROOT
HETATM    1  N   UNL     1     -43.291 -51.019  12.442  1.00  0.00    -0.337 N 
HETATM    2  C   UNL     1     -42.730 -49.776  12.655  1.00  0.00     0.322 C 
HETATM    3  O   UNL     1     -41.965 -49.564  13.585  1.00  0.00    -0.247 OA
HETATM    4  N   UNL     1     -43.142 -48.867  11.714  1.00  0.00    -0.288 N 
HETATM    5  H   UNL     1     -44.094 -51.035  11.831  1.00  0.00     0.164 HD
HETATM    6  H   UNL     1     -43.907 -49.093  11.102  1.00  0.00     0.172 HD
ENDROOT
BRANCH   1   7
HETATM    7  C   UNL     1     -43.181 -52.090  13.448  1.00  0.00     0.099 C 
HETATM    8  C   UNL     1     -42.656 -53.474  12.998  1.00  0.00     0.059 C 
HETATM    9  C   UNL     1     -43.589 -54.065  14.105  1.00  0.00     0.133 C 
HETATM   10  C   UNL     1     -44.522 -52.827  13.809  1.00  0.00     0.006 C 
HETATM   11  C   UNL     1     -45.326 -52.157  14.918  1.00  0.00     0.014 C 
HETATM   12  C   UNL     1     -45.563 -53.076  12.706  1.00  0.00     0.014 C 
HETATM   13  C   UNL     1     -46.411 -51.353  14.198  1.00  0.00     0.001 C 
HETATM   14  C   UNL     1     -46.440 -51.833  12.750  1.00  0.00     0.001 C 
BRANCH   9  15
HETATM   15  O   UNL     1     -42.951 -54.114  15.405  1.00  0.00    -0.385 OA
BRANCH  15  16
HETATM   16  C   UNL     1     -42.594 -55.385  15.927  1.00  0.00     0.163 C 
HETATM   17  C   UNL     1     -41.097 -55.383  16.170  1.00  0.00     0.033 C 
ENDBRANCH  15  16
ENDBRANCH   9  15
ENDBRANCH   1   7
BRANCH   4  18
HETATM   18  C   UNL     1     -42.747 -47.555  11.641  1.00  0.00     0.168 A 
HETATM   19  N   UNL     1     -43.439 -46.581  12.190  1.00  0.00    -0.279 N 
HETATM   20  N   UNL     1     -42.846 -45.347  11.998  1.00  0.00    -0.303 N 
ATOM     21  HN  UNL     1     -44.313 -46.720  12.698  1.00  0.00     0.189 HD
HETATM   22  C   UNL     1     -41.749 -45.447  11.280  1.00  0.00     0.160 A 
ATOM     23  HN  UNL     1     -43.213 -44.470  12.368  1.00  0.00     0.186 HD
HETATM   24  S   UNL     1     -41.363 -47.038  10.787  1.00  0.00    -0.046 SA
ENDBRANCH   4  18
TORSDOF 4
ENDMDL
MODEL 5
REMARK VINA RESULT:      -5.3      5.418      8.515
REMARK  4 active torsions:
REMARK  status: ('A' for Active; 'I' for Inactive)
REMARK    1  A    between atoms: C_2  and  O_3 
REMARK    2  A    between atoms: O_3  and  C_4 
REMARK    3  A    between atoms: C_6  and  N_7 
REMARK       I    between atoms: N_7  and  C_8 
REMARK       I    between atoms: C_8  and  N_10 
REMARK    4  A    between atoms: N_10  and  C_11 
ROOT
HETATM    1  N   UNL     1     -43.408 -51.954  15.016  1.00  0.00    -0.337 N 
HETATM    2  C   UNL     1     -42.812 -51.055  14.156  1.00  0.00     0.322 C 
HETATM    3  O   UNL     1     -43.188 -49.895  14.071  1.00  0.00    -0.247 OA
HETATM    4  N   UNL     1     -41.788 -51.634  13.450  1.00  0.00    -0.288 N 
HETATM    5  H   UNL     1     -43.216 -52.928  14.832  1.00  0.00     0.164 HD
HETATM    6  H   UNL     1     -41.675 -52.634  13.461  1.00  0.00     0.172 HD
ENDROOT
BRANCH   1   7
HETATM    7  C   UNL     1     -44.670 -51.630  15.705  1.00  0.00     0.099 C 
HETATM    8  C   UNL     1     -45.042 -52.429  16.977  1.00  0.00     0.059 C 
HETATM    9  C   UNL     1     -46.529 -52.217  16.542  1.00  0.00     0.133 C 
HETATM   10  C   UNL     1     -45.972 -52.236  15.065  1.00  0.00     0.006 C 
HETATM   11  C   UNL     1     -46.593 -51.371  13.974  1.00  0.00     0.014 C 
HETATM   12  C   UNL     1     -45.919 -53.635  14.433  1.00  0.00     0.014 C 
HETATM   13  C   UNL     1     -46.121 -51.988  12.656  1.00  0.00     0.001 C 
HETATM   14  C   UNL     1     -45.544 -53.362  12.984  1.00  0.00     0.001 C 
BRANCH   9  15
HETATM   15  O   UNL     1     -47.077 -50.966  17.025  1.00  0.00    -0.385 OA
BRANCH  15  16
HETATM   16  C   UNL     1     -48.387 -50.977  17.572  1.00  0.00     0.163 C 
HETATM   17  C   UNL     1     -48.322 -51.674  18.917  1.00  0.00     0.033 C 
ENDBRANCH  15  16
ENDBRANCH   9  15
ENDBRANCH   1   7
BRANCH   4  18
HETATM   18  C   UNL     1     -40.989 -51.001  12.533  1.00  0.00     0.168 A 
HETATM   19  N   UNL     1     -41.412 -50.690  11.327  1.00  0.00    -0.279 N 
HETATM   20  N   UNL     1     -40.440 -50.049  10.581  1.00  0.00    -0.303 N 
ATOM     21  HN  UNL     1     -42.348 -50.899  10.981  1.00  0.00     0.189 HD
HETATM   22  C   UNL     1     -39.314 -49.938  11.253  1.00  0.00     0.160 A 
ATOM     23  HN  UNL     1     -40.579 -49.705   9.631  1.00  0.00     0.186 HD
HETATM   24  S   UNL     1     -39.355 -50.604  12.827  1.00  0.00    -0.046 SA
ENDBRANCH   4  18
TORSDOF 4
ENDMDL
MODEL 6
REMARK VINA RESULT:      -5.2      3.870      5.273
REMARK  4 active torsions:
REMARK  status: ('A' for Active; 'I' for Inactive)
REMARK    1  A    between atoms: C_2  and  O_3 
REMARK    2  A    between atoms: O_3  and  C_4 
REMARK    3  A    between atoms: C_6  and  N_7 
REMARK       I    between atoms: N_7  and  C_8 
REMARK       I    between atoms: C_8  and  N_10 
REMARK    4  A    between atoms: N_10  and  C_11 
ROOT
HETATM    1  N   UNL     1     -43.038 -46.114  11.741  1.00  0.00    -0.337 N 
HETATM    2  C   UNL     1     -43.502 -47.149  10.955  1.00  0.00     0.322 C 
HETATM    3  O   UNL     1     -43.197 -48.312  11.175  1.00  0.00    -0.247 OA
HETATM    4  N   UNL     1     -44.312 -46.694   9.946  1.00  0.00    -0.288 N 
HETATM    5  H   UNL     1     -43.119 -45.191  11.339  1.00  0.00     0.164 HD
HETATM    6  H   UNL     1     -44.355 -45.709   9.745  1.00  0.00     0.172 HD
ENDROOT
BRANCH   1   7
HETATM    7  C   UNL     1     -41.974 -46.328  12.739  1.00  0.00     0.099 C 
HETATM    8  C   UNL     1     -42.298 -46.070  14.229  1.00  0.00     0.059 C 
HETATM    9  C   UNL     1     -40.798 -45.652  14.369  1.00  0.00     0.133 C 
HETATM   10  C   UNL     1     -40.919 -45.170  12.871  1.00  0.00     0.006 C 
HETATM   11  C   UNL     1     -39.744 -45.282  11.906  1.00  0.00     0.014 C 
HETATM   12  C   UNL     1     -41.379 -43.713  12.716  1.00  0.00     0.014 C 
HETATM   13  C   UNL     1     -40.076 -44.327  10.757  1.00  0.00     0.001 C 
HETATM   14  C   UNL     1     -41.228 -43.443  11.225  1.00  0.00     0.001 C 
BRANCH   9  15
HETATM   15  O   UNL     1     -39.927 -46.779  14.631  1.00  0.00    -0.385 OA
BRANCH  15  16
HETATM   16  C   UNL     1     -38.690 -46.531  15.283  1.00  0.00     0.163 C 
HETATM   17  C   UNL     1     -37.625 -47.357  14.588  1.00  0.00     0.033 C 
ENDBRANCH  15  16
ENDBRANCH   9  15
ENDBRANCH   1   7
BRANCH   4  18
HETATM   18  C   UNL     1     -44.943 -47.475   9.012  1.00  0.00     0.168 A 
HETATM   19  N   UNL     1     -44.362 -47.836   7.889  1.00  0.00    -0.279 N 
HETATM   20  N   UNL     1     -45.182 -48.629   7.108  1.00  0.00    -0.303 N 
ATOM     21  HN  UNL     1     -43.415 -47.562   7.624  1.00  0.00     0.189 HD
HETATM   22  C   UNL     1     -46.361 -48.799   7.667  1.00  0.00     0.160 A 
ATOM     23  HN  UNL     1     -44.907 -49.031   6.212  1.00  0.00     0.186 HD
HETATM   24  S   UNL     1     -46.556 -48.010   9.171  1.00  0.00    -0.046 SA
ENDBRANCH   4  18
TORSDOF 4
ENDMDL
MODEL 7
REMARK VINA RESULT:      -5.2      3.185      7.450
REMARK  4 active torsions:
REMARK  status: ('A' for Active; 'I' for Inactive)
REMARK    1  A    between atoms: C_2  and  O_3 
REMARK    2  A    between atoms: O_3  and  C_4 
REMARK    3  A    between atoms: C_6  and  N_7 
REMARK       I    between atoms: N_7  and  C_8 
REMARK       I    between atoms: C_8  and  N_10 
REMARK    4  A    between atoms: N_10  and  C_11 
ROOT
HETATM    1  N   UNL     1     -42.657 -48.859  13.226  1.00  0.00    -0.337 N 
HETATM    2  C   UNL     1     -42.137 -48.208  12.126  1.00  0.00     0.322 C 
HETATM    3  O   UNL     1     -42.327 -48.611  10.987  1.00  0.00    -0.247 OA
HETATM    4  N   UNL     1     -41.413 -47.101  12.489  1.00  0.00    -0.288 N 
HETATM    5  H   UNL     1     -42.240 -48.618  14.112  1.00  0.00     0.164 HD
HETATM    6  H   UNL     1     -41.168 -46.958  13.454  1.00  0.00     0.172 HD
ENDROOT
BRANCH   1   7
HETATM    7  C   UNL     1     -43.272 -50.193  13.105  1.00  0.00     0.099 C 
HETATM    8  C   UNL     1     -44.158 -50.705  14.265  1.00  0.00     0.059 C 
HETATM    9  C   UNL     1     -43.657 -52.133  13.871  1.00  0.00     0.133 C 
HETATM   10  C   UNL     1     -42.328 -51.410  13.421  1.00  0.00     0.006 C 
HETATM   11  C   UNL     1     -41.523 -51.906  12.224  1.00  0.00     0.014 C 
HETATM   12  C   UNL     1     -41.278 -51.278  14.534  1.00  0.00     0.014 C 
HETATM   13  C   UNL     1     -40.136 -51.282  12.388  1.00  0.00     0.001 C 
HETATM   14  C   UNL     1     -40.051 -50.740  13.812  1.00  0.00     0.001 C 
BRANCH   9  15
HETATM   15  O   UNL     1     -44.463 -52.739  12.831  1.00  0.00    -0.385 OA
BRANCH  15  16
HETATM   16  C   UNL     1     -44.715 -54.134  12.909  1.00  0.00     0.163 C 
HETATM   17  C   UNL     1     -44.095 -54.647  14.194  1.00  0.00     0.033 C 
ENDBRANCH  15  16
ENDBRANCH   9  15
ENDBRANCH   1   7
BRANCH   4  18
HETATM   18  C   UNL     1     -40.789 -46.235  11.628  1.00  0.00     0.168 A 
HETATM   19  N   UNL     1     -40.079 -46.652  10.603  1.00  0.00    -0.279 N 
HETATM   20  N   UNL     1     -39.553 -45.603   9.870  1.00  0.00    -0.303 N 
ATOM     21  HN  UNL     1     -39.932 -47.635  10.375  1.00  0.00     0.189 HD
HETATM   22  C   UNL     1     -39.865 -44.441  10.403  1.00  0.00     0.160 A 
ATOM     23  HN  UNL     1     -38.995 -45.717   9.025  1.00  0.00     0.186 HD
HETATM   24  S   UNL     1     -40.810 -44.539  11.824  1.00  0.00    -0.046 SA
ENDBRANCH   4  18
TORSDOF 4
ENDMDL
MODEL 8
REMARK VINA RESULT:      -5.1      2.850      4.369
REMARK  4 active torsions:
REMARK  status: ('A' for Active; 'I' for Inactive)
REMARK    1  A    between atoms: C_2  and  O_3 
REMARK    2  A    between atoms: O_3  and  C_4 
REMARK    3  A    between atoms: C_6  and  N_7 
REMARK       I    between atoms: N_7  and  C_8 
REMARK       I    between atoms: C_8  and  N_10 
REMARK    4  A    between atoms: N_10  and  C_11 
ROOT
HETATM    1  N   UNL     1     -41.083 -50.419  12.385  1.00  0.00    -0.337 N 
HETATM    2  C   UNL     1     -42.367 -50.850  12.651  1.00  0.00     0.322 C 
HETATM    3  O   UNL     1     -43.302 -50.070  12.753  1.00  0.00    -0.247 OA
HETATM    4  N   UNL     1     -42.426 -52.215  12.776  1.00  0.00    -0.288 N 
HETATM    5  H   UNL     1     -40.351 -51.087  12.578  1.00  0.00     0.164 HD
HETATM    6  H   UNL     1     -41.576 -52.748  12.853  1.00  0.00     0.172 HD
ENDROOT
BRANCH   1   7
HETATM    7  C   UNL     1     -40.730 -48.989  12.438  1.00  0.00     0.099 C 
HETATM    8  C   UNL     1     -40.896 -48.141  11.155  1.00  0.00     0.059 C 
HETATM    9  C   UNL     1     -39.679 -47.310  11.681  1.00  0.00     0.133 C 
HETATM   10  C   UNL     1     -39.196 -48.661  12.338  1.00  0.00     0.006 C 
HETATM   11  C   UNL     1     -38.465 -48.674  13.676  1.00  0.00     0.014 C 
HETATM   12  C   UNL     1     -38.302 -49.517  11.428  1.00  0.00     0.014 C 
HETATM   13  C   UNL     1     -37.776 -50.038  13.744  1.00  0.00     0.001 C 
HETATM   14  C   UNL     1     -37.824 -50.636  12.341  1.00  0.00     0.001 C 
BRANCH   9  15
HETATM   15  O   UNL     1     -40.078 -46.245  12.578  1.00  0.00    -0.385 OA
BRANCH  15  16
HETATM   16  C   UNL     1     -39.649 -44.925  12.281  1.00  0.00     0.163 C 
HETATM   17  C   UNL     1     -39.643 -44.767  10.773  1.00  0.00     0.033 C 
ENDBRANCH  15  16
ENDBRANCH   9  15
ENDBRANCH   1   7
BRANCH   4  18
HETATM   18  C   UNL     1     -43.559 -52.948  13.020  1.00  0.00     0.168 A 
HETATM   19  N   UNL     1     -44.722 -52.644  12.487  1.00  0.00    -0.279 N 
HETATM   20  N   UNL     1     -45.717 -53.527  12.864  1.00  0.00    -0.303 N 
ATOM     21  HN  UNL     1     -44.873 -51.848  11.868  1.00  0.00     0.189 HD
HETATM   22  C   UNL     1     -45.261 -54.438  13.696  1.00  0.00     0.160 A 
ATOM     23  HN  UNL     1     -46.682 -53.478  12.539  1.00  0.00     0.186 HD
HETATM   24  S   UNL     1     -43.601 -54.287  14.079  1.00  0.00    -0.046 SA
ENDBRANCH   4  18
TORSDOF 4
ENDMDL
MODEL 9
REMARK VINA RESULT:      -4.8      2.082      2.652
REMARK  4 active torsions:
REMARK  status: ('A' for Active; 'I' for Inactive)
REMARK    1  A    between atoms: C_2  and  O_3 
REMARK    2  A    between atoms: O_3  and  C_4 
REMARK    3  A    between atoms: C_6  and  N_7 
REMARK       I    between atoms: N_7  and  C_8 
REMARK       I    between atoms: C_8  and  N_10 
REMARK    4  A    between atoms: N_10  and  C_11 
ROOT
HETATM    1  N   UNL     1     -41.233 -48.945  11.434  1.00  0.00    -0.337 N 
HETATM    2  C   UNL     1     -42.057 -49.862  12.055  1.00  0.00     0.322 C 
HETATM    3  O   UNL     1     -43.015 -49.516  12.731  1.00  0.00    -0.247 OA
HETATM    4  N   UNL     1     -41.657 -51.151  11.808  1.00  0.00    -0.288 N 
HETATM    5  H   UNL     1     -40.339 -49.300  11.127  1.00  0.00     0.164 HD
HETATM    6  H   UNL     1     -40.758 -51.324  11.390  1.00  0.00     0.172 HD
ENDROOT
BRANCH   1   7
HETATM    7  C   UNL     1     -41.324 -47.506  11.739  1.00  0.00     0.099 C 
HETATM    8  C   UNL     1     -40.578 -46.509  10.821  1.00  0.00     0.059 C 
HETATM    9  C   UNL     1     -40.410 -45.627  12.101  1.00  0.00     0.133 C 
HETATM   10  C   UNL     1     -40.386 -46.993  12.891  1.00  0.00     0.006 C 
HETATM   11  C   UNL     1     -40.987 -47.110  14.287  1.00  0.00     0.014 C 
HETATM   12  C   UNL     1     -38.984 -47.602  13.048  1.00  0.00     0.014 C 
HETATM   13  C   UNL     1     -40.378 -48.382  14.881  1.00  0.00     0.001 C 
HETATM   14  C   UNL     1     -39.204 -48.777  13.989  1.00  0.00     0.001 C 
BRANCH   9  15
HETATM   15  O   UNL     1     -41.543 -44.753  12.328  1.00  0.00    -0.385 OA
BRANCH  15  16
HETATM   16  C   UNL     1     -41.287 -43.429  12.773  1.00  0.00     0.163 C 
HETATM   17  C   UNL     1     -39.801 -43.313  13.052  1.00  0.00     0.033 C 
ENDBRANCH  15  16
ENDBRANCH   9  15
ENDBRANCH   1   7
BRANCH   4  18
HETATM   18  C   UNL     1     -42.278 -52.284  12.265  1.00  0.00     0.168 A 
HETATM   19  N   UNL     1     -43.385 -52.746  11.725  1.00  0.00    -0.279 N 
HETATM   20  N   UNL     1     -43.823 -53.904  12.342  1.00  0.00    -0.303 N 
ATOM     21  HN  UNL     1     -43.864 -52.302  10.942  1.00  0.00     0.189 HD
HETATM   22  C   UNL     1     -43.042 -54.239  13.346  1.00  0.00     0.160 A 
ATOM     23  HN  UNL     1     -44.648 -54.430  12.055  1.00  0.00     0.186 HD
HETATM   24  S   UNL     1     -41.728 -53.178  13.611  1.00  0.00    -0.046 SA
ENDBRANCH   4  18
TORSDOF 4
ENDMDL
