MODEL 1
REMARK VINA RESULT:      -6.4      0.000      0.000
REMARK  3 active torsions:
REMARK  status: ('A' for Active; 'I' for Inactive)
REMARK    1  A    between atoms: N_6  and  C_7 
REMARK    2  A    between atoms: C_7  and  C_8 
REMARK       I    between atoms: C_8  and  N_10 
REMARK    3  A    between atoms: N_10  and  C_11 
ROOT
HETATM    1  C   UNL     1     -41.401 -51.683  12.144  1.00  0.00     0.255 C 
ENDROOT
BRANCH   1   2
HETATM    2  N   UNL     1     -42.446 -52.546  12.694  1.00  0.00    -0.248 N 
HETATM    3  N   UNL     1     -43.681 -52.498  12.085  1.00  0.00    -0.305 N 
HETATM    4  C   UNL     1     -44.556 -53.366  12.483  1.00  0.00     0.133 A 
ATOM      5  HN  UNL     1     -43.895 -51.815  11.359  1.00  0.00     0.186 HD
HETATM    6  C   UNL     1     -44.357 -54.372  13.533  1.00  0.00     0.078 A 
HETATM    7 CL   UNL     1     -45.671 -55.421  13.873  1.00  0.00    -0.081 Cl
HETATM    8  C   UNL     1     -43.172 -54.386  14.142  1.00  0.00     0.126 A 
HETATM    9  C   UNL     1     -42.109 -53.427  13.724  1.00  0.00     0.285 A 
HETATM   10 CL   UNL     1     -42.774 -55.500  15.404  1.00  0.00    -0.076 Cl
HETATM   11  O   UNL     1     -41.002 -53.438  14.255  1.00  0.00    -0.265 OA
ENDBRANCH   1   2
BRANCH   1  12
HETATM   12  C   UNL     1     -41.725 -50.204  12.328  1.00  0.00     0.237 C 
HETATM   13  O   UNL     1     -41.763 -49.672  13.433  1.00  0.00    -0.272 OA
HETATM   14  N   UNL     1     -41.830 -49.481  11.155  1.00  0.00    -0.354 N 
HETATM   15  H   UNL     1     -41.869 -50.019  10.292  1.00  0.00     0.162 HD
BRANCH  14  16
HETATM   16  C   UNL     1     -42.127 -48.053  11.118  1.00  0.00     0.099 C 
HETATM   17  C   UNL     1     -43.074 -47.629   9.973  1.00  0.00     0.041 C 
HETATM   18  C   UNL     1     -42.810 -46.172   9.591  1.00  0.00     0.142 C 
HETATM   19  S   UNL     1     -41.515 -45.583  10.654  1.00  0.00     0.146 S 
HETATM   20  O   UNL     1     -40.538 -44.849   9.879  1.00  0.00    -0.228 OA
HETATM   21  O   UNL     1     -42.122 -45.031  11.849  1.00  0.00    -0.228 OA
HETATM   22  C   UNL     1     -40.876 -47.184  11.053  1.00  0.00     0.165 C 
ENDBRANCH  14  16
ENDBRANCH   1  12
TORSDOF 3
ENDMDL
MODEL 2
REMARK VINA RESULT:      -6.0      4.664      7.510
REMARK  3 active torsions:
REMARK  status: ('A' for Active; 'I' for Inactive)
REMARK    1  A    between atoms: N_6  and  C_7 
REMARK    2  A    between atoms: C_7  and  C_8 
REMARK       I    between atoms: C_8  and  N_10 
REMARK    3  A    between atoms: N_10  and  C_11 
ROOT
HETATM    1  C   UNL     1     -41.237 -50.752  11.990  1.00  0.00     0.255 C 
ENDROOT
BRANCH   1   2
HETATM    2  N   UNL     1     -41.547 -49.406  11.509  1.00  0.00    -0.248 N 
HETATM    3  N   UNL     1     -42.877 -49.098  11.328  1.00  0.00    -0.305 N 
HETATM    4  C   UNL     1     -43.152 -47.865  11.041  1.00  0.00     0.133 A 
ATOM      5  HN  UNL     1     -43.608 -49.803  11.416  1.00  0.00     0.186 HD
HETATM    6  C   UNL     1     -42.176 -46.781  10.871  1.00  0.00     0.078 A 
HETATM    7 CL   UNL     1     -42.791 -45.224  10.502  1.00  0.00    -0.081 Cl
HETATM    8  C   UNL     1     -40.889 -47.098  11.011  1.00  0.00     0.126 A 
HETATM    9  C   UNL     1     -40.499 -48.495  11.358  1.00  0.00     0.285 A 
HETATM   10 CL   UNL     1     -39.611 -45.946  10.836  1.00  0.00    -0.076 Cl
HETATM   11  O   UNL     1     -39.321 -48.803  11.515  1.00  0.00    -0.265 OA
ENDBRANCH   1   2
BRANCH   1  12
HETATM   12  C   UNL     1     -42.435 -51.406  12.669  1.00  0.00     0.237 C 
HETATM   13  O   UNL     1     -43.035 -50.876  13.599  1.00  0.00    -0.272 OA
HETATM   14  N   UNL     1     -42.882 -52.568  12.068  1.00  0.00    -0.354 N 
HETATM   15  H   UNL     1     -42.275 -52.976  11.360  1.00  0.00     0.162 HD
BRANCH  14  16
HETATM   16  C   UNL     1     -44.019 -53.339  12.561  1.00  0.00     0.099 C 
HETATM   17  C   UNL     1     -45.333 -52.535  12.672  1.00  0.00     0.041 C 
HETATM   18  C   UNL     1     -46.226 -53.144  13.755  1.00  0.00     0.142 C 
HETATM   19  S   UNL     1     -45.356 -54.542  14.420  1.00  0.00     0.146 S 
HETATM   20  O   UNL     1     -45.431 -54.528  15.864  1.00  0.00    -0.228 OA
HETATM   21  O   UNL     1     -45.712 -55.712  13.641  1.00  0.00    -0.228 OA
HETATM   22  C   UNL     1     -43.749 -54.009  13.903  1.00  0.00     0.165 C 
ENDBRANCH  14  16
ENDBRANCH   1  12
TORSDOF 3
ENDMDL
MODEL 3
REMARK VINA RESULT:      -6.0      4.221      5.016
REMARK  3 active torsions:
REMARK  status: ('A' for Active; 'I' for Inactive)
REMARK    1  A    between atoms: N_6  and  C_7 
REMARK    2  A    between atoms: C_7  and  C_8 
REMARK       I    between atoms: C_8  and  N_10 
REMARK    3  A    between atoms: N_10  and  C_11 
ROOT
HETATM    1  C   UNL     1     -42.332 -54.064  14.850  1.00  0.00     0.255 C 
ENDROOT
BRANCH   1   2
HETATM    2  N   UNL     1     -43.425 -53.420  14.123  1.00  0.00    -0.248 N 
HETATM    3  N   UNL     1     -43.456 -53.594  12.756  1.00  0.00    -0.305 N 
HETATM    4  C   UNL     1     -44.501 -53.144  12.138  1.00  0.00     0.133 A 
ATOM      5  HN  UNL     1     -42.695 -54.055  12.257  1.00  0.00     0.186 HD
HETATM    6  C   UNL     1     -45.637 -52.450  12.758  1.00  0.00     0.078 A 
HETATM    7 CL   UNL     1     -46.913 -51.958  11.724  1.00  0.00    -0.081 Cl
HETATM    8  C   UNL     1     -45.580 -52.253  14.075  1.00  0.00     0.126 A 
HETATM    9  C   UNL     1     -44.414 -52.760  14.855  1.00  0.00     0.285 A 
HETATM   10 CL   UNL     1     -46.828 -51.447  14.961  1.00  0.00    -0.076 Cl
HETATM   11  O   UNL     1     -44.353 -52.610  16.072  1.00  0.00    -0.265 OA
ENDBRANCH   1   2
BRANCH   1  12
HETATM   12  C   UNL     1     -40.975 -53.770  14.220  1.00  0.00     0.237 C 
HETATM   13  O   UNL     1     -40.459 -54.515  13.392  1.00  0.00    -0.272 OA
HETATM   14  N   UNL     1     -40.439 -52.537  14.541  1.00  0.00    -0.354 N 
HETATM   15  H   UNL     1     -40.893 -52.028  15.296  1.00  0.00     0.162 HD
BRANCH  14  16
HETATM   16  C   UNL     1     -39.154 -52.065  14.035  1.00  0.00     0.099 C 
HETATM   17  C   UNL     1     -38.371 -51.170  15.022  1.00  0.00     0.041 C 
HETATM   18  C   UNL     1     -37.455 -50.221  14.249  1.00  0.00     0.142 C 
HETATM   19  S   UNL     1     -37.682 -50.570  12.522  1.00  0.00     0.146 S 
HETATM   20  O   UNL     1     -37.815 -49.333  11.784  1.00  0.00    -0.228 OA
HETATM   21  O   UNL     1     -36.736 -51.598  12.138  1.00  0.00    -0.228 OA
HETATM   22  C   UNL     1     -39.271 -51.327  12.706  1.00  0.00     0.165 C 
ENDBRANCH  14  16
ENDBRANCH   1  12
TORSDOF 3
ENDMDL
MODEL 4
REMARK VINA RESULT:      -6.0      4.752      7.249
REMARK  3 active torsions:
REMARK  status: ('A' for Active; 'I' for Inactive)
REMARK    1  A    between atoms: N_6  and  C_7 
REMARK    2  A    between atoms: C_7  and  C_8 
REMARK       I    between atoms: C_8  and  N_10 
REMARK    3  A    between atoms: N_10  and  C_11 
ROOT
HETATM    1  C   UNL     1     -41.257 -52.331  11.747  1.00  0.00     0.255 C 
ENDROOT
BRANCH   1   2
HETATM    2  N   UNL     1     -40.790 -50.945  11.781  1.00  0.00    -0.248 N 
HETATM    3  N   UNL     1     -41.668 -49.978  11.342  1.00  0.00    -0.305 N 
HETATM    4  C   UNL     1     -41.304 -48.747  11.508  1.00  0.00     0.133 A 
ATOM      5  HN  UNL     1     -42.559 -50.220  10.909  1.00  0.00     0.186 HD
HETATM    6  C   UNL     1     -40.038 -48.295  12.098  1.00  0.00     0.078 A 
HETATM    7 CL   UNL     1     -39.792 -46.602  12.221  1.00  0.00    -0.081 Cl
HETATM    8  C   UNL     1     -39.179 -49.238  12.485  1.00  0.00     0.126 A 
HETATM    9  C   UNL     1     -39.539 -50.677  12.340  1.00  0.00     0.285 A 
HETATM   10 CL   UNL     1     -37.641 -48.879  13.191  1.00  0.00    -0.076 Cl
HETATM   11  O   UNL     1     -38.772 -51.562  12.711  1.00  0.00    -0.265 OA
ENDBRANCH   1   2
BRANCH   1  12
HETATM   12  C   UNL     1     -42.465 -52.549  12.650  1.00  0.00     0.237 C 
HETATM   13  O   UNL     1     -42.655 -51.887  13.666  1.00  0.00    -0.272 OA
HETATM   14  N   UNL     1     -43.400 -53.444  12.166  1.00  0.00    -0.354 N 
HETATM   15  H   UNL     1     -43.119 -54.005  11.365  1.00  0.00     0.162 HD
BRANCH  14  16
HETATM   16  C   UNL     1     -44.629 -53.785  12.878  1.00  0.00     0.099 C 
HETATM   17  C   UNL     1     -45.604 -52.601  13.065  1.00  0.00     0.041 C 
HETATM   18  C   UNL     1     -46.463 -52.827  14.310  1.00  0.00     0.142 C 
HETATM   19  S   UNL     1     -45.967 -54.382  15.009  1.00  0.00     0.146 S 
HETATM   20  O   UNL     1     -45.813 -54.252  16.442  1.00  0.00    -0.228 OA
HETATM   21  O   UNL     1     -46.775 -55.427  14.413  1.00  0.00    -0.228 OA
HETATM   22  C   UNL     1     -44.372 -54.417  14.241  1.00  0.00     0.165 C 
ENDBRANCH  14  16
ENDBRANCH   1  12
TORSDOF 3
ENDMDL
MODEL 5
REMARK VINA RESULT:      -5.9      4.877      7.995
REMARK  3 active torsions:
REMARK  status: ('A' for Active; 'I' for Inactive)
REMARK    1  A    between atoms: N_6  and  C_7 
REMARK    2  A    between atoms: C_7  and  C_8 
REMARK       I    between atoms: C_8  and  N_10 
REMARK    3  A    between atoms: N_10  and  C_11 
ROOT
HETATM    1  C   UNL     1     -41.790 -48.166  10.529  1.00  0.00     0.255 C 
ENDROOT
BRANCH   1   2
HETATM    2  N   UNL     1     -41.415 -46.811  10.932  1.00  0.00    -0.248 N 
HETATM    3  N   UNL     1     -40.364 -46.227  10.258  1.00  0.00    -0.305 N 
HETATM    4  C   UNL     1     -40.131 -44.980  10.520  1.00  0.00     0.133 A 
ATOM      5  HN  UNL     1     -39.800 -46.750   9.589  1.00  0.00     0.186 HD
HETATM    6  C   UNL     1     -40.867 -44.148  11.479  1.00  0.00     0.078 A 
HETATM    7 CL   UNL     1     -40.373 -42.514  11.639  1.00  0.00    -0.081 Cl
HETATM    8  C   UNL     1     -41.858 -44.733  12.153  1.00  0.00     0.126 A 
HETATM    9  C   UNL     1     -42.194 -46.162  11.891  1.00  0.00     0.285 A 
HETATM   10 CL   UNL     1     -42.819 -43.900  13.324  1.00  0.00    -0.076 Cl
HETATM   11  O   UNL     1     -43.117 -46.713  12.483  1.00  0.00    -0.265 OA
ENDBRANCH   1   2
BRANCH   1  12
HETATM   12  C   UNL     1     -40.869 -49.219  11.137  1.00  0.00     0.237 C 
HETATM   13  O   UNL     1     -39.691 -48.992  11.394  1.00  0.00    -0.272 OA
HETATM   14  N   UNL     1     -41.493 -50.395  11.508  1.00  0.00    -0.354 N 
HETATM   15  H   UNL     1     -42.447 -50.525  11.179  1.00  0.00     0.162 HD
BRANCH  14  16
HETATM   16  C   UNL     1     -40.788 -51.520  12.113  1.00  0.00     0.099 C 
HETATM   17  C   UNL     1     -41.427 -52.898  11.829  1.00  0.00     0.041 C 
HETATM   18  C   UNL     1     -41.090 -53.871  12.960  1.00  0.00     0.142 C 
HETATM   19  S   UNL     1     -40.083 -52.985  14.124  1.00  0.00     0.146 S 
HETATM   20  O   UNL     1     -40.542 -53.248  15.471  1.00  0.00    -0.228 OA
HETATM   21  O   UNL     1     -38.695 -53.144  13.739  1.00  0.00    -0.228 OA
HETATM   22  C   UNL     1     -40.611 -51.373  13.620  1.00  0.00     0.165 C 
ENDBRANCH  14  16
ENDBRANCH   1  12
TORSDOF 3
ENDMDL
MODEL 6
REMARK VINA RESULT:      -5.9      2.350      2.863
REMARK  3 active torsions:
REMARK  status: ('A' for Active; 'I' for Inactive)
REMARK    1  A    between atoms: N_6  and  C_7 
REMARK    2  A    between atoms: C_7  and  C_8 
REMARK       I    between atoms: C_8  and  N_10 
REMARK    3  A    between atoms: N_10  and  C_11 
ROOT
HETATM    1  C   UNL     1     -40.343 -49.967  11.211  1.00  0.00     0.255 C 
ENDROOT
BRANCH   1   2
HETATM    2  N   UNL     1     -40.838 -51.067  12.038  1.00  0.00    -0.248 N 
HETATM    3  N   UNL     1     -42.192 -51.320  11.997  1.00  0.00    -0.305 N 
HETATM    4  C   UNL     1     -42.602 -52.381  12.617  1.00  0.00     0.133 A 
ATOM      5  HN  UNL     1     -42.838 -50.704  11.504  1.00  0.00     0.186 HD
HETATM    6  C   UNL     1     -41.760 -53.317  13.372  1.00  0.00     0.078 A 
HETATM    7 CL   UNL     1     -42.540 -54.661  14.098  1.00  0.00    -0.081 Cl
HETATM    8  C   UNL     1     -40.457 -53.043  13.437  1.00  0.00     0.126 A 
HETATM    9  C   UNL     1     -39.912 -51.847  12.733  1.00  0.00     0.285 A 
HETATM   10 CL   UNL     1     -39.328 -54.036  14.291  1.00  0.00    -0.076 Cl
HETATM   11  O   UNL     1     -38.712 -51.589  12.760  1.00  0.00    -0.265 OA
ENDBRANCH   1   2
BRANCH   1  12
HETATM   12  C   UNL     1     -40.883 -48.618  11.672  1.00  0.00     0.237 C 
HETATM   13  O   UNL     1     -41.780 -48.517  12.503  1.00  0.00    -0.272 OA
HETATM   14  N   UNL     1     -40.192 -47.521  11.193  1.00  0.00    -0.354 N 
HETATM   15  H   UNL     1     -39.522 -47.695  10.447  1.00  0.00     0.162 HD
BRANCH  14  16
HETATM   16  C   UNL     1     -40.546 -46.143  11.524  1.00  0.00     0.099 C 
HETATM   17  C   UNL     1     -40.392 -45.148  10.352  1.00  0.00     0.041 C 
HETATM   18  C   UNL     1     -40.122 -43.744  10.895  1.00  0.00     0.142 C 
HETATM   19  S   UNL     1     -40.113 -43.864  12.666  1.00  0.00     0.146 S 
HETATM   20  O   UNL     1     -38.987 -43.132  13.204  1.00  0.00    -0.228 OA
HETATM   21  O   UNL     1     -41.466 -43.655  13.143  1.00  0.00    -0.228 OA
HETATM   22  C   UNL     1     -39.775 -45.600  12.722  1.00  0.00     0.165 C 
ENDBRANCH  14  16
ENDBRANCH   1  12
TORSDOF 3
ENDMDL
MODEL 7
REMARK VINA RESULT:      -5.8      1.325      1.783
REMARK  3 active torsions:
REMARK  status: ('A' for Active; 'I' for Inactive)
REMARK    1  A    between atoms: N_6  and  C_7 
REMARK    2  A    between atoms: C_7  and  C_8 
REMARK       I    between atoms: C_8  and  N_10 
REMARK    3  A    between atoms: N_10  and  C_11 
ROOT
HETATM    1  C   UNL     1     -40.635 -51.618  11.949  1.00  0.00     0.255 C 
ENDROOT
BRANCH   1   2
HETATM    2  N   UNL     1     -41.037 -52.548  13.004  1.00  0.00    -0.248 N 
HETATM    3  N   UNL     1     -42.389 -52.712  13.212  1.00  0.00    -0.305 N 
HETATM    4  C   UNL     1     -42.738 -53.639  14.046  1.00  0.00     0.133 A 
ATOM      5  HN  UNL     1     -43.079 -52.133  12.734  1.00  0.00     0.186 HD
HETATM    6  C   UNL     1     -41.826 -54.509  14.800  1.00  0.00     0.078 A 
HETATM    7 CL   UNL     1     -42.535 -55.675  15.838  1.00  0.00    -0.081 Cl
HETATM    8  C   UNL     1     -40.519 -54.317  14.620  1.00  0.00     0.126 A 
HETATM    9  C   UNL     1     -40.044 -53.278  13.661  1.00  0.00     0.285 A 
HETATM   10 CL   UNL     1     -39.310 -55.248  15.434  1.00  0.00    -0.076 Cl
HETATM   11  O   UNL     1     -38.846 -53.101  13.463  1.00  0.00    -0.265 OA
ENDBRANCH   1   2
BRANCH   1  12
HETATM   12  C   UNL     1     -41.229 -50.229  12.155  1.00  0.00     0.237 C 
HETATM   13  O   UNL     1     -41.483 -49.782  13.269  1.00  0.00    -0.272 OA
HETATM   14  N   UNL     1     -41.322 -49.460  11.010  1.00  0.00    -0.354 N 
HETATM   15  H   UNL     1     -41.170 -49.941  10.126  1.00  0.00     0.162 HD
BRANCH  14  16
HETATM   16  C   UNL     1     -41.855 -48.101  10.998  1.00  0.00     0.099 C 
HETATM   17  C   UNL     1     -42.765 -47.785   9.790  1.00  0.00     0.041 C 
HETATM   18  C   UNL     1     -42.723 -46.286   9.486  1.00  0.00     0.142 C 
HETATM   19  S   UNL     1     -41.638 -45.544  10.680  1.00  0.00     0.146 S 
HETATM   20  O   UNL     1     -40.741 -44.619  10.022  1.00  0.00    -0.228 OA
HETATM   21  O   UNL     1     -42.427 -45.162  11.835  1.00  0.00    -0.228 OA
HETATM   22  C   UNL     1     -40.770 -47.034  11.076  1.00  0.00     0.165 C 
ENDBRANCH  14  16
ENDBRANCH   1  12
TORSDOF 3
ENDMDL
MODEL 8
REMARK VINA RESULT:      -5.7      5.028      7.298
REMARK  3 active torsions:
REMARK  status: ('A' for Active; 'I' for Inactive)
REMARK    1  A    between atoms: N_6  and  C_7 
REMARK    2  A    between atoms: C_7  and  C_8 
REMARK       I    between atoms: C_8  and  N_10 
REMARK    3  A    between atoms: N_10  and  C_11 
ROOT
HETATM    1  C   UNL     1     -39.450 -52.276  13.743  1.00  0.00     0.255 C 
ENDROOT
BRANCH   1   2
HETATM    2  N   UNL     1     -39.411 -50.957  13.111  1.00  0.00    -0.248 N 
HETATM    3  N   UNL     1     -39.967 -50.849  11.856  1.00  0.00    -0.305 N 
HETATM    4  C   UNL     1     -40.057 -49.655  11.363  1.00  0.00     0.133 A 
ATOM      5  HN  UNL     1     -40.291 -51.667  11.340  1.00  0.00     0.186 HD
HETATM    6  C   UNL     1     -39.601 -48.418  12.012  1.00  0.00     0.078 A 
HETATM    7 CL   UNL     1     -39.844 -46.951  11.158  1.00  0.00    -0.081 Cl
HETATM    8  C   UNL     1     -39.031 -48.538  13.210  1.00  0.00     0.126 A 
HETATM    9  C   UNL     1     -38.909 -49.881  13.846  1.00  0.00     0.285 A 
HETATM   10 CL   UNL     1     -38.432 -47.186  14.107  1.00  0.00    -0.076 Cl
HETATM   11  O   UNL     1     -38.407 -50.011  14.959  1.00  0.00    -0.265 OA
ENDBRANCH   1   2
BRANCH   1  12
HETATM   12  C   UNL     1     -40.654 -53.093  13.287  1.00  0.00     0.237 C 
HETATM   13  O   UNL     1     -40.575 -53.943  12.405  1.00  0.00    -0.272 OA
HETATM   14  N   UNL     1     -41.801 -52.908  14.035  1.00  0.00    -0.354 N 
HETATM   15  H   UNL     1     -41.798 -52.126  14.686  1.00  0.00     0.162 HD
BRANCH  14  16
HETATM   16  C   UNL     1     -43.056 -53.602  13.763  1.00  0.00     0.099 C 
HETATM   17  C   UNL     1     -43.890 -52.985  12.619  1.00  0.00     0.041 C 
HETATM   18  C   UNL     1     -45.373 -53.294  12.831  1.00  0.00     0.142 C 
HETATM   19  S   UNL     1     -45.497 -54.253  14.320  1.00  0.00     0.146 S 
HETATM   20  O   UNL     1     -46.578 -53.752  15.140  1.00  0.00    -0.228 OA
HETATM   21  O   UNL     1     -45.382 -55.655  13.969  1.00  0.00    -0.228 OA
HETATM   22  C   UNL     1     -43.947 -53.728  14.994  1.00  0.00     0.165 C 
ENDBRANCH  14  16
ENDBRANCH   1  12
TORSDOF 3
ENDMDL
MODEL 9
REMARK VINA RESULT:      -5.7      4.665      7.697
REMARK  3 active torsions:
REMARK  status: ('A' for Active; 'I' for Inactive)
REMARK    1  A    between atoms: N_6  and  C_7 
REMARK    2  A    between atoms: C_7  and  C_8 
REMARK       I    between atoms: C_8  and  N_10 
REMARK    3  A    between atoms: N_10  and  C_11 
ROOT
HETATM    1  C   UNL     1     -40.705 -50.606  11.657  1.00  0.00     0.255 C 
ENDROOT
BRANCH   1   2
HETATM    2  N   UNL     1     -39.823 -49.886  12.575  1.00  0.00    -0.248 N 
HETATM    3  N   UNL     1     -38.779 -50.596  13.127  1.00  0.00    -0.305 N 
HETATM    4  C   UNL     1     -37.922 -49.919  13.823  1.00  0.00     0.133 A 
ATOM      5  HN  UNL     1     -38.686 -51.603  12.993  1.00  0.00     0.186 HD
HETATM    6  C   UNL     1     -37.978 -48.477  14.092  1.00  0.00     0.078 A 
HETATM    7 CL   UNL     1     -36.712 -47.807  15.037  1.00  0.00    -0.081 Cl
HETATM    8  C   UNL     1     -39.012 -47.805  13.586  1.00  0.00     0.126 A 
HETATM    9  C   UNL     1     -40.029 -48.517  12.760  1.00  0.00     0.285 A 
HETATM   10 CL   UNL     1     -39.234 -46.106  13.815  1.00  0.00    -0.076 Cl
HETATM   11  O   UNL     1     -40.977 -47.913  12.264  1.00  0.00    -0.265 OA
ENDBRANCH   1   2
BRANCH   1  12
HETATM   12  C   UNL     1     -41.090 -51.980  12.195  1.00  0.00     0.237 C 
HETATM   13  O   UNL     1     -40.287 -52.905  12.270  1.00  0.00    -0.272 OA
HETATM   14  N   UNL     1     -42.365 -52.062  12.721  1.00  0.00    -0.354 N 
HETATM   15  H   UNL     1     -42.984 -51.276  12.538  1.00  0.00     0.162 HD
BRANCH  14  16
HETATM   16  C   UNL     1     -42.920 -53.287  13.291  1.00  0.00     0.099 C 
HETATM   17  C   UNL     1     -44.176 -53.816  12.562  1.00  0.00     0.041 C 
HETATM   18  C   UNL     1     -45.041 -54.620  13.534  1.00  0.00     0.142 C 
HETATM   19  S   UNL     1     -44.209 -54.607  15.103  1.00  0.00     0.146 S 
HETATM   20  O   UNL     1     -45.157 -54.328  16.160  1.00  0.00    -0.228 OA
HETATM   21  O   UNL     1     -43.313 -55.745  15.152  1.00  0.00    -0.228 OA
HETATM   22  C   UNL     1     -43.242 -53.161  14.776  1.00  0.00     0.165 C 
ENDBRANCH  14  16
ENDBRANCH   1  12
TORSDOF 3
ENDMDL
