MODEL 1
REMARK VINA RESULT:      -6.7      0.000      0.000
REMARK  6 active torsions:
REMARK  status: ('A' for Active; 'I' for Inactive)
REMARK    1  A    between atoms: C_2  and  C_4 
REMARK    2  A    between atoms: C_4  and  N_5 
REMARK    3  A    between atoms: C_4  and  C_9 
REMARK       I    between atoms: N_5  and  C_6 
REMARK       I    between atoms: C_9  and  N_11 
REMARK    4  A    between atoms: N_11  and  C_12 
REMARK    5  A    between atoms: C_12  and  C_13 
REMARK    6  A    between atoms: C_19  and  N_20 
ROOT
HETATM    1  C   UNL     1     -43.412 -49.710  13.194  1.00  0.00     0.165 C 
ENDROOT
BRANCH   1   2
HETATM    2  N   UNL     1     -43.179 -49.238  11.845  1.00  0.00    -0.355 N 
HETATM    3  C   UNL     1     -43.119 -47.900  11.529  1.00  0.00     0.241 C 
HETATM    4  O   UNL     1     -43.291 -47.026  12.379  1.00  0.00    -0.271 OA
HETATM    5  H   UNL     1     -43.027 -49.914  11.108  1.00  0.00     0.162 HD
BRANCH   3   6
HETATM    6  C   UNL     1     -42.592 -47.588  10.102  1.00  0.00     0.179 C 
BRANCH   6   7
HETATM    7  C   UNL     1     -43.755 -47.426   9.088  1.00  0.00     0.009 C 
HETATM    8  C   UNL     1     -44.190 -45.958   8.961  1.00  0.00     0.012 C 
HETATM    9  C   UNL     1     -43.387 -47.938   7.690  1.00  0.00     0.012 C 
ENDBRANCH   6   7
BRANCH   6  10
HETATM   10  N   UNL     1     -41.778 -46.363  10.150  1.00  0.00    -0.348 N 
HETATM   11  C   UNL     1     -40.511 -46.380  10.692  1.00  0.00     0.214 C 
HETATM   12  O   UNL     1     -39.984 -47.384  11.154  1.00  0.00    -0.274 OA
HETATM   13  C   UNL     1     -39.812 -45.051  10.662  1.00  0.00     0.117 C 
HETATM   14  H   UNL     1     -42.143 -45.507   9.756  1.00  0.00     0.163 HD
ENDBRANCH   6  10
ENDBRANCH   3   6
ENDBRANCH   1   2
BRANCH   1  15
HETATM   15  C   UNL     1     -44.077 -51.060  13.168  1.00  0.00     0.004 A 
HETATM   16  C   UNL     1     -45.481 -51.079  13.268  1.00  0.00     0.014 A 
HETATM   17  C   UNL     1     -46.166 -52.281  13.270  1.00  0.00     0.018 A 
HETATM   18  C   UNL     1     -45.417 -53.432  13.169  1.00  0.00     0.089 A 
HETATM   19  N   UNL     1     -44.067 -53.452  13.079  1.00  0.00    -0.352 N 
HETATM   20  C   UNL     1     -43.383 -52.282  13.070  1.00  0.00     0.111 A 
ATOM     21  HN  UNL     1     -43.569 -54.340  13.017  1.00  0.00     0.166 HD
BRANCH  20  22
HETATM   22  N   UNL     1     -42.011 -52.363  13.064  1.00  0.00    -0.363 N 
HETATM   23  C   UNL     1     -41.316 -53.186  14.064  1.00  0.00     0.150 C 
HETATM   24  C   UNL     1     -40.008 -52.449  14.434  1.00  0.00     0.187 C 
HETATM   25  O   UNL     1     -39.192 -52.155  13.280  1.00  0.00    -0.388 OA
HETATM   26  C   UNL     1     -39.936 -51.396  12.307  1.00  0.00     0.187 C 
HETATM   27  C   UNL     1     -41.183 -52.180  11.871  1.00  0.00     0.150 C 
ENDBRANCH  20  22
ENDBRANCH   1  15
TORSDOF 6
ENDMDL
MODEL 2
REMARK VINA RESULT:      -6.6      2.548      6.072
REMARK  6 active torsions:
REMARK  status: ('A' for Active; 'I' for Inactive)
REMARK    1  A    between atoms: C_2  and  C_4 
REMARK    2  A    between atoms: C_4  and  N_5 
REMARK    3  A    between atoms: C_4  and  C_9 
REMARK       I    between atoms: N_5  and  C_6 
REMARK       I    between atoms: C_9  and  N_11 
REMARK    4  A    between atoms: N_11  and  C_12 
REMARK    5  A    between atoms: C_12  and  C_13 
REMARK    6  A    between atoms: C_19  and  N_20 
ROOT
HETATM    1  C   UNL     1     -42.663 -49.512  14.037  1.00  0.00     0.165 C 
ENDROOT
BRANCH   1   2
HETATM    2  N   UNL     1     -43.855 -50.334  14.034  1.00  0.00    -0.355 N 
HETATM    3  C   UNL     1     -43.926 -51.536  14.700  1.00  0.00     0.241 C 
HETATM    4  O   UNL     1     -42.963 -51.993  15.316  1.00  0.00    -0.271 OA
HETATM    5  H   UNL     1     -44.677 -50.004  13.547  1.00  0.00     0.162 HD
BRANCH   3   6
HETATM    6  C   UNL     1     -45.354 -52.136  14.814  1.00  0.00     0.179 C 
BRANCH   6   7
HETATM    7  C   UNL     1     -46.007 -51.797  16.181  1.00  0.00     0.009 C 
HETATM    8  C   UNL     1     -47.478 -51.387  16.016  1.00  0.00     0.012 C 
HETATM    9  C   UNL     1     -45.946 -52.972  17.165  1.00  0.00     0.012 C 
ENDBRANCH   6   7
BRANCH   6  10
HETATM   10  N   UNL     1     -46.179 -51.620  13.710  1.00  0.00    -0.348 N 
HETATM   11  C   UNL     1     -46.269 -52.307  12.519  1.00  0.00     0.214 C 
HETATM   12  O   UNL     1     -45.693 -53.365  12.300  1.00  0.00    -0.274 OA
HETATM   13  C   UNL     1     -47.152 -51.650  11.497  1.00  0.00     0.117 C 
HETATM   14  H   UNL     1     -46.706 -50.768  13.838  1.00  0.00     0.163 HD
ENDBRANCH   6  10
ENDBRANCH   3   6
ENDBRANCH   1   2
BRANCH   1  15
HETATM   15  C   UNL     1     -42.354 -49.033  12.644  1.00  0.00     0.004 A 
HETATM   16  C   UNL     1     -43.115 -47.952  12.159  1.00  0.00     0.014 A 
HETATM   17  C   UNL     1     -42.904 -47.466  10.882  1.00  0.00     0.018 A 
HETATM   18  C   UNL     1     -41.930 -48.080  10.126  1.00  0.00     0.089 A 
HETATM   19  N   UNL     1     -41.186 -49.125  10.556  1.00  0.00    -0.352 N 
HETATM   20  C   UNL     1     -41.377 -49.609  11.808  1.00  0.00     0.111 A 
ATOM     21  HN  UNL     1     -40.485 -49.544   9.944  1.00  0.00     0.166 HD
BRANCH  20  22
HETATM   22  N   UNL     1     -40.655 -50.724  12.161  1.00  0.00    -0.363 N 
HETATM   23  C   UNL     1     -41.144 -52.063  11.805  1.00  0.00     0.150 C 
HETATM   24  C   UNL     1     -40.777 -53.009  12.971  1.00  0.00     0.187 C 
HETATM   25  O   UNL     1     -39.366 -52.988  13.280  1.00  0.00    -0.388 OA
HETATM   26  C   UNL     1     -38.925 -51.646  13.566  1.00  0.00     0.187 C 
HETATM   27  C   UNL     1     -39.205 -50.734  12.363  1.00  0.00     0.150 C 
ENDBRANCH  20  22
ENDBRANCH   1  15
TORSDOF 6
ENDMDL
MODEL 3
REMARK VINA RESULT:      -6.4      2.274      3.752
REMARK  6 active torsions:
REMARK  status: ('A' for Active; 'I' for Inactive)
REMARK    1  A    between atoms: C_2  and  C_4 
REMARK    2  A    between atoms: C_4  and  N_5 
REMARK    3  A    between atoms: C_4  and  C_9 
REMARK       I    between atoms: N_5  and  C_6 
REMARK       I    between atoms: C_9  and  N_11 
REMARK    4  A    between atoms: N_11  and  C_12 
REMARK    5  A    between atoms: C_12  and  C_13 
REMARK    6  A    between atoms: C_19  and  N_20 
ROOT
HETATM    1  C   UNL     1     -41.529 -50.310  12.092  1.00  0.00     0.165 C 
ENDROOT
BRANCH   1   2
HETATM    2  N   UNL     1     -41.730 -49.379  11.001  1.00  0.00    -0.355 N 
HETATM    3  C   UNL     1     -42.537 -48.270  11.114  1.00  0.00     0.241 C 
HETATM    4  O   UNL     1     -43.158 -48.023  12.147  1.00  0.00    -0.271 OA
HETATM    5  H   UNL     1     -41.240 -49.532  10.130  1.00  0.00     0.162 HD
BRANCH   3   6
HETATM    6  C   UNL     1     -42.412 -47.251   9.948  1.00  0.00     0.179 C 
BRANCH   6   7
HETATM    7  C   UNL     1     -43.692 -47.231   9.071  1.00  0.00     0.009 C 
HETATM    8  C   UNL     1     -44.213 -45.800   8.867  1.00  0.00     0.012 C 
HETATM    9  C   UNL     1     -43.464 -47.858   7.690  1.00  0.00     0.012 C 
ENDBRANCH   6   7
BRANCH   6  10
HETATM   10  N   UNL     1     -42.153 -45.914  10.507  1.00  0.00    -0.348 N 
HETATM   11  C   UNL     1     -40.865 -45.499  10.768  1.00  0.00     0.214 C 
HETATM   12  O   UNL     1     -39.874 -46.187  10.558  1.00  0.00    -0.274 OA
HETATM   13  C   UNL     1     -40.770 -44.111  11.333  1.00  0.00     0.117 C 
HETATM   14  H   UNL     1     -42.925 -45.285  10.673  1.00  0.00     0.163 HD
ENDBRANCH   6  10
ENDBRANCH   3   6
ENDBRANCH   1   2
BRANCH   1  15
HETATM   15  C   UNL     1     -40.060 -50.522  12.336  1.00  0.00     0.004 A 
HETATM   16  C   UNL     1     -39.171 -49.689  11.629  1.00  0.00     0.014 A 
HETATM   17  C   UNL     1     -37.804 -49.833  11.783  1.00  0.00     0.018 A 
HETATM   18  C   UNL     1     -37.368 -50.812  12.649  1.00  0.00     0.089 A 
HETATM   19  N   UNL     1     -38.192 -51.634  13.338  1.00  0.00    -0.352 N 
HETATM   20  C   UNL     1     -39.534 -51.501  13.201  1.00  0.00     0.111 A 
ATOM     21  HN  UNL     1     -37.806 -52.348  13.957  1.00  0.00     0.166 HD
BRANCH  20  22
HETATM   22  N   UNL     1     -40.321 -52.418  13.857  1.00  0.00    -0.363 N 
HETATM   23  C   UNL     1     -40.458 -53.783  13.331  1.00  0.00     0.150 C 
HETATM   24  C   UNL     1     -41.913 -54.232  13.599  1.00  0.00     0.187 C 
HETATM   25  O   UNL     1     -42.279 -54.125  14.991  1.00  0.00    -0.388 OA
HETATM   26  C   UNL     1     -42.073 -52.783  15.473  1.00  0.00     0.187 C 
HETATM   27  C   UNL     1     -40.602 -52.380  15.293  1.00  0.00     0.150 C 
ENDBRANCH  20  22
ENDBRANCH   1  15
TORSDOF 6
ENDMDL
MODEL 4
REMARK VINA RESULT:      -6.3      2.394      7.377
REMARK  6 active torsions:
REMARK  status: ('A' for Active; 'I' for Inactive)
REMARK    1  A    between atoms: C_2  and  C_4 
REMARK    2  A    between atoms: C_4  and  N_5 
REMARK    3  A    between atoms: C_4  and  C_9 
REMARK       I    between atoms: N_5  and  C_6 
REMARK       I    between atoms: C_9  and  N_11 
REMARK    4  A    between atoms: N_11  and  C_12 
REMARK    5  A    between atoms: C_12  and  C_13 
REMARK    6  A    between atoms: C_19  and  N_20 
ROOT
HETATM    1  C   UNL     1     -40.735 -49.936  13.948  1.00  0.00     0.165 C 
ENDROOT
BRANCH   1   2
HETATM    2  N   UNL     1     -41.157 -51.291  14.236  1.00  0.00    -0.355 N 
HETATM    3  C   UNL     1     -42.068 -51.964  13.455  1.00  0.00     0.241 C 
HETATM    4  O   UNL     1     -42.599 -51.436  12.478  1.00  0.00    -0.271 OA
HETATM    5  H   UNL     1     -40.749 -51.774  15.025  1.00  0.00     0.162 HD
BRANCH   3   6
HETATM    6  C   UNL     1     -42.187 -53.484  13.753  1.00  0.00     0.179 C 
BRANCH   6   7
HETATM    7  C   UNL     1     -41.062 -53.967  14.705  1.00  0.00     0.009 C 
HETATM    8  C   UNL     1     -41.562 -55.062  15.659  1.00  0.00     0.012 C 
HETATM    9  C   UNL     1     -39.848 -54.515  13.945  1.00  0.00     0.012 C 
ENDBRANCH   6   7
BRANCH   6  10
HETATM   10  N   UNL     1     -43.509 -53.753  14.343  1.00  0.00    -0.348 N 
HETATM   11  C   UNL     1     -44.561 -54.161  13.553  1.00  0.00     0.214 C 
HETATM   12  O   UNL     1     -44.478 -54.328  12.343  1.00  0.00    -0.274 OA
HETATM   13  C   UNL     1     -45.839 -54.396  14.307  1.00  0.00     0.117 C 
HETATM   14  H   UNL     1     -43.636 -53.665  15.341  1.00  0.00     0.163 HD
ENDBRANCH   6  10
ENDBRANCH   3   6
ENDBRANCH   1   2
BRANCH   1  15
HETATM   15  C   UNL     1     -39.583 -49.942  12.979  1.00  0.00     0.004 A 
HETATM   16  C   UNL     1     -38.503 -50.795  13.280  1.00  0.00     0.014 A 
HETATM   17  C   UNL     1     -37.399 -50.844  12.449  1.00  0.00     0.018 A 
HETATM   18  C   UNL     1     -37.412 -50.034  11.335  1.00  0.00     0.089 A 
HETATM   19  N   UNL     1     -38.427 -49.198  11.019  1.00  0.00    -0.352 N 
HETATM   20  C   UNL     1     -39.519 -49.143  11.821  1.00  0.00     0.111 A 
ATOM     21  HN  UNL     1     -38.372 -48.615  10.184  1.00  0.00     0.166 HD
BRANCH  20  22
HETATM   22  N   UNL     1     -40.481 -48.215  11.500  1.00  0.00    -0.363 N 
HETATM   23  C   UNL     1     -40.162 -46.781  11.532  1.00  0.00     0.150 C 
HETATM   24  C   UNL     1     -41.422 -46.043  12.042  1.00  0.00     0.187 C 
HETATM   25  O   UNL     1     -42.595 -46.343  11.256  1.00  0.00    -0.388 OA
HETATM   26  C   UNL     1     -42.831 -47.764  11.209  1.00  0.00     0.187 C 
HETATM   27  C   UNL     1     -41.612 -48.479  10.610  1.00  0.00     0.150 C 
ENDBRANCH  20  22
ENDBRANCH   1  15
TORSDOF 6
ENDMDL
MODEL 5
REMARK VINA RESULT:      -6.2      2.558      6.131
REMARK  6 active torsions:
REMARK  status: ('A' for Active; 'I' for Inactive)
REMARK    1  A    between atoms: C_2  and  C_4 
REMARK    2  A    between atoms: C_4  and  N_5 
REMARK    3  A    between atoms: C_4  and  C_9 
REMARK       I    between atoms: N_5  and  C_6 
REMARK       I    between atoms: C_9  and  N_11 
REMARK    4  A    between atoms: N_11  and  C_12 
REMARK    5  A    between atoms: C_12  and  C_13 
REMARK    6  A    between atoms: C_19  and  N_20 
ROOT
HETATM    1  C   UNL     1     -42.096 -49.330  14.608  1.00  0.00     0.165 C 
ENDROOT
BRANCH   1   2
HETATM    2  N   UNL     1     -42.969 -50.454  14.876  1.00  0.00    -0.355 N 
HETATM    3  C   UNL     1     -43.956 -50.413  15.834  1.00  0.00     0.241 C 
HETATM    4  O   UNL     1     -44.132 -49.420  16.540  1.00  0.00    -0.271 OA
HETATM    5  H   UNL     1     -42.871 -51.293  14.322  1.00  0.00     0.162 HD
BRANCH   3   6
HETATM    6  C   UNL     1     -44.960 -51.596  15.788  1.00  0.00     0.179 C 
BRANCH   6   7
HETATM    7  C   UNL     1     -46.330 -51.159  15.204  1.00  0.00     0.009 C 
HETATM    8  C   UNL     1     -46.499 -51.630  13.752  1.00  0.00     0.012 C 
HETATM    9  C   UNL     1     -47.512 -51.695  16.020  1.00  0.00     0.012 C 
ENDBRANCH   6   7
BRANCH   6  10
HETATM   10  N   UNL     1     -44.383 -52.684  14.982  1.00  0.00    -0.348 N 
HETATM   11  C   UNL     1     -44.471 -53.993  15.400  1.00  0.00     0.214 C 
HETATM   12  O   UNL     1     -45.023 -54.339  16.437  1.00  0.00    -0.274 OA
HETATM   13  C   UNL     1     -43.835 -54.981  14.465  1.00  0.00     0.117 C 
HETATM   14  H   UNL     1     -43.941 -52.468  14.099  1.00  0.00     0.163 HD
ENDBRANCH   6  10
ENDBRANCH   3   6
ENDBRANCH   1   2
BRANCH   1  15
HETATM   15  C   UNL     1     -42.166 -48.947  13.155  1.00  0.00     0.004 A 
HETATM   16  C   UNL     1     -42.963 -47.833  12.827  1.00  0.00     0.014 A 
HETATM   17  C   UNL     1     -43.093 -47.429  11.511  1.00  0.00     0.018 A 
HETATM   18  C   UNL     1     -42.415 -48.157  10.559  1.00  0.00     0.089 A 
HETATM   19  N   UNL     1     -41.647 -49.236  10.835  1.00  0.00    -0.352 N 
HETATM   20  C   UNL     1     -41.506 -49.640  12.122  1.00  0.00     0.111 A 
ATOM     21  HN  UNL     1     -41.178 -49.740  10.083  1.00  0.00     0.166 HD
BRANCH  20  22
HETATM   22  N   UNL     1     -40.786 -50.792  12.336  1.00  0.00    -0.363 N 
HETATM   23  C   UNL     1     -41.306 -52.085  11.871  1.00  0.00     0.150 C 
HETATM   24  C   UNL     1     -40.908 -53.144  12.925  1.00  0.00     0.187 C 
HETATM   25  O   UNL     1     -39.486 -53.166  13.178  1.00  0.00    -0.388 OA
HETATM   26  C   UNL     1     -39.017 -51.863  13.575  1.00  0.00     0.187 C 
HETATM   27  C   UNL     1     -39.330 -50.835  12.479  1.00  0.00     0.150 C 
ENDBRANCH  20  22
ENDBRANCH   1  15
TORSDOF 6
ENDMDL
MODEL 6
REMARK VINA RESULT:      -6.2      2.451      4.409
REMARK  6 active torsions:
REMARK  status: ('A' for Active; 'I' for Inactive)
REMARK    1  A    between atoms: C_2  and  C_4 
REMARK    2  A    between atoms: C_4  and  N_5 
REMARK    3  A    between atoms: C_4  and  C_9 
REMARK       I    between atoms: N_5  and  C_6 
REMARK       I    between atoms: C_9  and  N_11 
REMARK    4  A    between atoms: N_11  and  C_12 
REMARK    5  A    between atoms: C_12  and  C_13 
REMARK    6  A    between atoms: C_19  and  N_20 
ROOT
HETATM    1  C   UNL     1     -41.601 -50.749  12.161  1.00  0.00     0.165 C 
ENDROOT
BRANCH   1   2
HETATM    2  N   UNL     1     -41.988 -49.565  11.423  1.00  0.00    -0.355 N 
HETATM    3  C   UNL     1     -42.734 -48.554  11.985  1.00  0.00     0.241 C 
HETATM    4  O   UNL     1     -43.140 -48.617  13.145  1.00  0.00    -0.271 OA
HETATM    5  H   UNL     1     -41.678 -49.460  10.467  1.00  0.00     0.162 HD
BRANCH   3   6
HETATM    6  C   UNL     1     -42.815 -47.254  11.139  1.00  0.00     0.179 C 
BRANCH   6   7
HETATM    7  C   UNL     1     -41.743 -46.221  11.579  1.00  0.00     0.009 C 
HETATM    8  C   UNL     1     -40.452 -46.366  10.760  1.00  0.00     0.012 C 
HETATM    9  C   UNL     1     -42.235 -44.775  11.443  1.00  0.00     0.012 C 
ENDBRANCH   6   7
BRANCH   6  10
HETATM   10  N   UNL     1     -42.643 -47.597   9.718  1.00  0.00    -0.348 N 
HETATM   11  C   UNL     1     -43.712 -47.548   8.849  1.00  0.00     0.214 C 
HETATM   12  O   UNL     1     -44.844 -47.223   9.182  1.00  0.00    -0.274 OA
HETATM   13  C   UNL     1     -43.371 -47.924   7.435  1.00  0.00     0.117 C 
HETATM   14  H   UNL     1     -41.727 -47.843   9.372  1.00  0.00     0.163 HD
ENDBRANCH   6  10
ENDBRANCH   3   6
ENDBRANCH   1   2
BRANCH   1  15
HETATM   15  C   UNL     1     -40.115 -50.754  12.400  1.00  0.00     0.004 A 
HETATM   16  C   UNL     1     -39.344 -49.863  11.631  1.00  0.00     0.014 A 
HETATM   17  C   UNL     1     -37.969 -49.821  11.778  1.00  0.00     0.018 A 
HETATM   18  C   UNL     1     -37.408 -50.676  12.700  1.00  0.00     0.089 A 
HETATM   19  N   UNL     1     -38.117 -51.550  13.452  1.00  0.00    -0.352 N 
HETATM   20  C   UNL     1     -39.465 -51.599  13.322  1.00  0.00     0.111 A 
ATOM     21  HN  UNL     1     -37.640 -52.166  14.111  1.00  0.00     0.166 HD
BRANCH  20  22
HETATM   22  N   UNL     1     -40.125 -52.564  14.045  1.00  0.00    -0.363 N 
HETATM   23  C   UNL     1     -40.419 -53.869  13.439  1.00  0.00     0.150 C 
HETATM   24  C   UNL     1     -41.798 -54.321  13.972  1.00  0.00     0.187 C 
HETATM   25  O   UNL     1     -41.855 -54.344  15.414  1.00  0.00    -0.388 OA
HETATM   26  C   UNL     1     -41.503 -53.058  15.961  1.00  0.00     0.187 C 
HETATM   27  C   UNL     1     -40.092 -52.661  15.506  1.00  0.00     0.150 C 
ENDBRANCH  20  22
ENDBRANCH   1  15
TORSDOF 6
ENDMDL
MODEL 7
REMARK VINA RESULT:      -6.1      2.545      6.360
REMARK  6 active torsions:
REMARK  status: ('A' for Active; 'I' for Inactive)
REMARK    1  A    between atoms: C_2  and  C_4 
REMARK    2  A    between atoms: C_4  and  N_5 
REMARK    3  A    between atoms: C_4  and  C_9 
REMARK       I    between atoms: N_5  and  C_6 
REMARK       I    between atoms: C_9  and  N_11 
REMARK    4  A    between atoms: N_11  and  C_12 
REMARK    5  A    between atoms: C_12  and  C_13 
REMARK    6  A    between atoms: C_19  and  N_20 
ROOT
HETATM    1  C   UNL     1     -42.795 -49.569  13.900  1.00  0.00     0.165 C 
ENDROOT
BRANCH   1   2
HETATM    2  N   UNL     1     -43.783 -50.625  13.826  1.00  0.00    -0.355 N 
HETATM    3  C   UNL     1     -43.728 -51.747  14.621  1.00  0.00     0.241 C 
HETATM    4  O   UNL     1     -42.813 -51.927  15.424  1.00  0.00    -0.271 OA
HETATM    5  H   UNL     1     -44.559 -50.526  13.186  1.00  0.00     0.162 HD
BRANCH   3   6
HETATM    6  C   UNL     1     -45.008 -52.626  14.599  1.00  0.00     0.179 C 
BRANCH   6   7
HETATM    7  C   UNL     1     -44.693 -54.079  14.155  1.00  0.00     0.009 C 
HETATM    8  C   UNL     1     -45.950 -54.962  14.181  1.00  0.00     0.012 C 
HETATM    9  C   UNL     1     -44.095 -54.142  12.744  1.00  0.00     0.012 C 
ENDBRANCH   6   7
BRANCH   6  10
HETATM   10  N   UNL     1     -45.616 -52.621  15.940  1.00  0.00    -0.348 N 
HETATM   11  C   UNL     1     -46.735 -51.860  16.201  1.00  0.00     0.214 C 
HETATM   12  O   UNL     1     -47.291 -51.160  15.364  1.00  0.00    -0.274 OA
HETATM   13  C   UNL     1     -47.233 -51.966  17.614  1.00  0.00     0.117 C 
HETATM   14  H   UNL     1     -45.224 -53.202  16.666  1.00  0.00     0.163 HD
ENDBRANCH   6  10
ENDBRANCH   3   6
ENDBRANCH   1   2
BRANCH   1  15
HETATM   15  C   UNL     1     -42.473 -49.057  12.523  1.00  0.00     0.004 A 
HETATM   16  C   UNL     1     -43.300 -48.037  12.014  1.00  0.00     0.014 A 
HETATM   17  C   UNL     1     -43.081 -47.526  10.747  1.00  0.00     0.018 A 
HETATM   18  C   UNL     1     -42.032 -48.053  10.028  1.00  0.00     0.089 A 
HETATM   19  N   UNL     1     -41.221 -49.037  10.482  1.00  0.00    -0.352 N 
HETATM   20  C   UNL     1     -41.421 -49.544  11.723  1.00  0.00     0.111 A 
ATOM     21  HN  UNL     1     -40.466 -49.393   9.895  1.00  0.00     0.166 HD
BRANCH  20  22
HETATM   22  N   UNL     1     -40.624 -50.600  12.099  1.00  0.00    -0.363 N 
HETATM   23  C   UNL     1     -41.038 -51.978  11.803  1.00  0.00     0.150 C 
HETATM   24  C   UNL     1     -40.588 -52.856  12.994  1.00  0.00     0.187 C 
HETATM   25  O   UNL     1     -39.175 -52.737  13.268  1.00  0.00    -0.388 OA
HETATM   26  C   UNL     1     -38.811 -51.362  13.494  1.00  0.00     0.187 C 
HETATM   27  C   UNL     1     -39.172 -50.514  12.266  1.00  0.00     0.150 C 
ENDBRANCH  20  22
ENDBRANCH   1  15
TORSDOF 6
ENDMDL
MODEL 8
REMARK VINA RESULT:      -6.0      2.562      6.375
REMARK  6 active torsions:
REMARK  status: ('A' for Active; 'I' for Inactive)
REMARK    1  A    between atoms: C_2  and  C_4 
REMARK    2  A    between atoms: C_4  and  N_5 
REMARK    3  A    between atoms: C_4  and  C_9 
REMARK       I    between atoms: N_5  and  C_6 
REMARK       I    between atoms: C_9  and  N_11 
REMARK    4  A    between atoms: N_11  and  C_12 
REMARK    5  A    between atoms: C_12  and  C_13 
REMARK    6  A    between atoms: C_19  and  N_20 
ROOT
HETATM    1  C   UNL     1     -40.762 -50.150  11.115  1.00  0.00     0.165 C 
ENDROOT
BRANCH   1   2
HETATM    2  N   UNL     1     -41.705 -51.141  11.590  1.00  0.00    -0.355 N 
HETATM    3  C   UNL     1     -41.307 -52.305  12.207  1.00  0.00     0.241 C 
HETATM    4  O   UNL     1     -40.117 -52.581  12.364  1.00  0.00    -0.271 OA
HETATM    5  H   UNL     1     -42.695 -50.964  11.490  1.00  0.00     0.162 HD
BRANCH   3   6
HETATM    6  C   UNL     1     -42.449 -53.107  12.889  1.00  0.00     0.179 C 
BRANCH   6   7
HETATM    7  C   UNL     1     -42.138 -53.380  14.384  1.00  0.00     0.009 C 
HETATM    8  C   UNL     1     -42.817 -52.349  15.298  1.00  0.00     0.012 C 
HETATM    9  C   UNL     1     -42.585 -54.779  14.828  1.00  0.00     0.012 C 
ENDBRANCH   6   7
BRANCH   6  10
HETATM   10  N   UNL     1     -43.707 -52.354  12.756  1.00  0.00    -0.348 N 
HETATM   11  C   UNL     1     -44.900 -53.010  12.543  1.00  0.00     0.214 C 
HETATM   12  O   UNL     1     -44.999 -54.227  12.457  1.00  0.00    -0.274 OA
HETATM   13  C   UNL     1     -46.090 -52.100  12.433  1.00  0.00     0.117 C 
HETATM   14  H   UNL     1     -43.698 -51.348  12.849  1.00  0.00     0.163 HD
ENDBRANCH   6  10
ENDBRANCH   3   6
ENDBRANCH   1   2
BRANCH   1  15
HETATM   15  C   UNL     1     -41.182 -48.774  11.558  1.00  0.00     0.004 A 
HETATM   16  C   UNL     1     -42.002 -48.045  10.676  1.00  0.00     0.014 A 
HETATM   17  C   UNL     1     -42.416 -46.766  11.002  1.00  0.00     0.018 A 
HETATM   18  C   UNL     1     -41.994 -46.256  12.210  1.00  0.00     0.089 A 
HETATM   19  N   UNL     1     -41.201 -46.925  13.079  1.00  0.00    -0.352 N 
HETATM   20  C   UNL     1     -40.792 -48.182  12.775  1.00  0.00     0.111 A 
ATOM     21  HN  UNL     1     -40.914 -46.488  13.955  1.00  0.00     0.166 HD
BRANCH  20  22
HETATM   22  N   UNL     1     -39.918 -48.781  13.652  1.00  0.00    -0.363 N 
HETATM   23  C   UNL     1     -38.483 -48.472  13.589  1.00  0.00     0.150 C 
HETATM   24  C   UNL     1     -37.720 -49.777  13.914  1.00  0.00     0.187 C 
HETATM   25  O   UNL     1     -38.119 -50.353  15.176  1.00  0.00    -0.388 OA
HETATM   26  C   UNL     1     -39.541 -50.584  15.207  1.00  0.00     0.187 C 
HETATM   27  C   UNL     1     -40.292 -49.264  14.982  1.00  0.00     0.150 C 
ENDBRANCH  20  22
ENDBRANCH   1  15
TORSDOF 6
ENDMDL
MODEL 9
REMARK VINA RESULT:      -6.0      2.541      4.829
REMARK  6 active torsions:
REMARK  status: ('A' for Active; 'I' for Inactive)
REMARK    1  A    between atoms: C_2  and  C_4 
REMARK    2  A    between atoms: C_4  and  N_5 
REMARK    3  A    between atoms: C_4  and  C_9 
REMARK       I    between atoms: N_5  and  C_6 
REMARK       I    between atoms: C_9  and  N_11 
REMARK    4  A    between atoms: N_11  and  C_12 
REMARK    5  A    between atoms: C_12  and  C_13 
REMARK    6  A    between atoms: C_19  and  N_20 
ROOT
HETATM    1  C   UNL     1     -42.638 -53.043  12.296  1.00  0.00     0.165 C 
ENDROOT
BRANCH   1   2
HETATM    2  N   UNL     1     -42.139 -51.736  11.925  1.00  0.00    -0.355 N 
HETATM    3  C   UNL     1     -42.487 -50.591  12.604  1.00  0.00     0.241 C 
HETATM    4  O   UNL     1     -43.270 -50.613  13.553  1.00  0.00    -0.271 OA
HETATM    5  H   UNL     1     -41.489 -51.660  11.155  1.00  0.00     0.162 HD
BRANCH   3   6
HETATM    6  C   UNL     1     -41.647 -49.336  12.242  1.00  0.00     0.179 C 
BRANCH   6   7
HETATM    7  C   UNL     1     -40.125 -49.615  12.363  1.00  0.00     0.009 C 
HETATM    8  C   UNL     1     -39.293 -48.412  11.895  1.00  0.00     0.012 C 
HETATM    9  C   UNL     1     -39.706 -49.954  13.799  1.00  0.00     0.012 C 
ENDBRANCH   6   7
BRANCH   6  10
HETATM   10  N   UNL     1     -41.983 -48.914  10.872  1.00  0.00    -0.348 N 
HETATM   11  C   UNL     1     -42.868 -47.881  10.651  1.00  0.00     0.214 C 
HETATM   12  O   UNL     1     -43.418 -47.255  11.548  1.00  0.00    -0.274 OA
HETATM   13  C   UNL     1     -43.101 -47.572   9.200  1.00  0.00     0.117 C 
HETATM   14  H   UNL     1     -41.538 -49.369  10.088  1.00  0.00     0.163 HD
ENDBRANCH   6  10
ENDBRANCH   3   6
ENDBRANCH   1   2
BRANCH   1  15
HETATM   15  C   UNL     1     -41.800 -53.629  13.401  1.00  0.00     0.004 A 
HETATM   16  C   UNL     1     -40.428 -53.796  13.137  1.00  0.00     0.014 A 
HETATM   17  C   UNL     1     -39.593 -54.345  14.094  1.00  0.00     0.018 A 
HETATM   18  C   UNL     1     -40.164 -54.709  15.294  1.00  0.00     0.089 A 
HETATM   19  N   UNL     1     -41.480 -54.570  15.579  1.00  0.00    -0.352 N 
HETATM   20  C   UNL     1     -42.308 -54.028  14.652  1.00  0.00     0.111 A 
ATOM     21  HN  UNL     1     -41.844 -54.869  16.483  1.00  0.00     0.166 HD
BRANCH  20  22
HETATM   22  N   UNL     1     -43.648 -53.990  14.962  1.00  0.00    -0.363 N 
HETATM   23  C   UNL     1     -44.511 -55.136  14.643  1.00  0.00     0.150 C 
HETATM   24  C   UNL     1     -45.886 -54.568  14.222  1.00  0.00     0.187 C 
HETATM   25  O   UNL     1     -46.454 -53.693  15.220  1.00  0.00    -0.388 OA
HETATM   26  C   UNL     1     -45.546 -52.621  15.538  1.00  0.00     0.187 C 
HETATM   27  C   UNL     1     -44.216 -53.193  16.049  1.00  0.00     0.150 C 
ENDBRANCH  20  22
ENDBRANCH   1  15
TORSDOF 6
ENDMDL
