MODEL 1
REMARK VINA RESULT:      -6.4      0.000      0.000
REMARK  4 active torsions:
REMARK  status: ('A' for Active; 'I' for Inactive)
REMARK    1  A    between atoms: N_4  and  C_9 
REMARK    2  A    between atoms: C_12  and  C_16 
REMARK       I    between atoms: C_16  and  N_18 
REMARK    3  A    between atoms: N_18  and  C_19 
REMARK    4  A    between atoms: C_19  and  C_20 
ROOT
HETATM    1  C   UNL     1     -40.287 -48.556  12.722  1.00  0.00     0.103 A 
HETATM    2  C   UNL     1     -41.556 -49.134  12.616  1.00  0.00     0.049 A 
HETATM    3  C   UNL     1     -42.480 -48.649  11.696  1.00  0.00     0.022 A 
HETATM    4  C   UNL     1     -42.122 -47.596  10.867  1.00  0.00     0.047 A 
HETATM    5  C   UNL     1     -40.868 -47.038  11.059  1.00  0.00     0.106 A 
HETATM    6  N   UNL     1     -39.959 -47.489  11.963  1.00  0.00    -0.351 N 
ATOM      7  HN  UNL     1     -39.053 -47.032  12.067  1.00  0.00     0.166 HD
ENDROOT
BRANCH   4   8
HETATM    8  C   UNL     1     -43.089 -47.117   9.855  1.00  0.00     0.253 C 
HETATM    9  O   UNL     1     -42.910 -46.045   9.289  1.00  0.00    -0.268 OA
HETATM   10  N   UNL     1     -44.205 -47.897   9.633  1.00  0.00    -0.348 N 
HETATM   11  H   UNL     1     -44.444 -48.610  10.311  1.00  0.00     0.163 HD
BRANCH  10  12
HETATM   12  C   UNL     1     -45.287 -47.381   8.787  1.00  0.00     0.240 C 
BRANCH  12  13
HETATM   13  C   UNL     1     -46.583 -48.206   8.782  1.00  0.00     0.403 C 
HETATM   14  F   UNL     1     -47.679 -47.439   8.985  1.00  0.00    -0.169 F 
HETATM   15  F   UNL     1     -46.754 -48.884   7.628  1.00  0.00    -0.169 F 
HETATM   16  F   UNL     1     -46.554 -49.120   9.785  1.00  0.00    -0.169 F 
ENDBRANCH  12  13
ENDBRANCH  10  12
ENDBRANCH   4   8
BRANCH   1  17
HETATM   17  N   UNL     1     -39.399 -49.044  13.645  1.00  0.00    -0.362 N 
HETATM   18  C   UNL     1     -39.396 -50.451  14.043  1.00  0.00     0.156 C 
HETATM   19  C   UNL     1     -37.917 -50.899  14.187  1.00  0.00     0.136 C 
HETATM   20  C   UNL     1     -37.232 -51.049  12.825  1.00  0.00     0.041 C 
HETATM   21  O   UNL     1     -37.158 -50.021  15.054  1.00  0.00    -0.378 OA
HETATM   22  C   UNL     1     -37.240 -48.632  14.669  1.00  0.00     0.136 C 
HETATM   23  C   UNL     1     -38.706 -48.167  14.590  1.00  0.00     0.156 C 
HETATM   24  C   UNL     1     -36.466 -47.806  15.686  1.00  0.00     0.041 C 
ENDBRANCH   1  17
TORSDOF 4
ENDMDL
MODEL 2
REMARK VINA RESULT:      -6.2      0.762      1.808
REMARK  4 active torsions:
REMARK  status: ('A' for Active; 'I' for Inactive)
REMARK    1  A    between atoms: N_4  and  C_9 
REMARK    2  A    between atoms: C_12  and  C_16 
REMARK       I    between atoms: C_16  and  N_18 
REMARK    3  A    between atoms: N_18  and  C_19 
REMARK    4  A    between atoms: C_19  and  C_20 
ROOT
HETATM    1  C   UNL     1     -39.979 -48.722  12.487  1.00  0.00     0.103 A 
HETATM    2  C   UNL     1     -41.213 -49.355  12.314  1.00  0.00     0.049 A 
HETATM    3  C   UNL     1     -42.176 -48.811  11.470  1.00  0.00     0.022 A 
HETATM    4  C   UNL     1     -41.890 -47.639  10.784  1.00  0.00     0.047 A 
HETATM    5  C   UNL     1     -40.669 -47.037  11.041  1.00  0.00     0.106 A 
HETATM    6  N   UNL     1     -39.723 -47.546  11.873  1.00  0.00    -0.351 N 
ATOM      7  HN  UNL     1     -38.845 -47.055  12.031  1.00  0.00     0.166 HD
ENDROOT
BRANCH   4   8
HETATM    8  C   UNL     1     -42.896 -47.090   9.848  1.00  0.00     0.253 C 
HETATM    9  O   UNL     1     -42.731 -45.989   9.338  1.00  0.00    -0.268 OA
HETATM   10  N   UNL     1     -44.032 -47.844   9.634  1.00  0.00    -0.348 N 
HETATM   11  H   UNL     1     -44.249 -48.594  10.278  1.00  0.00     0.163 HD
BRANCH  10  12
HETATM   12  C   UNL     1     -45.145 -47.268   8.871  1.00  0.00     0.240 C 
BRANCH  12  13
HETATM   13  C   UNL     1     -46.432 -48.107   8.827  1.00  0.00     0.403 C 
HETATM   14  F   UNL     1     -47.541 -47.354   9.008  1.00  0.00    -0.169 F 
HETATM   15  F   UNL     1     -46.565 -48.778   7.665  1.00  0.00    -0.169 F 
HETATM   16  F   UNL     1     -46.417 -49.028   9.824  1.00  0.00    -0.169 F 
ENDBRANCH  12  13
ENDBRANCH  10  12
ENDBRANCH   4   8
BRANCH   1  17
HETATM   17  N   UNL     1     -39.052 -49.272  13.334  1.00  0.00    -0.362 N 
HETATM   18  C   UNL     1     -37.714 -48.703  13.485  1.00  0.00     0.156 C 
HETATM   19  C   UNL     1     -37.334 -48.777  14.989  1.00  0.00     0.136 C 
HETATM   20  C   UNL     1     -38.110 -47.753  15.823  1.00  0.00     0.041 C 
HETATM   21  O   UNL     1     -37.493 -50.111  15.531  1.00  0.00    -0.378 OA
HETATM   22  C   UNL     1     -38.806 -50.666  15.303  1.00  0.00     0.136 C 
HETATM   23  C   UNL     1     -39.157 -50.654  13.803  1.00  0.00     0.156 C 
HETATM   24  C   UNL     1     -38.828 -52.085  15.852  1.00  0.00     0.041 C 
ENDBRANCH   1  17
TORSDOF 4
ENDMDL
MODEL 3
REMARK VINA RESULT:      -6.2      4.022      4.870
REMARK  4 active torsions:
REMARK  status: ('A' for Active; 'I' for Inactive)
REMARK    1  A    between atoms: N_4  and  C_9 
REMARK    2  A    between atoms: C_12  and  C_16 
REMARK       I    between atoms: C_16  and  N_18 
REMARK    3  A    between atoms: N_18  and  C_19 
REMARK    4  A    between atoms: C_19  and  C_20 
ROOT
HETATM    1  C   UNL     1     -40.238 -49.002  11.547  1.00  0.00     0.103 A 
HETATM    2  C   UNL     1     -39.900 -47.784  12.141  1.00  0.00     0.049 A 
HETATM    3  C   UNL     1     -40.560 -46.612  11.782  1.00  0.00     0.022 A 
HETATM    4  C   UNL     1     -41.575 -46.671  10.838  1.00  0.00     0.047 A 
HETATM    5  C   UNL     1     -41.825 -47.902  10.252  1.00  0.00     0.106 A 
HETATM    6  N   UNL     1     -41.180 -49.052  10.580  1.00  0.00    -0.351 N 
ATOM      7  HN  UNL     1     -41.400 -49.928  10.109  1.00  0.00     0.166 HD
ENDROOT
BRANCH   4   8
HETATM    8  C   UNL     1     -42.310 -45.433  10.495  1.00  0.00     0.253 C 
HETATM    9  O   UNL     1     -42.873 -45.328   9.412  1.00  0.00    -0.268 OA
HETATM   10  N   UNL     1     -42.275 -44.406  11.416  1.00  0.00    -0.348 N 
HETATM   11  H   UNL     1     -41.579 -44.433  12.152  1.00  0.00     0.163 HD
BRANCH  10  12
HETATM   12  C   UNL     1     -42.820 -43.094  11.052  1.00  0.00     0.240 C 
BRANCH  12  13
HETATM   13  C   UNL     1     -41.896 -41.892  11.305  1.00  0.00     0.403 C 
HETATM   14  F   UNL     1     -40.593 -42.251  11.369  1.00  0.00    -0.169 F 
HETATM   15  F   UNL     1     -42.022 -40.942  10.355  1.00  0.00    -0.169 F 
HETATM   16  F   UNL     1     -42.202 -41.315  12.494  1.00  0.00    -0.169 F 
ENDBRANCH  12  13
ENDBRANCH  10  12
ENDBRANCH   4   8
BRANCH   1  17
HETATM   17  N   UNL     1     -39.564 -50.140  11.910  1.00  0.00    -0.362 N 
HETATM   18  C   UNL     1     -38.123 -50.279  11.706  1.00  0.00     0.156 C 
HETATM   19  C   UNL     1     -37.537 -51.000  12.950  1.00  0.00     0.136 C 
HETATM   20  C   UNL     1     -37.504 -50.083  14.176  1.00  0.00     0.041 C 
HETATM   21  O   UNL     1     -38.231 -52.236  13.248  1.00  0.00    -0.378 OA
HETATM   22  C   UNL     1     -39.660 -52.070  13.374  1.00  0.00     0.136 C 
HETATM   23  C   UNL     1     -40.253 -51.415  12.113  1.00  0.00     0.156 C 
HETATM   24  C   UNL     1     -40.282 -53.438  13.616  1.00  0.00     0.041 C 
ENDBRANCH   1  17
TORSDOF 4
ENDMDL
MODEL 4
REMARK VINA RESULT:      -6.1      4.756      6.139
REMARK  4 active torsions:
REMARK  status: ('A' for Active; 'I' for Inactive)
REMARK    1  A    between atoms: N_4  and  C_9 
REMARK    2  A    between atoms: C_12  and  C_16 
REMARK       I    between atoms: C_16  and  N_18 
REMARK    3  A    between atoms: N_18  and  C_19 
REMARK    4  A    between atoms: C_19  and  C_20 
ROOT
HETATM    1  C   UNL     1     -41.990 -51.502  12.355  1.00  0.00     0.103 A 
HETATM    2  C   UNL     1     -42.750 -50.419  12.805  1.00  0.00     0.049 A 
HETATM    3  C   UNL     1     -42.504 -49.134  12.330  1.00  0.00     0.022 A 
HETATM    4  C   UNL     1     -41.506 -48.942  11.386  1.00  0.00     0.047 A 
HETATM    5  C   UNL     1     -40.758 -50.050  11.021  1.00  0.00     0.106 A 
HETATM    6  N   UNL     1     -40.975 -51.308  11.487  1.00  0.00    -0.351 N 
ATOM      7  HN  UNL     1     -40.386 -52.085  11.189  1.00  0.00     0.166 HD
ENDROOT
BRANCH   4   8
HETATM    8  C   UNL     1     -41.281 -47.584  10.845  1.00  0.00     0.253 C 
HETATM    9  O   UNL     1     -42.114 -47.063  10.113  1.00  0.00    -0.268 OA
HETATM   10  N   UNL     1     -40.082 -46.975  11.155  1.00  0.00    -0.348 N 
HETATM   11  H   UNL     1     -39.326 -47.543  11.518  1.00  0.00     0.163 HD
BRANCH  10  12
HETATM   12  C   UNL     1     -39.722 -45.715  10.495  1.00  0.00     0.240 C 
BRANCH  12  13
HETATM   13  C   UNL     1     -39.949 -44.439  11.320  1.00  0.00     0.403 C 
HETATM   14  F   UNL     1     -41.091 -44.492  12.043  1.00  0.00    -0.169 F 
HETATM   15  F   UNL     1     -38.928 -44.187  12.165  1.00  0.00    -0.169 F 
HETATM   16  F   UNL     1     -40.060 -43.368  10.493  1.00  0.00    -0.169 F 
ENDBRANCH  12  13
ENDBRANCH  10  12
ENDBRANCH   4   8
BRANCH   1  17
HETATM   17  N   UNL     1     -42.245 -52.756  12.848  1.00  0.00    -0.362 N 
HETATM   18  C   UNL     1     -41.168 -53.649  13.273  1.00  0.00     0.156 C 
HETATM   19  C   UNL     1     -41.636 -54.376  14.562  1.00  0.00     0.136 C 
HETATM   20  C   UNL     1     -41.643 -53.439  15.773  1.00  0.00     0.041 C 
HETATM   21  O   UNL     1     -42.926 -55.014  14.396  1.00  0.00    -0.378 OA
HETATM   22  C   UNL     1     -43.947 -54.116  13.910  1.00  0.00     0.136 C 
HETATM   23  C   UNL     1     -43.511 -53.444  12.596  1.00  0.00     0.156 C 
HETATM   24  C   UNL     1     -45.230 -54.911  13.712  1.00  0.00     0.041 C 
ENDBRANCH   1  17
TORSDOF 4
ENDMDL
MODEL 5
REMARK VINA RESULT:      -6.0      3.032      4.033
REMARK  4 active torsions:
REMARK  status: ('A' for Active; 'I' for Inactive)
REMARK    1  A    between atoms: N_4  and  C_9 
REMARK    2  A    between atoms: C_12  and  C_16 
REMARK       I    between atoms: C_16  and  N_18 
REMARK    3  A    between atoms: N_18  and  C_19 
REMARK    4  A    between atoms: C_19  and  C_20 
ROOT
HETATM    1  C   UNL     1     -40.939 -51.668  13.042  1.00  0.00     0.103 A 
HETATM    2  C   UNL     1     -42.074 -50.931  13.390  1.00  0.00     0.049 A 
HETATM    3  C   UNL     1     -42.399 -49.764  12.704  1.00  0.00     0.022 A 
HETATM    4  C   UNL     1     -41.593 -49.350  11.654  1.00  0.00     0.047 A 
HETATM    5  C   UNL     1     -40.456 -50.099  11.395  1.00  0.00     0.106 A 
HETATM    6  N   UNL     1     -40.115 -51.231  12.065  1.00  0.00    -0.351 N 
ATOM      7  HN  UNL     1     -39.260 -51.737  11.836  1.00  0.00     0.166 HD
ENDROOT
BRANCH   4   8
HETATM    8  C   UNL     1     -41.969 -48.137  10.895  1.00  0.00     0.253 C 
HETATM    9  O   UNL     1     -41.753 -47.024  11.359  1.00  0.00    -0.268 OA
HETATM   10  N   UNL     1     -42.614 -48.325   9.689  1.00  0.00    -0.348 N 
HETATM   11  H   UNL     1     -43.013 -49.234   9.487  1.00  0.00     0.163 HD
BRANCH  10  12
HETATM   12  C   UNL     1     -43.178 -47.169   8.987  1.00  0.00     0.240 C 
BRANCH  12  13
HETATM   13  C   UNL     1     -44.712 -47.095   8.943  1.00  0.00     0.403 C 
HETATM   14  F   UNL     1     -45.158 -45.852   8.650  1.00  0.00    -0.169 F 
HETATM   15  F   UNL     1     -45.240 -47.952   8.045  1.00  0.00    -0.169 F 
HETATM   16  F   UNL     1     -45.225 -47.418  10.157  1.00  0.00    -0.169 F 
ENDBRANCH  12  13
ENDBRANCH  10  12
ENDBRANCH   4   8
BRANCH   1  17
HETATM   17  N   UNL     1     -40.633 -52.807  13.741  1.00  0.00    -0.362 N 
HETATM   18  C   UNL     1     -39.251 -53.227  13.964  1.00  0.00     0.156 C 
HETATM   19  C   UNL     1     -39.149 -53.772  15.414  1.00  0.00     0.136 C 
HETATM   20  C   UNL     1     -39.213 -52.647  16.451  1.00  0.00     0.041 C 
HETATM   21  O   UNL     1     -40.145 -54.787  15.691  1.00  0.00    -0.378 OA
HETATM   22  C   UNL     1     -41.492 -54.360  15.394  1.00  0.00     0.136 C 
HETATM   23  C   UNL     1     -41.609 -53.880  13.935  1.00  0.00     0.156 C 
HETATM   24  C   UNL     1     -42.434 -55.525  15.658  1.00  0.00     0.041 C 
ENDBRANCH   1  17
TORSDOF 4
ENDMDL
MODEL 6
REMARK VINA RESULT:      -6.0      4.472      5.587
REMARK  4 active torsions:
REMARK  status: ('A' for Active; 'I' for Inactive)
REMARK    1  A    between atoms: N_4  and  C_9 
REMARK    2  A    between atoms: C_12  and  C_16 
REMARK       I    between atoms: C_16  and  N_18 
REMARK    3  A    between atoms: N_18  and  C_19 
REMARK    4  A    between atoms: C_19  and  C_20 
ROOT
HETATM    1  C   UNL     1     -42.946 -51.759  14.270  1.00  0.00     0.103 A 
HETATM    2  C   UNL     1     -43.717 -50.602  14.125  1.00  0.00     0.049 A 
HETATM    3  C   UNL     1     -43.379 -49.639  13.179  1.00  0.00     0.022 A 
HETATM    4  C   UNL     1     -42.276 -49.849  12.364  1.00  0.00     0.047 A 
HETATM    5  C   UNL     1     -41.527 -50.992  12.594  1.00  0.00     0.106 A 
HETATM    6  N   UNL     1     -41.834 -51.935  13.524  1.00  0.00    -0.351 N 
ATOM      7  HN  UNL     1     -41.241 -52.753  13.655  1.00  0.00     0.166 HD
ENDROOT
BRANCH   4   8
HETATM    8  C   UNL     1     -41.949 -48.848  11.325  1.00  0.00     0.253 C 
HETATM    9  O   UNL     1     -40.814 -48.396  11.237  1.00  0.00    -0.268 OA
HETATM   10  N   UNL     1     -42.983 -48.419  10.517  1.00  0.00    -0.348 N 
HETATM   11  H   UNL     1     -43.936 -48.605  10.805  1.00  0.00     0.163 HD
BRANCH  10  12
HETATM   12  C   UNL     1     -42.763 -47.295   9.602  1.00  0.00     0.240 C 
BRANCH  12  13
HETATM   13  C   UNL     1     -43.779 -47.154   8.458  1.00  0.00     0.403 C 
HETATM   14  F   UNL     1     -43.232 -47.422   7.250  1.00  0.00    -0.169 F 
HETATM   15  F   UNL     1     -44.848 -47.959   8.622  1.00  0.00    -0.169 F 
HETATM   16  F   UNL     1     -44.240 -45.879   8.403  1.00  0.00    -0.169 F 
ENDBRANCH  12  13
ENDBRANCH  10  12
ENDBRANCH   4   8
BRANCH   1  17
HETATM   17  N   UNL     1     -43.293 -52.686  15.218  1.00  0.00    -0.362 N 
HETATM   18  C   UNL     1     -44.474 -52.519  16.063  1.00  0.00     0.156 C 
HETATM   19  C   UNL     1     -45.149 -53.909  16.213  1.00  0.00     0.136 C 
HETATM   20  C   UNL     1     -45.853 -54.343  14.924  1.00  0.00     0.041 C 
HETATM   21  O   UNL     1     -44.220 -54.926  16.661  1.00  0.00    -0.378 OA
HETATM   22  C   UNL     1     -43.034 -55.015  15.842  1.00  0.00     0.136 C 
HETATM   23  C   UNL     1     -42.327 -53.650  15.746  1.00  0.00     0.156 C 
HETATM   24  C   UNL     1     -42.111 -56.062  16.447  1.00  0.00     0.041 C 
ENDBRANCH   1  17
TORSDOF 4
ENDMDL
MODEL 7
REMARK VINA RESULT:      -5.9      5.147      6.689
REMARK  4 active torsions:
REMARK  status: ('A' for Active; 'I' for Inactive)
REMARK    1  A    between atoms: N_4  and  C_9 
REMARK    2  A    between atoms: C_12  and  C_16 
REMARK       I    between atoms: C_16  and  N_18 
REMARK    3  A    between atoms: N_18  and  C_19 
REMARK    4  A    between atoms: C_19  and  C_20 
ROOT
HETATM    1  C   UNL     1     -43.278 -51.102  12.838  1.00  0.00     0.103 A 
HETATM    2  C   UNL     1     -43.350 -49.824  13.399  1.00  0.00     0.049 A 
HETATM    3  C   UNL     1     -42.362 -48.879  13.140  1.00  0.00     0.022 A 
HETATM    4  C   UNL     1     -41.311 -49.213  12.299  1.00  0.00     0.047 A 
HETATM    5  C   UNL     1     -41.274 -50.512  11.816  1.00  0.00     0.106 A 
HETATM    6  N   UNL     1     -42.222 -51.451  12.072  1.00  0.00    -0.351 N 
ATOM      7  HN  UNL     1     -42.138 -52.395  11.697  1.00  0.00     0.166 HD
ENDROOT
BRANCH   4   8
HETATM    8  C   UNL     1     -40.289 -48.190  11.984  1.00  0.00     0.253 C 
HETATM    9  O   UNL     1     -39.102 -48.490  11.958  1.00  0.00    -0.268 OA
HETATM   10  N   UNL     1     -40.733 -46.899  11.784  1.00  0.00    -0.348 N 
HETATM   11  H   UNL     1     -41.667 -46.652  12.088  1.00  0.00     0.163 HD
BRANCH  10  12
HETATM   12  C   UNL     1     -39.755 -45.813  11.660  1.00  0.00     0.240 C 
BRANCH  12  13
HETATM   13  C   UNL     1     -39.902 -44.920  10.418  1.00  0.00     0.403 C 
HETATM   14  F   UNL     1     -39.968 -43.606  10.736  1.00  0.00    -0.169 F 
HETATM   15  F   UNL     1     -38.888 -45.089   9.544  1.00  0.00    -0.169 F 
HETATM   16  F   UNL     1     -41.052 -45.222   9.764  1.00  0.00    -0.169 F 
ENDBRANCH  12  13
ENDBRANCH  10  12
ENDBRANCH   4   8
BRANCH   1  17
HETATM   17  N   UNL     1     -44.257 -52.019  13.119  1.00  0.00    -0.362 N 
HETATM   18  C   UNL     1     -44.300 -53.326  12.465  1.00  0.00     0.156 C 
HETATM   19  C   UNL     1     -44.711 -54.376  13.532  1.00  0.00     0.136 C 
HETATM   20  C   UNL     1     -43.576 -54.656  14.522  1.00  0.00     0.041 C 
HETATM   21  O   UNL     1     -45.925 -54.005  14.229  1.00  0.00    -0.378 OA
HETATM   22  C   UNL     1     -45.871 -52.682  14.803  1.00  0.00     0.136 C 
HETATM   23  C   UNL     1     -45.527 -51.630  13.732  1.00  0.00     0.156 C 
HETATM   24  C   UNL     1     -47.218 -52.381  15.445  1.00  0.00     0.041 C 
ENDBRANCH   1  17
TORSDOF 4
ENDMDL
MODEL 8
REMARK VINA RESULT:      -5.8      4.872      7.977
REMARK  4 active torsions:
REMARK  status: ('A' for Active; 'I' for Inactive)
REMARK    1  A    between atoms: N_4  and  C_9 
REMARK    2  A    between atoms: C_12  and  C_16 
REMARK       I    between atoms: C_16  and  N_18 
REMARK    3  A    between atoms: N_18  and  C_19 
REMARK    4  A    between atoms: C_19  and  C_20 
ROOT
HETATM    1  C   UNL     1     -41.331 -48.534  11.917  1.00  0.00     0.103 A 
HETATM    2  C   UNL     1     -40.246 -48.455  12.794  1.00  0.00     0.049 A 
HETATM    3  C   UNL     1     -39.611 -49.609  13.243  1.00  0.00     0.022 A 
HETATM    4  C   UNL     1     -40.056 -50.844  12.793  1.00  0.00     0.047 A 
HETATM    5  C   UNL     1     -41.168 -50.853  11.965  1.00  0.00     0.106 A 
HETATM    6  N   UNL     1     -41.808 -49.736  11.530  1.00  0.00    -0.351 N 
ATOM      7  HN  UNL     1     -42.628 -49.804  10.928  1.00  0.00     0.166 HD
ENDROOT
BRANCH   4   8
HETATM    8  C   UNL     1     -39.348 -52.067  13.232  1.00  0.00     0.253 C 
HETATM    9  O   UNL     1     -38.127 -52.133  13.163  1.00  0.00    -0.268 OA
HETATM   10  N   UNL     1     -40.126 -53.125  13.656  1.00  0.00    -0.348 N 
HETATM   11  H   UNL     1     -41.114 -53.125  13.432  1.00  0.00     0.163 HD
BRANCH  10  12
HETATM   12  C   UNL     1     -39.494 -54.422  13.920  1.00  0.00     0.240 C 
BRANCH  12  13
HETATM   13  C   UNL     1     -39.219 -54.745  15.396  1.00  0.00     0.403 C 
HETATM   14  F   UNL     1     -40.352 -55.031  16.078  1.00  0.00    -0.169 F 
HETATM   15  F   UNL     1     -38.369 -55.782  15.543  1.00  0.00    -0.169 F 
HETATM   16  F   UNL     1     -38.655 -53.672  16.007  1.00  0.00    -0.169 F 
ENDBRANCH  12  13
ENDBRANCH  10  12
ENDBRANCH   4   8
BRANCH   1  17
HETATM   17  N   UNL     1     -41.946 -47.382  11.500  1.00  0.00    -0.362 N 
HETATM   18  C   UNL     1     -41.736 -46.106  12.182  1.00  0.00     0.156 C 
HETATM   19  C   UNL     1     -41.637 -45.000  11.097  1.00  0.00     0.136 C 
HETATM   20  C   UNL     1     -40.311 -45.068  10.334  1.00  0.00     0.041 C 
HETATM   21  O   UNL     1     -42.760 -45.023  10.183  1.00  0.00    -0.378 OA
HETATM   22  C   UNL     1     -42.978 -46.317   9.581  1.00  0.00     0.136 C 
HETATM   23  C   UNL     1     -43.142 -47.406  10.658  1.00  0.00     0.156 C 
HETATM   24  C   UNL     1     -44.217 -46.235   8.702  1.00  0.00     0.041 C 
ENDBRANCH   1  17
TORSDOF 4
ENDMDL
MODEL 9
REMARK VINA RESULT:      -5.7      6.265      7.416
REMARK  4 active torsions:
REMARK  status: ('A' for Active; 'I' for Inactive)
REMARK    1  A    between atoms: N_4  and  C_9 
REMARK    2  A    between atoms: C_12  and  C_16 
REMARK       I    between atoms: C_16  and  N_18 
REMARK    3  A    between atoms: N_18  and  C_19 
REMARK    4  A    between atoms: C_19  and  C_20 
ROOT
HETATM    1  C   UNL     1     -40.770 -55.161  15.808  1.00  0.00     0.103 A 
HETATM    2  C   UNL     1     -40.683 -54.431  14.619  1.00  0.00     0.049 A 
HETATM    3  C   UNL     1     -41.829 -54.122  13.893  1.00  0.00     0.022 A 
HETATM    4  C   UNL     1     -43.065 -54.529  14.373  1.00  0.00     0.047 A 
HETATM    5  C   UNL     1     -43.075 -55.292  15.531  1.00  0.00     0.106 A 
HETATM    6  N   UNL     1     -41.964 -55.616  16.243  1.00  0.00    -0.351 N 
ATOM      7  HN  UNL     1     -42.031 -56.189  17.084  1.00  0.00     0.166 HD
ENDROOT
BRANCH   4   8
HETATM    8  C   UNL     1     -44.286 -54.155  13.626  1.00  0.00     0.253 C 
HETATM    9  O   UNL     1     -44.320 -54.257  12.406  1.00  0.00    -0.268 OA
HETATM   10  N   UNL     1     -45.337 -53.640  14.357  1.00  0.00    -0.348 N 
HETATM   11  H   UNL     1     -45.164 -53.318  15.301  1.00  0.00     0.163 HD
BRANCH  10  12
HETATM   12  C   UNL     1     -46.495 -53.077  13.654  1.00  0.00     0.240 C 
BRANCH  12  13
HETATM   13  C   UNL     1     -46.489 -51.551  13.471  1.00  0.00     0.403 C 
HETATM   14  F   UNL     1     -45.243 -51.030  13.553  1.00  0.00    -0.169 F 
HETATM   15  F   UNL     1     -47.023 -51.176  12.290  1.00  0.00    -0.169 F 
HETATM   16  F   UNL     1     -47.224 -50.965  14.450  1.00  0.00    -0.169 F 
ENDBRANCH  12  13
ENDBRANCH  10  12
ENDBRANCH   4   8
BRANCH   1  17
HETATM   17  N   UNL     1     -39.625 -55.464  16.498  1.00  0.00    -0.362 N 
HETATM   18  C   UNL     1     -38.385 -54.714  16.301  1.00  0.00     0.156 C 
HETATM   19  C   UNL     1     -37.719 -54.527  17.691  1.00  0.00     0.136 C 
HETATM   20  C   UNL     1     -38.468 -53.503  18.548  1.00  0.00     0.041 C 
HETATM   21  O   UNL     1     -37.564 -55.781  18.400  1.00  0.00    -0.378 OA
HETATM   22  C   UNL     1     -38.796 -56.525  18.516  1.00  0.00     0.136 C 
HETATM   23  C   UNL     1     -39.425 -56.768  17.131  1.00  0.00     0.156 C 
HETATM   24  C   UNL     1     -38.497 -57.843  19.213  1.00  0.00     0.041 C 
ENDBRANCH   1  17
TORSDOF 4
ENDMDL
