MODEL 1
REMARK VINA RESULT:      -5.5      0.000      0.000
REMARK  8 active torsions:
REMARK  status: ('A' for Active; 'I' for Inactive)
REMARK    1  A    between atoms: C_2  and  N_3 
REMARK    2  A    between atoms: C_2  and  C_12 
REMARK    3  A    between atoms: N_3  and  C_4 
REMARK    4  A    between atoms: C_4  and  C_5 
REMARK    5  A    between atoms: C_5  and  C_6 
REMARK    6  A    between atoms: C_6  and  N_7 
REMARK    7  A    between atoms: N_7  and  S_8 
REMARK    8  A    between atoms: C_12  and  N_14 
ROOT
HETATM    1  N   UNL     1     -40.986 -51.052  11.320  1.00  0.00     0.089 N 
HETATM    2  H   UNL     1     -41.635 -51.354  10.593  1.00  0.00     0.316 HD
ENDROOT
BRANCH   1   3
HETATM    3  C   UNL     1     -41.382 -51.662  12.618  1.00  0.00     0.240 C 
HETATM    4  C   UNL     1     -40.130 -52.099  13.396  1.00  0.00     0.045 C 
BRANCH   3   5
HETATM    5  C   UNL     1     -42.442 -52.805  12.500  1.00  0.00     0.136 C 
HETATM    6  C   UNL     1     -42.097 -54.057  13.317  1.00  0.00     0.036 C 
BRANCH   5   7
HETATM    7  N   UNL     1     -43.783 -52.340  12.859  1.00  0.00    -0.297 N 
HETATM    8  C   UNL     1     -44.090 -51.392  13.797  1.00  0.00     0.112 A 
HETATM    9  C   UNL     1     -45.460 -51.275  13.787  1.00  0.00     0.037 A 
HETATM   10  C   UNL     1     -45.887 -52.175  12.797  1.00  0.00     0.108 A 
HETATM   11  N   UNL     1     -44.869 -52.801  12.201  1.00  0.00    -0.310 N 
ATOM     12  HN  UNL     1     -44.903 -53.469  11.430  1.00  0.00     0.186 HD
ENDBRANCH   5   7
ENDBRANCH   3   5
ENDBRANCH   1   3
BRANCH   1  13
HETATM   13  C   UNL     1     -40.877 -49.600  11.340  1.00  0.00     0.271 C 
BRANCH  13  14
HETATM   14  C   UNL     1     -42.200 -48.927  11.708  1.00  0.00     0.045 C 
BRANCH  14  15
HETATM   15  C   UNL     1     -42.398 -47.741  10.767  1.00  0.00     0.105 C 
BRANCH  15  16
HETATM   16  N   UNL     1     -42.388 -48.175   9.349  1.00  0.00    -0.220 NA
HETATM   17  H   UNL     1     -42.502 -49.188   9.280  1.00  0.00     0.139 HD
BRANCH  16  18
HETATM   18  S   UNL     1     -43.597 -47.392   8.442  1.00  0.00     0.205 S 
HETATM   19  O   UNL     1     -43.190 -46.008   8.344  1.00  0.00    -0.212 OA
HETATM   20  O   UNL     1     -43.860 -48.193   7.264  1.00  0.00    -0.212 OA
HETATM   21  C   UNL     1     -44.987 -47.494   9.541  1.00  0.00     0.179 C 
ENDBRANCH  16  18
ENDBRANCH  15  16
ENDBRANCH  14  15
ENDBRANCH  13  14
ENDBRANCH   1  13
TORSDOF 8
ENDMDL
MODEL 2
REMARK VINA RESULT:      -5.3      3.512      5.714
REMARK  8 active torsions:
REMARK  status: ('A' for Active; 'I' for Inactive)
REMARK    1  A    between atoms: C_2  and  N_3 
REMARK    2  A    between atoms: C_2  and  C_12 
REMARK    3  A    between atoms: N_3  and  C_4 
REMARK    4  A    between atoms: C_4  and  C_5 
REMARK    5  A    between atoms: C_5  and  C_6 
REMARK    6  A    between atoms: C_6  and  N_7 
REMARK    7  A    between atoms: N_7  and  S_8 
REMARK    8  A    between atoms: C_12  and  N_14 
ROOT
HETATM    1  N   UNL     1     -40.545 -50.045  10.720  1.00  0.00     0.089 N 
HETATM    2  H   UNL     1     -39.707 -50.086  10.138  1.00  0.00     0.316 HD
ENDROOT
BRANCH   1   3
HETATM    3  C   UNL     1     -40.908 -48.623  10.962  1.00  0.00     0.240 C 
HETATM    4  C   UNL     1     -39.967 -48.013  12.015  1.00  0.00     0.045 C 
BRANCH   3   5
HETATM    5  C   UNL     1     -42.416 -48.388  11.301  1.00  0.00     0.136 C 
HETATM    6  C   UNL     1     -42.646 -47.401  12.452  1.00  0.00     0.036 C 
BRANCH   5   7
HETATM    7  N   UNL     1     -43.174 -47.955  10.125  1.00  0.00    -0.297 N 
HETATM    8  C   UNL     1     -44.457 -47.478  10.117  1.00  0.00     0.112 A 
HETATM    9  C   UNL     1     -44.748 -47.191   8.804  1.00  0.00     0.037 A 
HETATM   10  C   UNL     1     -43.572 -47.506   8.101  1.00  0.00     0.108 A 
HETATM   11  N   UNL     1     -42.596 -47.937   8.904  1.00  0.00    -0.310 N 
ATOM     12  HN  UNL     1     -41.641 -48.193   8.654  1.00  0.00     0.186 HD
ENDBRANCH   5   7
ENDBRANCH   3   5
ENDBRANCH   1   3
BRANCH   1  13
HETATM   13  C   UNL     1     -40.371 -50.841  11.926  1.00  0.00     0.271 C 
BRANCH  13  14
HETATM   14  C   UNL     1     -41.288 -52.065  11.948  1.00  0.00     0.045 C 
BRANCH  14  15
HETATM   15  C   UNL     1     -42.333 -51.846  13.039  1.00  0.00     0.105 C 
BRANCH  15  16
HETATM   16  N   UNL     1     -43.690 -51.696  12.459  1.00  0.00    -0.220 NA
HETATM   17  H   UNL     1     -43.654 -51.745  11.439  1.00  0.00     0.139 HD
BRANCH  16  18
HETATM   18  S   UNL     1     -44.764 -52.872  13.059  1.00  0.00     0.205 S 
HETATM   19  O   UNL     1     -44.480 -54.085  12.326  1.00  0.00    -0.212 OA
HETATM   20  O   UNL     1     -44.712 -52.828  14.507  1.00  0.00    -0.212 OA
HETATM   21  C   UNL     1     -46.328 -52.236  12.512  1.00  0.00     0.179 C 
ENDBRANCH  16  18
ENDBRANCH  15  16
ENDBRANCH  14  15
ENDBRANCH  13  14
ENDBRANCH   1  13
TORSDOF 8
ENDMDL
MODEL 3
REMARK VINA RESULT:      -5.3      1.857      3.223
REMARK  8 active torsions:
REMARK  status: ('A' for Active; 'I' for Inactive)
REMARK    1  A    between atoms: C_2  and  N_3 
REMARK    2  A    between atoms: C_2  and  C_12 
REMARK    3  A    between atoms: N_3  and  C_4 
REMARK    4  A    between atoms: C_4  and  C_5 
REMARK    5  A    between atoms: C_5  and  C_6 
REMARK    6  A    between atoms: C_6  and  N_7 
REMARK    7  A    between atoms: N_7  and  S_8 
REMARK    8  A    between atoms: C_12  and  N_14 
ROOT
HETATM    1  N   UNL     1     -40.534 -47.863  10.781  1.00  0.00     0.089 N 
HETATM    2  H   UNL     1     -41.408 -47.711  10.277  1.00  0.00     0.316 HD
ENDROOT
BRANCH   1   3
HETATM    3  C   UNL     1     -40.751 -48.874  11.850  1.00  0.00     0.240 C 
HETATM    4  C   UNL     1     -40.325 -48.299  13.211  1.00  0.00     0.045 C 
BRANCH   3   5
HETATM    5  C   UNL     1     -40.107 -50.269  11.563  1.00  0.00     0.136 C 
HETATM    6  C   UNL     1     -38.694 -50.429  12.137  1.00  0.00     0.036 C 
BRANCH   5   7
HETATM    7  N   UNL     1     -40.955 -51.365  12.036  1.00  0.00    -0.297 N 
HETATM    8  C   UNL     1     -40.528 -52.538  12.599  1.00  0.00     0.112 A 
HETATM    9  C   UNL     1     -41.664 -53.254  12.894  1.00  0.00     0.037 A 
HETATM   10  C   UNL     1     -42.724 -52.423  12.494  1.00  0.00     0.108 A 
HETATM   11  N   UNL     1     -42.301 -51.255  12.005  1.00  0.00    -0.310 N 
ATOM     12  HN  UNL     1     -42.862 -50.466  11.683  1.00  0.00     0.186 HD
ENDBRANCH   5   7
ENDBRANCH   3   5
ENDBRANCH   1   3
BRANCH   1  13
HETATM   13  C   UNL     1     -39.982 -46.598  11.245  1.00  0.00     0.271 C 
BRANCH  13  14
HETATM   14  C   UNL     1     -40.568 -45.402  10.493  1.00  0.00     0.045 C 
BRANCH  14  15
HETATM   15  C   UNL     1     -42.070 -45.635  10.346  1.00  0.00     0.105 C 
BRANCH  15  16
HETATM   16  N   UNL     1     -42.424 -45.988   8.950  1.00  0.00    -0.220 NA
HETATM   17  H   UNL     1     -41.598 -46.302   8.436  1.00  0.00     0.139 HD
BRANCH  16  18
HETATM   18  S   UNL     1     -43.635 -47.183   8.890  1.00  0.00     0.205 S 
HETATM   19  O   UNL     1     -43.490 -47.835   7.607  1.00  0.00    -0.212 OA
HETATM   20  O   UNL     1     -43.588 -47.928  10.132  1.00  0.00    -0.212 OA
HETATM   21  C   UNL     1     -45.108 -46.194   8.858  1.00  0.00     0.179 C 
ENDBRANCH  16  18
ENDBRANCH  15  16
ENDBRANCH  14  15
ENDBRANCH  13  14
ENDBRANCH   1  13
TORSDOF 8
ENDMDL
MODEL 4
REMARK VINA RESULT:      -5.2      1.227      1.477
REMARK  8 active torsions:
REMARK  status: ('A' for Active; 'I' for Inactive)
REMARK    1  A    between atoms: C_2  and  N_3 
REMARK    2  A    between atoms: C_2  and  C_12 
REMARK    3  A    between atoms: N_3  and  C_4 
REMARK    4  A    between atoms: C_4  and  C_5 
REMARK    5  A    between atoms: C_5  and  C_6 
REMARK    6  A    between atoms: C_6  and  N_7 
REMARK    7  A    between atoms: N_7  and  S_8 
REMARK    8  A    between atoms: C_12  and  N_14 
ROOT
HETATM    1  N   UNL     1     -42.200 -50.851  11.732  1.00  0.00     0.089 N 
HETATM    2  H   UNL     1     -43.136 -50.870  11.326  1.00  0.00     0.316 HD
ENDROOT
BRANCH   1   3
HETATM    3  C   UNL     1     -42.117 -51.853  12.827  1.00  0.00     0.240 C 
HETATM    4  C   UNL     1     -40.697 -52.439  12.896  1.00  0.00     0.045 C 
BRANCH   3   5
HETATM    5  C   UNL     1     -43.219 -52.961  12.777  1.00  0.00     0.136 C 
HETATM    6  C   UNL     1     -42.964 -54.132  13.735  1.00  0.00     0.036 C 
BRANCH   5   7
HETATM    7  N   UNL     1     -44.553 -52.409  13.021  1.00  0.00    -0.297 N 
HETATM    8  C   UNL     1     -44.976 -51.779  14.160  1.00  0.00     0.112 A 
HETATM    9  C   UNL     1     -46.285 -51.426  13.937  1.00  0.00     0.037 A 
HETATM   10  C   UNL     1     -46.555 -51.865  12.629  1.00  0.00     0.108 A 
HETATM   11  N   UNL     1     -45.493 -52.432  12.051  1.00  0.00    -0.310 N 
ATOM     12  HN  UNL     1     -45.411 -52.796  11.102  1.00  0.00     0.186 HD
ENDBRANCH   5   7
ENDBRANCH   3   5
ENDBRANCH   1   3
BRANCH   1  13
HETATM   13  C   UNL     1     -41.836 -49.495  12.120  1.00  0.00     0.271 C 
BRANCH  13  14
HETATM   14  C   UNL     1     -41.027 -48.781  11.036  1.00  0.00     0.045 C 
BRANCH  14  15
HETATM   15  C   UNL     1     -41.902 -47.673  10.454  1.00  0.00     0.105 C 
BRANCH  15  16
HETATM   16  N   UNL     1     -43.319 -48.099  10.367  1.00  0.00    -0.220 NA
HETATM   17  H   UNL     1     -43.780 -48.010  11.275  1.00  0.00     0.139 HD
BRANCH  16  18
HETATM   18  S   UNL     1     -44.173 -47.211   9.193  1.00  0.00     0.205 S 
HETATM   19  O   UNL     1     -45.560 -47.595   9.331  1.00  0.00    -0.212 OA
HETATM   20  O   UNL     1     -43.753 -45.827   9.287  1.00  0.00    -0.212 OA
HETATM   21  C   UNL     1     -43.542 -47.911   7.689  1.00  0.00     0.179 C 
ENDBRANCH  16  18
ENDBRANCH  15  16
ENDBRANCH  14  15
ENDBRANCH  13  14
ENDBRANCH   1  13
TORSDOF 8
ENDMDL
MODEL 5
REMARK VINA RESULT:      -5.1      4.285      4.716
REMARK  8 active torsions:
REMARK  status: ('A' for Active; 'I' for Inactive)
REMARK    1  A    between atoms: C_2  and  N_3 
REMARK    2  A    between atoms: C_2  and  C_12 
REMARK    3  A    between atoms: N_3  and  C_4 
REMARK    4  A    between atoms: C_4  and  C_5 
REMARK    5  A    between atoms: C_5  and  C_6 
REMARK    6  A    between atoms: C_6  and  N_7 
REMARK    7  A    between atoms: N_7  and  S_8 
REMARK    8  A    between atoms: C_12  and  N_14 
ROOT
HETATM    1  N   UNL     1     -41.437 -53.289  12.928  1.00  0.00     0.089 N 
HETATM    2  H   UNL     1     -41.339 -54.239  12.569  1.00  0.00     0.316 HD
ENDROOT
BRANCH   1   3
HETATM    3  C   UNL     1     -42.520 -53.256  13.947  1.00  0.00     0.240 C 
HETATM    4  C   UNL     1     -42.015 -53.862  15.268  1.00  0.00     0.045 C 
BRANCH   3   5
HETATM    5  C   UNL     1     -43.871 -53.888  13.478  1.00  0.00     0.136 C 
HETATM    6  C   UNL     1     -44.302 -55.110  14.299  1.00  0.00     0.036 C 
BRANCH   5   7
HETATM    7  N   UNL     1     -44.953 -52.902  13.462  1.00  0.00    -0.297 N 
HETATM    8  C   UNL     1     -45.502 -52.280  14.551  1.00  0.00     0.112 A 
HETATM    9  C   UNL     1     -46.471 -51.437  14.060  1.00  0.00     0.037 A 
HETATM   10  C   UNL     1     -46.417 -51.605  12.666  1.00  0.00     0.108 A 
HETATM   11  N   UNL     1     -45.469 -52.468  12.291  1.00  0.00    -0.310 N 
ATOM     12  HN  UNL     1     -45.199 -52.736  11.345  1.00  0.00     0.186 HD
ENDBRANCH   5   7
ENDBRANCH   3   5
ENDBRANCH   1   3
BRANCH   1  13
HETATM   13  C   UNL     1     -41.604 -52.342  11.834  1.00  0.00     0.271 C 
BRANCH  13  14
HETATM   14  C   UNL     1     -41.731 -50.902  12.332  1.00  0.00     0.045 C 
BRANCH  14  15
HETATM   15  C   UNL     1     -40.391 -50.207  12.095  1.00  0.00     0.105 C 
BRANCH  15  16
HETATM   16  N   UNL     1     -39.318 -51.192  11.819  1.00  0.00    -0.220 NA
HETATM   17  H   UNL     1     -38.884 -51.009  10.912  1.00  0.00     0.139 HD
BRANCH  16  18
HETATM   18  S   UNL     1     -38.133 -51.192  13.041  1.00  0.00     0.205 S 
HETATM   19  O   UNL     1     -38.736 -51.843  14.183  1.00  0.00    -0.212 OA
HETATM   20  O   UNL     1     -36.893 -51.666  12.460  1.00  0.00    -0.212 OA
HETATM   21  C   UNL     1     -37.988 -49.458  13.393  1.00  0.00     0.179 C 
ENDBRANCH  16  18
ENDBRANCH  15  16
ENDBRANCH  14  15
ENDBRANCH  13  14
ENDBRANCH   1  13
TORSDOF 8
ENDMDL
MODEL 6
REMARK VINA RESULT:      -5.1      3.721      5.947
REMARK  8 active torsions:
REMARK  status: ('A' for Active; 'I' for Inactive)
REMARK    1  A    between atoms: C_2  and  N_3 
REMARK    2  A    between atoms: C_2  and  C_12 
REMARK    3  A    between atoms: N_3  and  C_4 
REMARK    4  A    between atoms: C_4  and  C_5 
REMARK    5  A    between atoms: C_5  and  C_6 
REMARK    6  A    between atoms: C_6  and  N_7 
REMARK    7  A    between atoms: N_7  and  S_8 
REMARK    8  A    between atoms: C_12  and  N_14 
ROOT
HETATM    1  N   UNL     1     -41.819 -49.563  11.209  1.00  0.00     0.089 N 
HETATM    2  H   UNL     1     -42.348 -49.443  10.345  1.00  0.00     0.316 HD
ENDROOT
BRANCH   1   3
HETATM    3  C   UNL     1     -42.085 -48.414  12.115  1.00  0.00     0.240 C 
HETATM    4  C   UNL     1     -43.126 -48.811  13.175  1.00  0.00     0.045 C 
BRANCH   3   5
HETATM    5  C   UNL     1     -42.457 -47.084  11.382  1.00  0.00     0.136 C 
HETATM    6  C   UNL     1     -41.250 -46.193  11.063  1.00  0.00     0.036 C 
BRANCH   5   7
HETATM    7  N   UNL     1     -43.218 -47.335  10.156  1.00  0.00    -0.297 N 
HETATM    8  C   UNL     1     -44.574 -47.494  10.060  1.00  0.00     0.112 A 
HETATM    9  C   UNL     1     -44.840 -47.697   8.726  1.00  0.00     0.037 A 
HETATM   10  C   UNL     1     -43.586 -47.620   8.097  1.00  0.00     0.108 A 
HETATM   11  N   UNL     1     -42.597 -47.362   8.956  1.00  0.00    -0.310 N 
ATOM     12  HN  UNL     1     -41.607 -47.220   8.755  1.00  0.00     0.186 HD
ENDBRANCH   5   7
ENDBRANCH   3   5
ENDBRANCH   1   3
BRANCH   1  13
HETATM   13  C   UNL     1     -40.411 -49.795  10.920  1.00  0.00     0.271 C 
BRANCH  13  14
HETATM   14  C   UNL     1     -39.537 -49.669  12.169  1.00  0.00     0.045 C 
BRANCH  14  15
HETATM   15  C   UNL     1     -39.492 -51.038  12.846  1.00  0.00     0.105 C 
BRANCH  15  16
HETATM   16  N   UNL     1     -40.062 -52.088  11.969  1.00  0.00    -0.220 NA
HETATM   17  H   UNL     1     -39.337 -52.744  11.672  1.00  0.00     0.139 HD
BRANCH  16  18
HETATM   18  S   UNL     1     -41.328 -52.931  12.736  1.00  0.00     0.205 S 
HETATM   19  O   UNL     1     -42.546 -52.498  12.089  1.00  0.00    -0.212 OA
HETATM   20  O   UNL     1     -40.956 -54.329  12.804  1.00  0.00    -0.212 OA
HETATM   21  C   UNL     1     -41.279 -52.234  14.368  1.00  0.00     0.179 C 
ENDBRANCH  16  18
ENDBRANCH  15  16
ENDBRANCH  14  15
ENDBRANCH  13  14
ENDBRANCH   1  13
TORSDOF 8
ENDMDL
MODEL 7
REMARK VINA RESULT:      -4.9      3.625      6.533
REMARK  8 active torsions:
REMARK  status: ('A' for Active; 'I' for Inactive)
REMARK    1  A    between atoms: C_2  and  N_3 
REMARK    2  A    between atoms: C_2  and  C_12 
REMARK    3  A    between atoms: N_3  and  C_4 
REMARK    4  A    between atoms: C_4  and  C_5 
REMARK    5  A    between atoms: C_5  and  C_6 
REMARK    6  A    between atoms: C_6  and  N_7 
REMARK    7  A    between atoms: N_7  and  S_8 
REMARK    8  A    between atoms: C_12  and  N_14 
ROOT
HETATM    1  N   UNL     1     -41.850 -49.998  11.542  1.00  0.00     0.089 N 
HETATM    2  H   UNL     1     -41.361 -50.688  10.972  1.00  0.00     0.316 HD
ENDROOT
BRANCH   1   3
HETATM    3  C   UNL     1     -41.145 -48.692  11.449  1.00  0.00     0.240 C 
HETATM    4  C   UNL     1     -40.827 -48.166  12.859  1.00  0.00     0.045 C 
BRANCH   3   5
HETATM    5  C   UNL     1     -41.867 -47.627  10.561  1.00  0.00     0.136 C 
HETATM    6  C   UNL     1     -43.357 -47.459  10.884  1.00  0.00     0.036 C 
BRANCH   5   7
HETATM    7  N   UNL     1     -41.201 -46.325  10.628  1.00  0.00    -0.297 N 
HETATM    8  C   UNL     1     -41.732 -45.165  11.126  1.00  0.00     0.112 A 
HETATM    9  C   UNL     1     -40.753 -44.210  10.994  1.00  0.00     0.037 A 
HETATM   10  C   UNL     1     -39.662 -44.893  10.428  1.00  0.00     0.108 A 
HETATM   11  N   UNL     1     -39.915 -46.190  10.237  1.00  0.00    -0.310 N 
ATOM     12  HN  UNL     1     -39.286 -46.909   9.880  1.00  0.00     0.186 HD
ENDBRANCH   5   7
ENDBRANCH   3   5
ENDBRANCH   1   3
BRANCH   1  13
HETATM   13  C   UNL     1     -42.037 -50.492  12.899  1.00  0.00     0.271 C 
BRANCH  13  14
HETATM   14  C   UNL     1     -41.708 -51.981  13.022  1.00  0.00     0.045 C 
BRANCH  14  15
HETATM   15  C   UNL     1     -42.896 -52.768  12.474  1.00  0.00     0.105 C 
BRANCH  15  16
HETATM   16  N   UNL     1     -44.151 -51.985  12.576  1.00  0.00    -0.220 NA
HETATM   17  H   UNL     1     -44.254 -51.361  11.774  1.00  0.00     0.139 HD
BRANCH  16  18
HETATM   18  S   UNL     1     -45.515 -52.995  12.705  1.00  0.00     0.205 S 
HETATM   19  O   UNL     1     -46.455 -52.527  11.712  1.00  0.00    -0.212 OA
HETATM   20  O   UNL     1     -45.052 -54.368  12.728  1.00  0.00    -0.212 OA
HETATM   21  C   UNL     1     -46.128 -52.559  14.313  1.00  0.00     0.179 C 
ENDBRANCH  16  18
ENDBRANCH  15  16
ENDBRANCH  14  15
ENDBRANCH  13  14
ENDBRANCH   1  13
TORSDOF 8
ENDMDL
MODEL 8
REMARK VINA RESULT:      -4.9      1.998      2.518
REMARK  8 active torsions:
REMARK  status: ('A' for Active; 'I' for Inactive)
REMARK    1  A    between atoms: C_2  and  N_3 
REMARK    2  A    between atoms: C_2  and  C_12 
REMARK    3  A    between atoms: N_3  and  C_4 
REMARK    4  A    between atoms: C_4  and  C_5 
REMARK    5  A    between atoms: C_5  and  C_6 
REMARK    6  A    between atoms: C_6  and  N_7 
REMARK    7  A    between atoms: N_7  and  S_8 
REMARK    8  A    between atoms: C_12  and  N_14 
ROOT
HETATM    1  N   UNL     1     -42.359 -50.827  11.843  1.00  0.00     0.089 N 
HETATM    2  H   UNL     1     -43.352 -50.768  11.615  1.00  0.00     0.316 HD
ENDROOT
BRANCH   1   3
HETATM    3  C   UNL     1     -42.145 -51.910  12.839  1.00  0.00     0.240 C 
HETATM    4  C   UNL     1     -40.726 -52.486  12.692  1.00  0.00     0.045 C 
BRANCH   3   5
HETATM    5  C   UNL     1     -43.244 -53.022  12.834  1.00  0.00     0.136 C 
HETATM    6  C   UNL     1     -42.995 -54.145  13.849  1.00  0.00     0.036 C 
BRANCH   5   7
HETATM    7  N   UNL     1     -44.581 -52.463  13.041  1.00  0.00    -0.297 N 
HETATM    8  C   UNL     1     -45.026 -51.813  14.161  1.00  0.00     0.112 A 
HETATM    9  C   UNL     1     -46.330 -51.460  13.903  1.00  0.00     0.037 A 
HETATM   10  C   UNL     1     -46.573 -51.918  12.598  1.00  0.00     0.108 A 
HETATM   11  N   UNL     1     -45.501 -52.497  12.051  1.00  0.00    -0.310 N 
ATOM     12  HN  UNL     1     -45.400 -52.877  11.110  1.00  0.00     0.186 HD
ENDBRANCH   5   7
ENDBRANCH   3   5
ENDBRANCH   1   3
BRANCH   1  13
HETATM   13  C   UNL     1     -41.847 -49.524  12.243  1.00  0.00     0.271 C 
BRANCH  13  14
HETATM   14  C   UNL     1     -42.636 -48.375  11.614  1.00  0.00     0.045 C 
BRANCH  14  15
HETATM   15  C   UNL     1     -41.951 -48.002  10.301  1.00  0.00     0.105 C 
BRANCH  15  16
HETATM   16  N   UNL     1     -40.697 -47.252  10.545  1.00  0.00    -0.220 NA
HETATM   17  H   UNL     1     -40.028 -47.409   9.789  1.00  0.00     0.139 HD
BRANCH  16  18
HETATM   18  S   UNL     1     -40.985 -45.584  10.727  1.00  0.00     0.205 S 
HETATM   19  O   UNL     1     -42.087 -45.270   9.844  1.00  0.00    -0.212 OA
HETATM   20  O   UNL     1     -41.039 -45.292  12.145  1.00  0.00    -0.212 OA
HETATM   21  C   UNL     1     -39.501 -44.891  10.044  1.00  0.00     0.179 C 
ENDBRANCH  16  18
ENDBRANCH  15  16
ENDBRANCH  14  15
ENDBRANCH  13  14
ENDBRANCH   1  13
TORSDOF 8
ENDMDL
MODEL 9
REMARK VINA RESULT:      -4.9      4.092      6.535
REMARK  8 active torsions:
REMARK  status: ('A' for Active; 'I' for Inactive)
REMARK    1  A    between atoms: C_2  and  N_3 
REMARK    2  A    between atoms: C_2  and  C_12 
REMARK    3  A    between atoms: N_3  and  C_4 
REMARK    4  A    between atoms: C_4  and  C_5 
REMARK    5  A    between atoms: C_5  and  C_6 
REMARK    6  A    between atoms: C_6  and  N_7 
REMARK    7  A    between atoms: N_7  and  S_8 
REMARK    8  A    between atoms: C_12  and  N_14 
ROOT
HETATM    1  N   UNL     1     -40.572 -50.306  10.976  1.00  0.00     0.089 N 
HETATM    2  H   UNL     1     -40.141 -50.970  10.334  1.00  0.00     0.316 HD
ENDROOT
BRANCH   1   3
HETATM    3  C   UNL     1     -39.573 -49.272  11.360  1.00  0.00     0.240 C 
HETATM    4  C   UNL     1     -38.279 -49.948  11.843  1.00  0.00     0.045 C 
BRANCH   3   5
HETATM    5  C   UNL     1     -40.103 -48.204  12.371  1.00  0.00     0.136 C 
HETATM    6  C   UNL     1     -39.437 -48.273  13.751  1.00  0.00     0.036 C 
BRANCH   5   7
HETATM    7  N   UNL     1     -39.982 -46.846  11.836  1.00  0.00    -0.297 N 
HETATM    8  C   UNL     1     -39.680 -45.716  12.548  1.00  0.00     0.112 A 
HETATM    9  C   UNL     1     -39.666 -44.685  11.639  1.00  0.00     0.037 A 
HETATM   10  C   UNL     1     -39.948 -45.295  10.404  1.00  0.00     0.108 A 
HETATM   11  N   UNL     1     -40.104 -46.616  10.510  1.00  0.00    -0.310 N 
ATOM     12  HN  UNL     1     -40.276 -47.293   9.766  1.00  0.00     0.186 HD
ENDBRANCH   5   7
ENDBRANCH   3   5
ENDBRANCH   1   3
BRANCH   1  13
HETATM   13  C   UNL     1     -41.187 -51.002  12.097  1.00  0.00     0.271 C 
BRANCH  13  14
HETATM   14  C   UNL     1     -41.198 -52.518  11.900  1.00  0.00     0.045 C 
BRANCH  14  15
HETATM   15  C   UNL     1     -42.316 -53.094  12.767  1.00  0.00     0.105 C 
BRANCH  15  16
HETATM   16  N   UNL     1     -43.608 -53.103  12.038  1.00  0.00    -0.220 NA
HETATM   17  H   UNL     1     -43.612 -53.830  11.319  1.00  0.00     0.139 HD
BRANCH  16  18
HETATM   18  S   UNL     1     -44.925 -53.325  13.094  1.00  0.00     0.205 S 
HETATM   19  O   UNL     1     -45.308 -54.713  12.969  1.00  0.00    -0.212 OA
HETATM   20  O   UNL     1     -44.573 -52.744  14.374  1.00  0.00    -0.212 OA
HETATM   21  C   UNL     1     -46.170 -52.324  12.322  1.00  0.00     0.179 C 
ENDBRANCH  16  18
ENDBRANCH  15  16
ENDBRANCH  14  15
ENDBRANCH  13  14
ENDBRANCH   1  13
TORSDOF 8
ENDMDL
