MODEL 1
REMARK VINA RESULT:      -6.4      0.000      0.000
REMARK  6 active torsions:
REMARK  status: ('A' for Active; 'I' for Inactive)
REMARK    1  A    between atoms: N_4  and  C_9 
REMARK    2  A    between atoms: C_12  and  N_13 
REMARK       I    between atoms: N_13  and  C_14 
REMARK    3  A    between atoms: C_14  and  C_16 
REMARK    4  A    between atoms: C_16  and  O_17 
REMARK    5  A    between atoms: O_17  and  C_18 
REMARK    6  A    between atoms: C_18  and  C_19 
ROOT
HETATM    1  C   UNL     1     -41.936 -51.559  12.322  1.00  0.00     0.103 A 
HETATM    2  C   UNL     1     -42.710 -50.447  12.639  1.00  0.00     0.051 A 
HETATM    3  C   UNL     1     -42.383 -49.179  12.160  1.00  0.00     0.035 A 
HETATM    4  C   UNL     1     -41.270 -49.011  11.359  1.00  0.00     0.050 A 
HETATM    5  C   UNL     1     -40.527 -50.153  11.098  1.00  0.00     0.119 A 
HETATM    6  N   UNL     1     -40.827 -51.395  11.563  1.00  0.00    -0.350 N 
ATOM      7  HN  UNL     1     -40.227 -52.190  11.343  1.00  0.00     0.166 HD
ENDROOT
BRANCH   4   8
HETATM    8  N   UNL     1     -40.913 -47.772  10.789  1.00  0.00    -0.324 N 
HETATM    9  C   UNL     1     -40.702 -46.587  11.484  1.00  0.00     0.245 C 
HETATM   10  O   UNL     1     -40.604 -46.466  12.702  1.00  0.00    -0.271 OA
HETATM   11  H   UNL     1     -40.826 -47.732   9.779  1.00  0.00     0.169 HD
BRANCH   9  12
HETATM   12  C   UNL     1     -40.539 -45.378  10.567  1.00  0.00     0.271 C 
BRANCH  12  13
HETATM   13  O   UNL     1     -41.515 -45.408   9.532  1.00  0.00    -0.373 OA
BRANCH  13  14
HETATM   14  C   UNL     1     -42.852 -45.386  10.054  1.00  0.00     0.285 C 
BRANCH  14  15
HETATM   15  C   UNL     1     -43.848 -46.146   9.173  1.00  0.00     0.408 C 
HETATM   16  F   UNL     1     -44.287 -47.288   9.743  1.00  0.00    -0.169 F 
HETATM   17  F   UNL     1     -44.933 -45.380   8.910  1.00  0.00    -0.169 F 
HETATM   18  F   UNL     1     -43.287 -46.470   7.985  1.00  0.00    -0.169 F 
ENDBRANCH  14  15
ENDBRANCH  13  14
ENDBRANCH  12  13
ENDBRANCH   9  12
ENDBRANCH   4   8
BRANCH   1  19
HETATM   19  N   UNL     1     -42.240 -52.807  12.803  1.00  0.00    -0.362 N 
HETATM   20  C   UNL     1     -41.187 -53.703  13.290  1.00  0.00     0.156 C 
HETATM   21  C   UNL     1     -41.672 -54.393  14.590  1.00  0.00     0.136 C 
HETATM   22  C   UNL     1     -41.644 -53.439  15.785  1.00  0.00     0.041 C 
HETATM   23  O   UNL     1     -42.973 -55.009  14.444  1.00  0.00    -0.378 OA
HETATM   24  C   UNL     1     -43.970 -54.100  13.935  1.00  0.00     0.136 C 
HETATM   25  C   UNL     1     -43.519 -53.491  12.593  1.00  0.00     0.156 C 
HETATM   26  C   UNL     1     -45.274 -54.864  13.763  1.00  0.00     0.041 C 
ENDBRANCH   1  19
TORSDOF 6
ENDMDL
MODEL 2
REMARK VINA RESULT:      -6.3      1.699      2.066
REMARK  6 active torsions:
REMARK  status: ('A' for Active; 'I' for Inactive)
REMARK    1  A    between atoms: N_4  and  C_9 
REMARK    2  A    between atoms: C_12  and  N_13 
REMARK       I    between atoms: N_13  and  C_14 
REMARK    3  A    between atoms: C_14  and  C_16 
REMARK    4  A    between atoms: C_16  and  O_17 
REMARK    5  A    between atoms: O_17  and  C_18 
REMARK    6  A    between atoms: C_18  and  C_19 
ROOT
HETATM    1  C   UNL     1     -41.763 -51.310  12.169  1.00  0.00     0.103 A 
HETATM    2  C   UNL     1     -42.544 -50.206  12.498  1.00  0.00     0.051 A 
HETATM    3  C   UNL     1     -42.238 -48.935  12.015  1.00  0.00     0.035 A 
HETATM    4  C   UNL     1     -41.138 -48.755  11.197  1.00  0.00     0.050 A 
HETATM    5  C   UNL     1     -40.387 -49.888  10.925  1.00  0.00     0.119 A 
HETATM    6  N   UNL     1     -40.667 -51.134  11.394  1.00  0.00    -0.350 N 
ATOM      7  HN  UNL     1     -40.062 -51.923  11.165  1.00  0.00     0.166 HD
ENDROOT
BRANCH   4   8
HETATM    8  N   UNL     1     -40.802 -47.512  10.624  1.00  0.00    -0.324 N 
HETATM    9  C   UNL     1     -40.164 -46.461  11.272  1.00  0.00     0.245 C 
HETATM   10  O   UNL     1     -39.624 -46.508  12.373  1.00  0.00    -0.271 OA
HETATM   11  H   UNL     1     -41.072 -47.357   9.657  1.00  0.00     0.169 HD
BRANCH   9  12
HETATM   12  C   UNL     1     -40.134 -45.179  10.445  1.00  0.00     0.271 C 
BRANCH  12  13
HETATM   13  O   UNL     1     -41.454 -44.676  10.266  1.00  0.00    -0.373 OA
BRANCH  13  14
HETATM   14  C   UNL     1     -41.926 -43.983  11.432  1.00  0.00     0.285 C 
BRANCH  14  15
HETATM   15  C   UNL     1     -42.877 -42.831  11.095  1.00  0.00     0.408 C 
HETATM   16  F   UNL     1     -42.246 -41.777  10.535  1.00  0.00    -0.169 F 
HETATM   17  F   UNL     1     -43.833 -43.240  10.228  1.00  0.00    -0.169 F 
HETATM   18  F   UNL     1     -43.507 -42.387  12.208  1.00  0.00    -0.169 F 
ENDBRANCH  14  15
ENDBRANCH  13  14
ENDBRANCH  12  13
ENDBRANCH   9  12
ENDBRANCH   4   8
BRANCH   1  19
HETATM   19  N   UNL     1     -42.047 -52.562  12.653  1.00  0.00    -0.362 N 
HETATM   20  C   UNL     1     -40.972 -53.485  13.029  1.00  0.00     0.156 C 
HETATM   21  C   UNL     1     -41.352 -54.191  14.355  1.00  0.00     0.136 C 
HETATM   22  C   UNL     1     -41.200 -53.261  15.559  1.00  0.00     0.041 C 
HETATM   23  O   UNL     1     -42.673 -54.780  14.316  1.00  0.00    -0.378 OA
HETATM   24  C   UNL     1     -43.693 -53.845  13.914  1.00  0.00     0.136 C 
HETATM   25  C   UNL     1     -43.353 -53.219  12.548  1.00  0.00     0.156 C 
HETATM   26  C   UNL     1     -45.022 -54.582  13.846  1.00  0.00     0.041 C 
ENDBRANCH   1  19
TORSDOF 6
ENDMDL
MODEL 3
REMARK VINA RESULT:      -6.2      3.326      8.072
REMARK  6 active torsions:
REMARK  status: ('A' for Active; 'I' for Inactive)
REMARK    1  A    between atoms: N_4  and  C_9 
REMARK    2  A    between atoms: C_12  and  N_13 
REMARK       I    between atoms: N_13  and  C_14 
REMARK    3  A    between atoms: C_14  and  C_16 
REMARK    4  A    between atoms: C_16  and  O_17 
REMARK    5  A    between atoms: O_17  and  C_18 
REMARK    6  A    between atoms: C_18  and  C_19 
ROOT
HETATM    1  C   UNL     1     -42.444 -48.960  11.666  1.00  0.00     0.103 A 
HETATM    2  C   UNL     1     -43.450 -49.015  12.625  1.00  0.00     0.051 A 
HETATM    3  C   UNL     1     -43.692 -50.180  13.353  1.00  0.00     0.035 A 
HETATM    4  C   UNL     1     -42.925 -51.307  13.123  1.00  0.00     0.050 A 
HETATM    5  C   UNL     1     -41.954 -51.196  12.139  1.00  0.00     0.119 A 
HETATM    6  N   UNL     1     -41.711 -50.070  11.415  1.00  0.00    -0.350 N 
ATOM      7  HN  UNL     1     -40.989 -50.063  10.694  1.00  0.00     0.166 HD
ENDROOT
BRANCH   4   8
HETATM    8  N   UNL     1     -43.071 -52.498  13.862  1.00  0.00    -0.324 N 
HETATM    9  C   UNL     1     -43.895 -53.568  13.529  1.00  0.00     0.245 C 
HETATM   10  O   UNL     1     -44.475 -53.732  12.461  1.00  0.00    -0.271 OA
HETATM   11  H   UNL     1     -42.548 -52.576  14.728  1.00  0.00     0.169 HD
BRANCH   9  12
HETATM   12  C   UNL     1     -43.992 -54.614  14.636  1.00  0.00     0.271 C 
BRANCH  12  13
HETATM   13  O   UNL     1     -45.323 -54.679  15.138  1.00  0.00    -0.373 OA
BRANCH  13  14
HETATM   14  C   UNL     1     -45.660 -53.520  15.916  1.00  0.00     0.285 C 
BRANCH  14  15
HETATM   15  C   UNL     1     -46.798 -52.701  15.301  1.00  0.00     0.408 C 
HETATM   16  F   UNL     1     -47.630 -52.182  16.228  1.00  0.00    -0.169 F 
HETATM   17  F   UNL     1     -46.305 -51.670  14.575  1.00  0.00    -0.169 F 
HETATM   18  F   UNL     1     -47.540 -53.464  14.465  1.00  0.00    -0.169 F 
ENDBRANCH  14  15
ENDBRANCH  13  14
ENDBRANCH  12  13
ENDBRANCH   9  12
ENDBRANCH   4   8
BRANCH   1  19
HETATM   19  N   UNL     1     -42.211 -47.824  10.933  1.00  0.00    -0.362 N 
HETATM   20  C   UNL     1     -42.332 -47.833   9.472  1.00  0.00     0.156 C 
HETATM   21  C   UNL     1     -43.055 -46.541   9.016  1.00  0.00     0.136 C 
HETATM   22  C   UNL     1     -44.555 -46.595   9.307  1.00  0.00     0.041 C 
HETATM   23  O   UNL     1     -42.460 -45.343   9.569  1.00  0.00    -0.378 OA
HETATM   24  C   UNL     1     -42.334 -45.390  11.004  1.00  0.00     0.136 C 
HETATM   25  C   UNL     1     -41.531 -46.630  11.442  1.00  0.00     0.156 C 
HETATM   26  C   UNL     1     -41.644 -44.117  11.468  1.00  0.00     0.041 C 
ENDBRANCH   1  19
TORSDOF 6
ENDMDL
MODEL 4
REMARK VINA RESULT:      -6.2      1.353      1.572
REMARK  6 active torsions:
REMARK  status: ('A' for Active; 'I' for Inactive)
REMARK    1  A    between atoms: N_4  and  C_9 
REMARK    2  A    between atoms: C_12  and  N_13 
REMARK       I    between atoms: N_13  and  C_14 
REMARK    3  A    between atoms: C_14  and  C_16 
REMARK    4  A    between atoms: C_16  and  O_17 
REMARK    5  A    between atoms: O_17  and  C_18 
REMARK    6  A    between atoms: C_18  and  C_19 
ROOT
HETATM    1  C   UNL     1     -40.906 -51.623  12.719  1.00  0.00     0.103 A 
HETATM    2  C   UNL     1     -42.074 -50.868  12.757  1.00  0.00     0.051 A 
HETATM    3  C   UNL     1     -42.169 -49.652  12.081  1.00  0.00     0.035 A 
HETATM    4  C   UNL     1     -41.089 -49.176  11.362  1.00  0.00     0.050 A 
HETATM    5  C   UNL     1     -39.947 -49.963  11.383  1.00  0.00     0.119 A 
HETATM    6  N   UNL     1     -39.834 -51.147  12.042  1.00  0.00    -0.350 N 
ATOM      7  HN  UNL     1     -38.957 -51.668  12.026  1.00  0.00     0.166 HD
ENDROOT
BRANCH   4   8
HETATM    8  N   UNL     1     -41.133 -47.988  10.606  1.00  0.00    -0.324 N 
HETATM    9  C   UNL     1     -41.401 -46.717  11.101  1.00  0.00     0.245 C 
HETATM   10  O   UNL     1     -41.453 -46.394  12.284  1.00  0.00    -0.271 OA
HETATM   11  H   UNL     1     -40.980 -48.066   9.606  1.00  0.00     0.169 HD
BRANCH   9  12
HETATM   12  C   UNL     1     -41.587 -45.674  10.002  1.00  0.00     0.271 C 
BRANCH  12  13
HETATM   13  O   UNL     1     -42.972 -45.461   9.753  1.00  0.00    -0.373 OA
BRANCH  13  14
HETATM   14  C   UNL     1     -43.449 -46.257   8.657  1.00  0.00     0.285 C 
BRANCH  14  15
HETATM   15  C   UNL     1     -44.671 -47.104   9.024  1.00  0.00     0.408 C 
HETATM   16  F   UNL     1     -44.572 -47.663  10.249  1.00  0.00    -0.169 F 
HETATM   17  F   UNL     1     -45.795 -46.351   9.011  1.00  0.00    -0.169 F 
HETATM   18  F   UNL     1     -44.846 -48.106   8.131  1.00  0.00    -0.169 F 
ENDBRANCH  14  15
ENDBRANCH  13  14
ENDBRANCH  12  13
ENDBRANCH   9  12
ENDBRANCH   4   8
BRANCH   1  19
HETATM   19  N   UNL     1     -40.796 -52.812  13.395  1.00  0.00    -0.362 N 
HETATM   20  C   UNL     1     -39.484 -53.344  13.775  1.00  0.00     0.156 C 
HETATM   21  C   UNL     1     -39.565 -53.906  15.216  1.00  0.00     0.136 C 
HETATM   22  C   UNL     1     -39.600 -52.791  16.261  1.00  0.00     0.041 C 
HETATM   23  O   UNL     1     -40.668 -54.825  15.398  1.00  0.00    -0.378 OA
HETATM   24  C   UNL     1     -41.933 -54.271  14.984  1.00  0.00     0.136 C 
HETATM   25  C   UNL     1     -41.871 -53.801  13.518  1.00  0.00     0.156 C 
HETATM   26  C   UNL     1     -43.004 -55.336  15.157  1.00  0.00     0.041 C 
ENDBRANCH   1  19
TORSDOF 6
ENDMDL
MODEL 5
REMARK VINA RESULT:      -6.1      4.111      7.726
REMARK  6 active torsions:
REMARK  status: ('A' for Active; 'I' for Inactive)
REMARK    1  A    between atoms: N_4  and  C_9 
REMARK    2  A    between atoms: C_12  and  N_13 
REMARK       I    between atoms: N_13  and  C_14 
REMARK    3  A    between atoms: C_14  and  C_16 
REMARK    4  A    between atoms: C_16  and  O_17 
REMARK    5  A    between atoms: O_17  and  C_18 
REMARK    6  A    between atoms: C_18  and  C_19 
ROOT
HETATM    1  C   UNL     1     -40.159 -51.820  13.873  1.00  0.00     0.103 A 
HETATM    2  C   UNL     1     -40.123 -53.118  13.373  1.00  0.00     0.051 A 
HETATM    3  C   UNL     1     -41.205 -53.983  13.531  1.00  0.00     0.035 A 
HETATM    4  C   UNL     1     -42.338 -53.555  14.198  1.00  0.00     0.050 A 
HETATM    5  C   UNL     1     -42.303 -52.259  14.692  1.00  0.00     0.119 A 
HETATM    6  N   UNL     1     -41.253 -51.406  14.554  1.00  0.00    -0.350 N 
ATOM      7  HN  UNL     1     -41.290 -50.469  14.956  1.00  0.00     0.166 HD
ENDROOT
BRANCH   4   8
HETATM    8  N   UNL     1     -43.492 -54.351  14.342  1.00  0.00    -0.324 N 
HETATM    9  C   UNL     1     -44.525 -54.462  13.419  1.00  0.00     0.245 C 
HETATM   10  O   UNL     1     -44.516 -54.046  12.264  1.00  0.00    -0.271 OA
HETATM   11  H   UNL     1     -43.593 -54.872  15.207  1.00  0.00     0.169 HD
BRANCH   9  12
HETATM   12  C   UNL     1     -45.727 -55.233  13.957  1.00  0.00     0.271 C 
BRANCH  12  13
HETATM   13  O   UNL     1     -46.279 -54.561  15.084  1.00  0.00    -0.373 OA
BRANCH  13  14
HETATM   14  C   UNL     1     -47.205 -53.534  14.695  1.00  0.00     0.285 C 
BRANCH  14  15
HETATM   15  C   UNL     1     -46.830 -52.156  15.246  1.00  0.00     0.408 C 
HETATM   16  F   UNL     1     -47.037 -51.162  14.357  1.00  0.00    -0.169 F 
HETATM   17  F   UNL     1     -47.557 -51.869  16.352  1.00  0.00    -0.169 F 
HETATM   18  F   UNL     1     -45.524 -52.120  15.603  1.00  0.00    -0.169 F 
ENDBRANCH  14  15
ENDBRANCH  13  14
ENDBRANCH  12  13
ENDBRANCH   9  12
ENDBRANCH   4   8
BRANCH   1  19
HETATM   19  N   UNL     1     -39.092 -50.968  13.737  1.00  0.00    -0.362 N 
HETATM   20  C   UNL     1     -38.423 -50.799  12.444  1.00  0.00     0.156 C 
HETATM   21  C   UNL     1     -38.120 -49.296  12.225  1.00  0.00     0.136 C 
HETATM   22  C   UNL     1     -39.380 -48.508  11.864  1.00  0.00     0.041 C 
HETATM   23  O   UNL     1     -37.433 -48.694  13.347  1.00  0.00    -0.378 OA
HETATM   24  C   UNL     1     -38.110 -48.910  14.601  1.00  0.00     0.136 C 
HETATM   25  C   UNL     1     -38.322 -50.415  14.855  1.00  0.00     0.156 C 
HETATM   26  C   UNL     1     -37.274 -48.295  15.712  1.00  0.00     0.041 C 
ENDBRANCH   1  19
TORSDOF 6
ENDMDL
MODEL 6
REMARK VINA RESULT:      -5.9      3.337      7.796
REMARK  6 active torsions:
REMARK  status: ('A' for Active; 'I' for Inactive)
REMARK    1  A    between atoms: N_4  and  C_9 
REMARK    2  A    between atoms: C_12  and  N_13 
REMARK       I    between atoms: N_13  and  C_14 
REMARK    3  A    between atoms: C_14  and  C_16 
REMARK    4  A    between atoms: C_16  and  O_17 
REMARK    5  A    between atoms: O_17  and  C_18 
REMARK    6  A    between atoms: C_18  and  C_19 
ROOT
HETATM    1  C   UNL     1     -41.543 -49.868  12.623  1.00  0.00     0.103 A 
HETATM    2  C   UNL     1     -41.264 -51.097  12.035  1.00  0.00     0.051 A 
HETATM    3  C   UNL     1     -41.944 -52.252  12.418  1.00  0.00     0.035 A 
HETATM    4  C   UNL     1     -42.913 -52.187  13.402  1.00  0.00     0.050 A 
HETATM    5  C   UNL     1     -43.129 -50.938  13.965  1.00  0.00     0.119 A 
HETATM    6  N   UNL     1     -42.469 -49.804  13.609  1.00  0.00    -0.350 N 
ATOM      7  HN  UNL     1     -42.669 -48.919  14.077  1.00  0.00     0.166 HD
ENDROOT
BRANCH   4   8
HETATM    8  N   UNL     1     -43.683 -53.299  13.797  1.00  0.00    -0.324 N 
HETATM    9  C   UNL     1     -44.841 -53.751  13.174  1.00  0.00     0.245 C 
HETATM   10  O   UNL     1     -45.272 -53.381  12.086  1.00  0.00    -0.271 OA
HETATM   11  H   UNL     1     -43.382 -53.804  14.624  1.00  0.00     0.169 HD
BRANCH   9  12
HETATM   12  C   UNL     1     -45.557 -54.844  13.963  1.00  0.00     0.271 C 
BRANCH  12  13
HETATM   13  O   UNL     1     -46.146 -54.298  15.139  1.00  0.00    -0.373 OA
BRANCH  13  14
HETATM   14  C   UNL     1     -47.202 -53.376  14.831  1.00  0.00     0.285 C 
BRANCH  14  15
HETATM   15  C   UNL     1     -46.898 -51.948  15.292  1.00  0.00     0.408 C 
HETATM   16  F   UNL     1     -47.827 -51.463  16.143  1.00  0.00    -0.169 F 
HETATM   17  F   UNL     1     -45.701 -51.894  15.922  1.00  0.00    -0.169 F 
HETATM   18  F   UNL     1     -46.834 -51.106  14.234  1.00  0.00    -0.169 F 
ENDBRANCH  14  15
ENDBRANCH  13  14
ENDBRANCH  12  13
ENDBRANCH   9  12
ENDBRANCH   4   8
BRANCH   1  19
HETATM   19  N   UNL     1     -40.866 -48.729  12.265  1.00  0.00    -0.362 N 
HETATM   20  C   UNL     1     -40.979 -48.181  10.910  1.00  0.00     0.156 C 
HETATM   21  C   UNL     1     -41.112 -46.640  10.998  1.00  0.00     0.136 C 
HETATM   22  C   UNL     1     -42.504 -46.214  11.465  1.00  0.00     0.041 C 
HETATM   23  O   UNL     1     -40.081 -46.035  11.813  1.00  0.00    -0.378 OA
HETATM   24  C   UNL     1     -39.986 -46.624  13.126  1.00  0.00     0.136 C 
HETATM   25  C   UNL     1     -39.759 -48.144  13.027  1.00  0.00     0.156 C 
HETATM   26  C   UNL     1     -38.838 -45.960  13.869  1.00  0.00     0.041 C 
ENDBRANCH   1  19
TORSDOF 6
ENDMDL
MODEL 7
REMARK VINA RESULT:      -5.8      2.573      3.160
REMARK  6 active torsions:
REMARK  status: ('A' for Active; 'I' for Inactive)
REMARK    1  A    between atoms: N_4  and  C_9 
REMARK    2  A    between atoms: C_12  and  N_13 
REMARK       I    between atoms: N_13  and  C_14 
REMARK    3  A    between atoms: C_14  and  C_16 
REMARK    4  A    between atoms: C_16  and  O_17 
REMARK    5  A    between atoms: O_17  and  C_18 
REMARK    6  A    between atoms: C_18  and  C_19 
ROOT
HETATM    1  C   UNL     1     -42.517 -51.842  12.809  1.00  0.00     0.103 A 
HETATM    2  C   UNL     1     -41.285 -51.498  12.263  1.00  0.00     0.051 A 
HETATM    3  C   UNL     1     -41.020 -50.195  11.842  1.00  0.00     0.035 A 
HETATM    4  C   UNL     1     -41.993 -49.221  11.961  1.00  0.00     0.050 A 
HETATM    5  C   UNL     1     -43.207 -49.632  12.491  1.00  0.00     0.119 A 
HETATM    6  N   UNL     1     -43.485 -50.899  12.899  1.00  0.00    -0.350 N 
ATOM      7  HN  UNL     1     -44.407 -51.135  13.267  1.00  0.00     0.166 HD
ENDROOT
BRANCH   4   8
HETATM    8  N   UNL     1     -41.777 -47.872  11.614  1.00  0.00    -0.324 N 
HETATM    9  C   UNL     1     -42.056 -47.293  10.382  1.00  0.00     0.245 C 
HETATM   10  O   UNL     1     -42.702 -47.800   9.470  1.00  0.00    -0.271 OA
HETATM   11  H   UNL     1     -41.356 -47.272  12.317  1.00  0.00     0.169 HD
BRANCH   9  12
HETATM   12  C   UNL     1     -41.513 -45.872  10.252  1.00  0.00     0.271 C 
BRANCH  12  13
HETATM   13  O   UNL     1     -40.106 -45.860  10.471  1.00  0.00    -0.373 OA
BRANCH  13  14
HETATM   14  C   UNL     1     -39.706 -44.782  11.330  1.00  0.00     0.285 C 
BRANCH  14  15
HETATM   15  C   UNL     1     -39.525 -45.218  12.787  1.00  0.00     0.408 C 
HETATM   16  F   UNL     1     -40.651 -45.082  13.518  1.00  0.00    -0.169 F 
HETATM   17  F   UNL     1     -39.151 -46.517  12.853  1.00  0.00    -0.169 F 
HETATM   18  F   UNL     1     -38.556 -44.489  13.389  1.00  0.00    -0.169 F 
ENDBRANCH  14  15
ENDBRANCH  13  14
ENDBRANCH  12  13
ENDBRANCH   9  12
ENDBRANCH   4   8
BRANCH   1  19
HETATM   19  N   UNL     1     -42.793 -53.125  13.209  1.00  0.00    -0.362 N 
HETATM   20  C   UNL     1     -41.731 -54.001  13.712  1.00  0.00     0.156 C 
HETATM   21  C   UNL     1     -42.256 -54.776  14.946  1.00  0.00     0.136 C 
HETATM   22  C   UNL     1     -42.337 -53.885  16.186  1.00  0.00     0.041 C 
HETATM   23  O   UNL     1     -43.520 -55.436  14.696  1.00  0.00    -0.378 OA
HETATM   24  C   UNL     1     -44.525 -54.543  14.175  1.00  0.00     0.136 C 
HETATM   25  C   UNL     1     -44.028 -53.848  12.893  1.00  0.00     0.156 C 
HETATM   26  C   UNL     1     -45.783 -55.349  13.891  1.00  0.00     0.041 C 
ENDBRANCH   1  19
TORSDOF 6
ENDMDL
MODEL 8
REMARK VINA RESULT:      -5.8      3.090      3.984
REMARK  6 active torsions:
REMARK  status: ('A' for Active; 'I' for Inactive)
REMARK    1  A    between atoms: N_4  and  C_9 
REMARK    2  A    between atoms: C_12  and  N_13 
REMARK       I    between atoms: N_13  and  C_14 
REMARK    3  A    between atoms: C_14  and  C_16 
REMARK    4  A    between atoms: C_16  and  O_17 
REMARK    5  A    between atoms: O_17  and  C_18 
REMARK    6  A    between atoms: C_18  and  C_19 
ROOT
HETATM    1  C   UNL     1     -40.870 -49.398  12.148  1.00  0.00     0.103 A 
HETATM    2  C   UNL     1     -40.155 -48.224  12.361  1.00  0.00     0.051 A 
HETATM    3  C   UNL     1     -40.739 -46.975  12.150  1.00  0.00     0.035 A 
HETATM    4  C   UNL     1     -42.049 -46.891  11.717  1.00  0.00     0.050 A 
HETATM    5  C   UNL     1     -42.700 -48.096  11.502  1.00  0.00     0.119 A 
HETATM    6  N   UNL     1     -42.144 -49.322  11.695  1.00  0.00    -0.350 N 
ATOM      7  HN  UNL     1     -42.677 -50.171  11.502  1.00  0.00     0.166 HD
ENDROOT
BRANCH   4   8
HETATM    8  N   UNL     1     -42.723 -45.666  11.542  1.00  0.00    -0.324 N 
HETATM    9  C   UNL     1     -42.877 -44.986  10.340  1.00  0.00     0.245 C 
HETATM   10  O   UNL     1     -42.626 -45.423   9.221  1.00  0.00    -0.271 OA
HETATM   11  H   UNL     1     -43.110 -45.224  12.370  1.00  0.00     0.169 HD
BRANCH   9  12
HETATM   12  C   UNL     1     -43.467 -43.589  10.515  1.00  0.00     0.271 C 
BRANCH  12  13
HETATM   13  O   UNL     1     -42.475 -42.599  10.263  1.00  0.00    -0.373 OA
BRANCH  13  14
HETATM   14  C   UNL     1     -41.976 -42.019  11.478  1.00  0.00     0.285 C 
BRANCH  14  15
HETATM   15  C   UNL     1     -40.635 -42.615  11.915  1.00  0.00     0.408 C 
HETATM   16  F   UNL     1     -39.757 -41.679  12.333  1.00  0.00    -0.169 F 
HETATM   17  F   UNL     1     -40.810 -43.491  12.932  1.00  0.00    -0.169 F 
HETATM   18  F   UNL     1     -40.056 -43.293  10.896  1.00  0.00    -0.169 F 
ENDBRANCH  14  15
ENDBRANCH  13  14
ENDBRANCH  12  13
ENDBRANCH   9  12
ENDBRANCH   4   8
BRANCH   1  19
HETATM   19  N   UNL     1     -40.299 -50.632  12.336  1.00  0.00    -0.362 N 
HETATM   20  C   UNL     1     -38.848 -50.773  12.495  1.00  0.00     0.156 C 
HETATM   21  C   UNL     1     -38.561 -51.792  13.626  1.00  0.00     0.136 C 
HETATM   22  C   UNL     1     -38.822 -51.196  15.009  1.00  0.00     0.041 C 
HETATM   23  O   UNL     1     -39.277 -53.038  13.452  1.00  0.00    -0.378 OA
HETATM   24  C   UNL     1     -40.694 -52.849  13.269  1.00  0.00     0.136 C 
HETATM   25  C   UNL     1     -40.972 -51.909  12.082  1.00  0.00     0.156 C 
HETATM   26  C   UNL     1     -41.334 -54.209  13.034  1.00  0.00     0.041 C 
ENDBRANCH   1  19
TORSDOF 6
ENDMDL
MODEL 9
REMARK VINA RESULT:      -5.7      3.694      8.392
REMARK  6 active torsions:
REMARK  status: ('A' for Active; 'I' for Inactive)
REMARK    1  A    between atoms: N_4  and  C_9 
REMARK    2  A    between atoms: C_12  and  N_13 
REMARK       I    between atoms: N_13  and  C_14 
REMARK    3  A    between atoms: C_14  and  C_16 
REMARK    4  A    between atoms: C_16  and  O_17 
REMARK    5  A    between atoms: O_17  and  C_18 
REMARK    6  A    between atoms: C_18  and  C_19 
ROOT
HETATM    1  C   UNL     1     -41.605 -47.277  12.212  1.00  0.00     0.103 A 
HETATM    2  C   UNL     1     -40.588 -48.224  12.273  1.00  0.00     0.051 A 
HETATM    3  C   UNL     1     -40.873 -49.589  12.288  1.00  0.00     0.035 A 
HETATM    4  C   UNL     1     -42.186 -50.020  12.246  1.00  0.00     0.050 A 
HETATM    5  C   UNL     1     -43.153 -49.027  12.208  1.00  0.00     0.119 A 
HETATM    6  N   UNL     1     -42.894 -47.692  12.201  1.00  0.00    -0.350 N 
ATOM      7  HN  UNL     1     -43.657 -47.015  12.187  1.00  0.00     0.166 HD
ENDROOT
BRANCH   4   8
HETATM    8  N   UNL     1     -42.546 -51.381  12.196  1.00  0.00    -0.324 N 
HETATM    9  C   UNL     1     -43.189 -52.091  13.203  1.00  0.00     0.245 C 
HETATM   10  O   UNL     1     -43.712 -51.616  14.206  1.00  0.00    -0.271 OA
HETATM   11  H   UNL     1     -42.293 -51.900  11.361  1.00  0.00     0.169 HD
BRANCH   9  12
HETATM   12  C   UNL     1     -43.248 -53.592  12.932  1.00  0.00     0.271 C 
BRANCH  12  13
HETATM   13  O   UNL     1     -44.571 -53.976  12.571  1.00  0.00    -0.373 OA
BRANCH  13  14
HETATM   14  C   UNL     1     -45.138 -54.898  13.514  1.00  0.00     0.285 C 
BRANCH  14  15
HETATM   15  C   UNL     1     -46.125 -54.233  14.476  1.00  0.00     0.408 C 
HETATM   16  F   UNL     1     -45.548 -53.842  15.632  1.00  0.00    -0.169 F 
HETATM   17  F   UNL     1     -46.680 -53.136  13.908  1.00  0.00    -0.169 F 
HETATM   18  F   UNL     1     -47.135 -55.079  14.789  1.00  0.00    -0.169 F 
ENDBRANCH  14  15
ENDBRANCH  13  14
ENDBRANCH  12  13
ENDBRANCH   9  12
ENDBRANCH   4   8
BRANCH   1  19
HETATM   19  N   UNL     1     -41.335 -45.931  12.214  1.00  0.00    -0.362 N 
HETATM   20  C   UNL     1     -39.972 -45.437  12.428  1.00  0.00     0.156 C 
HETATM   21  C   UNL     1     -39.694 -44.277  11.440  1.00  0.00     0.136 C 
HETATM   22  C   UNL     1     -39.465 -44.784  10.016  1.00  0.00     0.041 C 
HETATM   23  O   UNL     1     -40.720 -43.258  11.471  1.00  0.00    -0.378 OA
HETATM   24  C   UNL     1     -42.046 -43.792  11.286  1.00  0.00     0.136 C 
HETATM   25  C   UNL     1     -42.349 -44.879  12.334  1.00  0.00     0.156 C 
HETATM   26  C   UNL     1     -43.045 -42.650  11.400  1.00  0.00     0.041 C 
ENDBRANCH   1  19
TORSDOF 6
ENDMDL
