MODEL 1
REMARK VINA RESULT:      -6.6      0.000      0.000
REMARK  5 active torsions:
REMARK  status: ('A' for Active; 'I' for Inactive)
REMARK    1  A    between atoms: C_2  and  C_3 
REMARK    2  A    between atoms: C_2  and  N_21 
REMARK    3  A    between atoms: C_3  and  N_4 
REMARK       I    between atoms: N_4  and  C_5 
REMARK       I    between atoms: C_5  and  N_7 
REMARK    4  A    between atoms: N_7  and  C_8 
REMARK    5  A    between atoms: C_11  and  N_15 
ROOT
HETATM    1  N   UNL     1     -41.304 -52.817  13.155  1.00  0.00    -0.341 N 
HETATM    2  C   UNL     1     -39.945 -52.595  13.178  1.00  0.00     0.320 C 
HETATM    3  O   UNL     1     -39.124 -53.459  13.474  1.00  0.00    -0.247 OA
HETATM    4  N   UNL     1     -39.542 -51.309  12.974  1.00  0.00    -0.308 N 
HETATM    5  H   UNL     1     -41.851 -52.032  13.476  1.00  0.00     0.164 HD
HETATM    6  H   UNL     1     -38.634 -51.118  13.377  1.00  0.00     0.170 HD
ENDROOT
BRANCH   4   7
HETATM    7  C   UNL     1     -40.305 -50.241  12.494  1.00  0.00     0.051 A 
HETATM    8  C   UNL     1     -40.982 -49.446  13.395  1.00  0.00     0.035 A 
HETATM    9  C   UNL     1     -41.832 -48.448  12.913  1.00  0.00     0.051 A 
HETATM   10  C   UNL     1     -41.969 -48.218  11.542  1.00  0.00     0.103 A 
HETATM   11  N   UNL     1     -41.249 -48.965  10.674  1.00  0.00    -0.350 N 
HETATM   12  C   UNL     1     -40.434 -49.935  11.151  1.00  0.00     0.119 A 
ATOM     13  HN  UNL     1     -41.319 -48.798   9.670  1.00  0.00     0.166 HD
BRANCH  10  14
HETATM   14  N   UNL     1     -42.804 -47.256  11.031  1.00  0.00    -0.363 N 
HETATM   15  C   UNL     1     -43.679 -47.410   9.866  1.00  0.00     0.150 C 
HETATM   16  C   UNL     1     -43.290 -46.382   8.792  1.00  0.00     0.187 C 
HETATM   17  O   UNL     1     -43.344 -45.043   9.307  1.00  0.00    -0.388 OA
HETATM   18  C   UNL     1     -42.438 -44.896  10.416  1.00  0.00     0.187 C 
HETATM   19  C   UNL     1     -42.763 -45.879  11.556  1.00  0.00     0.150 C 
ENDBRANCH  10  14
ENDBRANCH   4   7
BRANCH   1  20
HETATM   20  C   UNL     1     -41.789 -54.129  13.532  1.00  0.00     0.159 C 
BRANCH  20  21
HETATM   21  C   UNL     1     -43.204 -54.223  14.193  1.00  0.00     0.236 C 
HETATM   22  C   UNL     1     -43.058 -55.393  15.195  1.00  0.00     0.044 C 
BRANCH  21  23
HETATM   23  N   UNL     1     -44.341 -54.460  13.260  1.00  0.00     0.098 N 
HETATM   24  C   UNL     1     -44.802 -53.260  12.520  1.00  0.00     0.299 C 
HETATM   25  C   UNL     1     -45.593 -52.246  13.367  1.00  0.00     0.198 C 
HETATM   26  O   UNL     1     -46.726 -52.861  13.994  1.00  0.00    -0.388 OA
HETATM   27  C   UNL     1     -46.327 -54.000  14.767  1.00  0.00     0.198 C 
HETATM   28  C   UNL     1     -45.559 -55.018  13.906  1.00  0.00     0.299 C 
ENDBRANCH  21  23
ENDBRANCH  20  21
ENDBRANCH   1  20
TORSDOF 5
ENDMDL
MODEL 2
REMARK VINA RESULT:      -6.6      1.867      2.602
REMARK  5 active torsions:
REMARK  status: ('A' for Active; 'I' for Inactive)
REMARK    1  A    between atoms: C_2  and  C_3 
REMARK    2  A    between atoms: C_2  and  N_21 
REMARK    3  A    between atoms: C_3  and  N_4 
REMARK       I    between atoms: N_4  and  C_5 
REMARK       I    between atoms: C_5  and  N_7 
REMARK    4  A    between atoms: N_7  and  C_8 
REMARK    5  A    between atoms: C_11  and  N_15 
ROOT
HETATM    1  N   UNL     1     -42.184 -51.569  12.056  1.00  0.00    -0.341 N 
HETATM    2  C   UNL     1     -40.879 -51.996  11.958  1.00  0.00     0.320 C 
HETATM    3  O   UNL     1     -40.540 -53.170  12.084  1.00  0.00    -0.247 OA
HETATM    4  N   UNL     1     -39.935 -51.020  11.835  1.00  0.00    -0.308 N 
HETATM    5  H   UNL     1     -42.287 -50.671  12.506  1.00  0.00     0.164 HD
HETATM    6  H   UNL     1     -39.023 -51.319  12.156  1.00  0.00     0.170 HD
ENDROOT
BRANCH   4   7
HETATM    7  C   UNL     1     -40.136 -49.669  11.539  1.00  0.00     0.051 A 
HETATM    8  C   UNL     1     -39.498 -48.715  12.305  1.00  0.00     0.035 A 
HETATM    9  C   UNL     1     -39.784 -47.367  12.083  1.00  0.00     0.051 A 
HETATM   10  C   UNL     1     -40.666 -46.973  11.075  1.00  0.00     0.103 A 
HETATM   11  N   UNL     1     -41.236 -47.917  10.291  1.00  0.00    -0.350 N 
HETATM   12  C   UNL     1     -40.959 -49.223  10.520  1.00  0.00     0.119 A 
ATOM     13  HN  UNL     1     -41.867 -47.648   9.537  1.00  0.00     0.166 HD
BRANCH  10  14
HETATM   14  N   UNL     1     -40.981 -45.658  10.837  1.00  0.00    -0.363 N 
HETATM   15  C   UNL     1     -40.023 -44.579  10.579  1.00  0.00     0.150 C 
HETATM   16  C   UNL     1     -40.166 -43.496  11.658  1.00  0.00     0.187 C 
HETATM   17  O   UNL     1     -41.509 -42.993  11.719  1.00  0.00    -0.388 OA
HETATM   18  C   UNL     1     -42.429 -44.056  12.027  1.00  0.00     0.187 C 
HETATM   19  C   UNL     1     -42.370 -45.186  10.984  1.00  0.00     0.150 C 
ENDBRANCH  10  14
ENDBRANCH   4   7
BRANCH   1  20
HETATM   20  C   UNL     1     -43.205 -52.552  12.358  1.00  0.00     0.159 C 
BRANCH  20  21
HETATM   21  C   UNL     1     -44.312 -52.164  13.393  1.00  0.00     0.236 C 
HETATM   22  C   UNL     1     -44.027 -50.672  13.686  1.00  0.00     0.044 C 
BRANCH  21  23
HETATM   23  N   UNL     1     -44.328 -52.960  14.652  1.00  0.00     0.098 N 
HETATM   24  C   UNL     1     -44.131 -54.419  14.471  1.00  0.00     0.299 C 
HETATM   25  C   UNL     1     -45.341 -55.164  13.880  1.00  0.00     0.198 C 
HETATM   26  O   UNL     1     -46.519 -54.956  14.670  1.00  0.00    -0.388 OA
HETATM   27  C   UNL     1     -46.786 -53.557  14.831  1.00  0.00     0.198 C 
HETATM   28  C   UNL     1     -45.579 -52.827  15.446  1.00  0.00     0.299 C 
ENDBRANCH  21  23
ENDBRANCH  20  21
ENDBRANCH   1  20
TORSDOF 5
ENDMDL
MODEL 3
REMARK VINA RESULT:      -6.4      1.179      1.536
REMARK  5 active torsions:
REMARK  status: ('A' for Active; 'I' for Inactive)
REMARK    1  A    between atoms: C_2  and  C_3 
REMARK    2  A    between atoms: C_2  and  N_21 
REMARK    3  A    between atoms: C_3  and  N_4 
REMARK       I    between atoms: N_4  and  C_5 
REMARK       I    between atoms: C_5  and  N_7 
REMARK    4  A    between atoms: N_7  and  C_8 
REMARK    5  A    between atoms: C_11  and  N_15 
ROOT
HETATM    1  N   UNL     1     -40.992 -52.862  13.260  1.00  0.00    -0.341 N 
HETATM    2  C   UNL     1     -39.809 -52.786  13.960  1.00  0.00     0.320 C 
HETATM    3  O   UNL     1     -39.339 -53.725  14.598  1.00  0.00    -0.247 OA
HETATM    4  N   UNL     1     -39.224 -51.556  14.023  1.00  0.00    -0.308 N 
HETATM    5  H   UNL     1     -41.540 -52.015  13.292  1.00  0.00     0.164 HD
HETATM    6  H   UNL     1     -38.621 -51.453  14.828  1.00  0.00     0.170 HD
ENDROOT
BRANCH   4   7
HETATM    7  C   UNL     1     -39.531 -50.426  13.261  1.00  0.00     0.051 A 
HETATM    8  C   UNL     1     -40.275 -49.415  13.834  1.00  0.00     0.035 A 
HETATM    9  C   UNL     1     -40.676 -48.337  13.043  1.00  0.00     0.051 A 
HETATM   10  C   UNL     1     -40.298 -48.247  11.701  1.00  0.00     0.103 A 
HETATM   11  N   UNL     1     -39.516 -49.215  11.171  1.00  0.00    -0.350 N 
HETATM   12  C   UNL     1     -39.140 -50.261  11.944  1.00  0.00     0.119 A 
ATOM     13  HN  UNL     1     -39.213 -49.157  10.199  1.00  0.00     0.166 HD
BRANCH  10  14
HETATM   14  N   UNL     1     -40.684 -47.209  10.890  1.00  0.00    -0.363 N 
HETATM   15  C   UNL     1     -39.976 -45.936  10.728  1.00  0.00     0.150 C 
HETATM   16  C   UNL     1     -40.894 -44.780  11.150  1.00  0.00     0.187 C 
HETATM   17  O   UNL     1     -42.121 -44.788  10.405  1.00  0.00    -0.388 OA
HETATM   18  C   UNL     1     -42.829 -46.023  10.619  1.00  0.00     0.187 C 
HETATM   19  C   UNL     1     -41.989 -47.244  10.205  1.00  0.00     0.150 C 
ENDBRANCH  10  14
ENDBRANCH   4   7
BRANCH   1  20
HETATM   20  C   UNL     1     -41.736 -54.104  13.306  1.00  0.00     0.159 C 
BRANCH  20  21
HETATM   21  C   UNL     1     -43.122 -54.100  14.032  1.00  0.00     0.236 C 
HETATM   22  C   UNL     1     -42.973 -55.208  15.102  1.00  0.00     0.044 C 
BRANCH  21  23
HETATM   23  N   UNL     1     -44.308 -54.352  13.167  1.00  0.00     0.098 N 
HETATM   24  C   UNL     1     -44.861 -53.147  12.502  1.00  0.00     0.299 C 
HETATM   25  C   UNL     1     -45.633 -52.195  13.434  1.00  0.00     0.198 C 
HETATM   26  O   UNL     1     -46.698 -52.875  14.110  1.00  0.00    -0.388 OA
HETATM   27  C   UNL     1     -46.206 -54.022  14.815  1.00  0.00     0.198 C 
HETATM   28  C   UNL     1     -45.459 -54.979  13.869  1.00  0.00     0.299 C 
ENDBRANCH  21  23
ENDBRANCH  20  21
ENDBRANCH   1  20
TORSDOF 5
ENDMDL
MODEL 4
REMARK VINA RESULT:      -6.4      1.861      7.384
REMARK  5 active torsions:
REMARK  status: ('A' for Active; 'I' for Inactive)
REMARK    1  A    between atoms: C_2  and  C_3 
REMARK    2  A    between atoms: C_2  and  N_21 
REMARK    3  A    between atoms: C_3  and  N_4 
REMARK       I    between atoms: N_4  and  C_5 
REMARK       I    between atoms: C_5  and  N_7 
REMARK    4  A    between atoms: N_7  and  C_8 
REMARK    5  A    between atoms: C_11  and  N_15 
ROOT
HETATM    1  N   UNL     1     -40.107 -48.929  12.402  1.00  0.00    -0.341 N 
HETATM    2  C   UNL     1     -39.051 -49.699  11.968  1.00  0.00     0.320 C 
HETATM    3  O   UNL     1     -38.000 -49.227  11.543  1.00  0.00    -0.247 OA
HETATM    4  N   UNL     1     -39.271 -51.043  11.911  1.00  0.00    -0.308 N 
HETATM    5  H   UNL     1     -41.012 -49.309  12.169  1.00  0.00     0.164 HD
HETATM    6  H   UNL     1     -38.665 -51.507  11.247  1.00  0.00     0.170 HD
ENDROOT
BRANCH   4   7
HETATM    7  C   UNL     1     -40.330 -51.759  12.472  1.00  0.00     0.051 A 
HETATM    8  C   UNL     1     -40.224 -52.197  13.777  1.00  0.00     0.035 A 
HETATM    9  C   UNL     1     -41.232 -53.006  14.304  1.00  0.00     0.051 A 
HETATM   10  C   UNL     1     -42.359 -53.339  13.548  1.00  0.00     0.103 A 
HETATM   11  N   UNL     1     -42.478 -52.850  12.293  1.00  0.00    -0.350 N 
HETATM   12  C   UNL     1     -41.491 -52.073  11.787  1.00  0.00     0.119 A 
ATOM     13  HN  UNL     1     -43.303 -53.065  11.732  1.00  0.00     0.166 HD
BRANCH  10  14
HETATM   14  N   UNL     1     -43.363 -54.143  14.028  1.00  0.00    -0.363 N 
HETATM   15  C   UNL     1     -44.590 -54.504  13.312  1.00  0.00     0.150 C 
HETATM   16  C   UNL     1     -45.811 -54.014  14.105  1.00  0.00     0.187 C 
HETATM   17  O   UNL     1     -45.814 -54.544  15.439  1.00  0.00    -0.388 OA
HETATM   18  C   UNL     1     -44.629 -54.133  16.144  1.00  0.00     0.187 C 
HETATM   19  C   UNL     1     -43.347 -54.598  15.430  1.00  0.00     0.150 C 
ENDBRANCH  10  14
ENDBRANCH   4   7
BRANCH   1  20
HETATM   20  C   UNL     1     -39.981 -47.488  12.321  1.00  0.00     0.159 C 
BRANCH  20  21
HETATM   21  C   UNL     1     -40.700 -46.756  11.139  1.00  0.00     0.236 C 
HETATM   22  C   UNL     1     -39.653 -45.720  10.665  1.00  0.00     0.044 C 
BRANCH  21  23
HETATM   23  N   UNL     1     -41.990 -46.092  11.477  1.00  0.00     0.098 N 
HETATM   24  C   UNL     1     -43.026 -46.993  12.038  1.00  0.00     0.299 C 
HETATM   25  C   UNL     1     -43.679 -47.939  11.014  1.00  0.00     0.198 C 
HETATM   26  O   UNL     1     -44.249 -47.211   9.919  1.00  0.00    -0.388 OA
HETATM   27  C   UNL     1     -43.272 -46.362   9.306  1.00  0.00     0.198 C 
HETATM   28  C   UNL     1     -42.644 -45.403  10.332  1.00  0.00     0.299 C 
ENDBRANCH  21  23
ENDBRANCH  20  21
ENDBRANCH   1  20
TORSDOF 5
ENDMDL
MODEL 5
REMARK VINA RESULT:      -6.2      1.896      7.850
REMARK  5 active torsions:
REMARK  status: ('A' for Active; 'I' for Inactive)
REMARK    1  A    between atoms: C_2  and  C_3 
REMARK    2  A    between atoms: C_2  and  N_21 
REMARK    3  A    between atoms: C_3  and  N_4 
REMARK       I    between atoms: N_4  and  C_5 
REMARK       I    between atoms: C_5  and  N_7 
REMARK    4  A    between atoms: N_7  and  C_8 
REMARK    5  A    between atoms: C_11  and  N_15 
ROOT
HETATM    1  N   UNL     1     -40.467 -49.409  12.913  1.00  0.00    -0.341 N 
HETATM    2  C   UNL     1     -39.563 -50.080  12.120  1.00  0.00     0.320 C 
HETATM    3  O   UNL     1     -38.605 -49.535  11.578  1.00  0.00    -0.247 OA
HETATM    4  N   UNL     1     -39.852 -51.384  11.850  1.00  0.00    -0.308 N 
HETATM    5  H   UNL     1     -41.418 -49.733  12.811  1.00  0.00     0.164 HD
HETATM    6  H   UNL     1     -39.421 -51.709  10.994  1.00  0.00     0.170 HD
ENDROOT
BRANCH   4   7
HETATM    7  C   UNL     1     -40.801 -52.196  12.477  1.00  0.00     0.051 A 
HETATM    8  C   UNL     1     -42.104 -52.172  12.025  1.00  0.00     0.035 A 
HETATM    9  C   UNL     1     -43.075 -52.897  12.718  1.00  0.00     0.051 A 
HETATM   10  C   UNL     1     -42.739 -53.675  13.828  1.00  0.00     0.103 A 
HETATM   11  N   UNL     1     -41.446 -53.739  14.221  1.00  0.00    -0.350 N 
HETATM   12  C   UNL     1     -40.513 -53.025  13.547  1.00  0.00     0.119 A 
ATOM     13  HN  UNL     1     -41.177 -54.317  15.016  1.00  0.00     0.166 HD
BRANCH  10  14
HETATM   14  N   UNL     1     -43.668 -54.390  14.542  1.00  0.00    -0.363 N 
HETATM   15  C   UNL     1     -44.856 -55.046  13.989  1.00  0.00     0.150 C 
HETATM   16  C   UNL     1     -46.118 -54.456  14.636  1.00  0.00     0.187 C 
HETATM   17  O   UNL     1     -46.077 -54.577  16.066  1.00  0.00    -0.388 OA
HETATM   18  C   UNL     1     -44.935 -53.881  16.595  1.00  0.00     0.187 C 
HETATM   19  C   UNL     1     -43.615 -54.419  16.015  1.00  0.00     0.150 C 
ENDBRANCH  10  14
ENDBRANCH   4   7
BRANCH   1  20
HETATM   20  C   UNL     1     -40.296 -47.981  13.089  1.00  0.00     0.159 C 
BRANCH  20  21
HETATM   21  C   UNL     1     -41.375 -47.033  12.470  1.00  0.00     0.236 C 
HETATM   22  C   UNL     1     -42.702 -47.796  12.698  1.00  0.00     0.044 C 
BRANCH  21  23
HETATM   23  N   UNL     1     -41.195 -46.699  11.029  1.00  0.00     0.098 N 
HETATM   24  C   UNL     1     -39.974 -45.916  10.719  1.00  0.00     0.299 C 
HETATM   25  C   UNL     1     -40.032 -44.437  11.145  1.00  0.00     0.198 C 
HETATM   26  O   UNL     1     -41.162 -43.772  10.568  1.00  0.00    -0.388 OA
HETATM   27  C   UNL     1     -42.378 -44.461  10.884  1.00  0.00     0.198 C 
HETATM   28  C   UNL     1     -42.319 -45.931  10.431  1.00  0.00     0.299 C 
ENDBRANCH  21  23
ENDBRANCH  20  21
ENDBRANCH   1  20
TORSDOF 5
ENDMDL
MODEL 6
REMARK VINA RESULT:      -5.9      1.788      2.293
REMARK  5 active torsions:
REMARK  status: ('A' for Active; 'I' for Inactive)
REMARK    1  A    between atoms: C_2  and  C_3 
REMARK    2  A    between atoms: C_2  and  N_21 
REMARK    3  A    between atoms: C_3  and  N_4 
REMARK       I    between atoms: N_4  and  C_5 
REMARK       I    between atoms: C_5  and  N_7 
REMARK    4  A    between atoms: N_7  and  C_8 
REMARK    5  A    between atoms: C_11  and  N_15 
ROOT
HETATM    1  N   UNL     1     -42.932 -52.362  12.341  1.00  0.00    -0.341 N 
HETATM    2  C   UNL     1     -41.666 -52.833  12.610  1.00  0.00     0.320 C 
HETATM    3  O   UNL     1     -41.417 -54.016  12.830  1.00  0.00    -0.247 OA
HETATM    4  N   UNL     1     -40.690 -51.891  12.748  1.00  0.00    -0.308 N 
HETATM    5  H   UNL     1     -43.122 -51.454  12.741  1.00  0.00     0.164 HD
HETATM    6  H   UNL     1     -39.914 -52.215  13.310  1.00  0.00     0.170 HD
ENDROOT
BRANCH   4   7
HETATM    7  C   UNL     1     -40.754 -50.539  12.403  1.00  0.00     0.051 A 
HETATM    8  C   UNL     1     -41.268 -49.640  13.314  1.00  0.00     0.035 A 
HETATM    9  C   UNL     1     -41.436 -48.307  12.931  1.00  0.00     0.051 A 
HETATM   10  C   UNL     1     -41.049 -47.868  11.662  1.00  0.00     0.103 A 
HETATM   11  N   UNL     1     -40.488 -48.748  10.803  1.00  0.00    -0.350 N 
HETATM   12  C   UNL     1     -40.338 -50.040  11.181  1.00  0.00     0.119 A 
ATOM     13  HN  UNL     1     -40.181 -48.443   9.880  1.00  0.00     0.166 HD
BRANCH  10  14
HETATM   14  N   UNL     1     -41.210 -46.570  11.247  1.00  0.00    -0.363 N 
HETATM   15  C   UNL     1     -40.187 -45.742  10.601  1.00  0.00     0.150 C 
HETATM   16  C   UNL     1     -39.915 -44.499  11.461  1.00  0.00     0.187 C 
HETATM   17  O   UNL     1     -41.117 -43.750  11.693  1.00  0.00    -0.388 OA
HETATM   18  C   UNL     1     -42.089 -44.562  12.375  1.00  0.00     0.187 C 
HETATM   19  C   UNL     1     -42.441 -45.829  11.576  1.00  0.00     0.150 C 
ENDBRANCH  10  14
ENDBRANCH   4   7
BRANCH   1  20
HETATM   20  C   UNL     1     -44.030 -53.306  12.353  1.00  0.00     0.159 C 
BRANCH  20  21
HETATM   21  C   UNL     1     -44.801 -53.515  13.698  1.00  0.00     0.236 C 
HETATM   22  C   UNL     1     -45.158 -55.021  13.681  1.00  0.00     0.044 C 
BRANCH  21  23
HETATM   23  N   UNL     1     -46.021 -52.681  13.882  1.00  0.00     0.098 N 
HETATM   24  C   UNL     1     -45.762 -51.240  14.117  1.00  0.00     0.299 C 
HETATM   25  C   UNL     1     -45.214 -50.904  15.517  1.00  0.00     0.198 C 
HETATM   26  O   UNL     1     -46.084 -51.387  16.548  1.00  0.00    -0.388 OA
HETATM   27  C   UNL     1     -46.326 -52.791  16.397  1.00  0.00     0.198 C 
HETATM   28  C   UNL     1     -46.897 -53.112  15.005  1.00  0.00     0.299 C 
ENDBRANCH  21  23
ENDBRANCH  20  21
ENDBRANCH   1  20
TORSDOF 5
ENDMDL
MODEL 7
REMARK VINA RESULT:      -5.9      3.649      7.975
REMARK  5 active torsions:
REMARK  status: ('A' for Active; 'I' for Inactive)
REMARK    1  A    between atoms: C_2  and  C_3 
REMARK    2  A    between atoms: C_2  and  N_21 
REMARK    3  A    between atoms: C_3  and  N_4 
REMARK       I    between atoms: N_4  and  C_5 
REMARK       I    between atoms: C_5  and  N_7 
REMARK    4  A    between atoms: N_7  and  C_8 
REMARK    5  A    between atoms: C_11  and  N_15 
ROOT
HETATM    1  N   UNL     1     -38.916 -50.478  13.452  1.00  0.00    -0.341 N 
HETATM    2  C   UNL     1     -38.976 -50.369  12.081  1.00  0.00     0.320 C 
HETATM    3  O   UNL     1     -38.145 -49.759  11.414  1.00  0.00    -0.247 OA
HETATM    4  N   UNL     1     -40.093 -50.875  11.486  1.00  0.00    -0.308 N 
HETATM    5  H   UNL     1     -39.818 -50.447  13.904  1.00  0.00     0.164 HD
HETATM    6  H   UNL     1     -40.286 -50.444  10.591  1.00  0.00     0.170 HD
ENDROOT
BRANCH   4   7
HETATM    7  C   UNL     1     -41.059 -51.711  12.053  1.00  0.00     0.051 A 
HETATM    8  C   UNL     1     -42.236 -51.157  12.511  1.00  0.00     0.035 A 
HETATM    9  C   UNL     1     -43.154 -51.972  13.178  1.00  0.00     0.051 A 
HETATM   10  C   UNL     1     -42.917 -53.338  13.344  1.00  0.00     0.103 A 
HETATM   11  N   UNL     1     -41.787 -53.878  12.834  1.00  0.00    -0.350 N 
HETATM   12  C   UNL     1     -40.899 -53.077  12.197  1.00  0.00     0.119 A 
ATOM     13  HN  UNL     1     -41.605 -54.877  12.927  1.00  0.00     0.166 HD
BRANCH  10  14
HETATM   14  N   UNL     1     -43.789 -54.167  14.005  1.00  0.00    -0.363 N 
HETATM   15  C   UNL     1     -45.087 -54.625  13.500  1.00  0.00     0.150 C 
HETATM   16  C   UNL     1     -46.201 -54.160  14.448  1.00  0.00     0.187 C 
HETATM   17  O   UNL     1     -45.974 -54.622  15.788  1.00  0.00    -0.388 OA
HETATM   18  C   UNL     1     -44.722 -54.117  16.287  1.00  0.00     0.187 C 
HETATM   19  C   UNL     1     -43.537 -54.551  15.405  1.00  0.00     0.150 C 
ENDBRANCH  10  14
ENDBRANCH   4   7
BRANCH   1  20
HETATM   20  C   UNL     1     -37.834 -49.809  14.145  1.00  0.00     0.159 C 
BRANCH  20  21
HETATM   21  C   UNL     1     -37.455 -50.317  15.576  1.00  0.00     0.236 C 
HETATM   22  C   UNL     1     -38.408 -51.516  15.798  1.00  0.00     0.044 C 
BRANCH  21  23
HETATM   23  N   UNL     1     -37.590 -49.320  16.674  1.00  0.00     0.098 N 
HETATM   24  C   UNL     1     -36.953 -48.007  16.406  1.00  0.00     0.299 C 
HETATM   25  C   UNL     1     -35.415 -48.011  16.478  1.00  0.00     0.198 C 
HETATM   26  O   UNL     1     -34.953 -48.494  17.746  1.00  0.00    -0.388 OA
HETATM   27  C   UNL     1     -35.499 -49.788  18.030  1.00  0.00     0.198 C 
HETATM   28  C   UNL     1     -37.037 -49.767  17.980  1.00  0.00     0.299 C 
ENDBRANCH  21  23
ENDBRANCH  20  21
ENDBRANCH   1  20
TORSDOF 5
ENDMDL
MODEL 8
REMARK VINA RESULT:      -5.8      2.697      7.217
REMARK  5 active torsions:
REMARK  status: ('A' for Active; 'I' for Inactive)
REMARK    1  A    between atoms: C_2  and  C_3 
REMARK    2  A    between atoms: C_2  and  N_21 
REMARK    3  A    between atoms: C_3  and  N_4 
REMARK       I    between atoms: N_4  and  C_5 
REMARK       I    between atoms: C_5  and  N_7 
REMARK    4  A    between atoms: N_7  and  C_8 
REMARK    5  A    between atoms: C_11  and  N_15 
ROOT
HETATM    1  N   UNL     1     -39.158 -50.444  13.844  1.00  0.00    -0.341 N 
HETATM    2  C   UNL     1     -38.798 -51.017  12.645  1.00  0.00     0.320 C 
HETATM    3  O   UNL     1     -37.656 -50.982  12.195  1.00  0.00    -0.247 OA
HETATM    4  N   UNL     1     -39.814 -51.532  11.896  1.00  0.00    -0.308 N 
HETATM    5  H   UNL     1     -40.078 -50.027  13.837  1.00  0.00     0.164 HD
HETATM    6  H   UNL     1     -39.588 -51.572  10.910  1.00  0.00     0.170 HD
ENDROOT
BRANCH   4   7
HETATM    7  C   UNL     1     -41.128 -51.783  12.297  1.00  0.00     0.051 A 
HETATM    8  C   UNL     1     -41.476 -53.060  12.688  1.00  0.00     0.035 A 
HETATM    9  C   UNL     1     -42.812 -53.338  12.983  1.00  0.00     0.051 A 
HETATM   10  C   UNL     1     -43.785 -52.338  12.931  1.00  0.00     0.103 A 
HETATM   11  N   UNL     1     -43.418 -51.077  12.607  1.00  0.00    -0.350 N 
HETATM   12  C   UNL     1     -42.121 -50.819  12.314  1.00  0.00     0.119 A 
ATOM     13  HN  UNL     1     -44.110 -50.328  12.584  1.00  0.00     0.166 HD
BRANCH  10  14
HETATM   14  N   UNL     1     -45.110 -52.577  13.201  1.00  0.00    -0.363 N 
HETATM   15  C   UNL     1     -46.170 -51.567  13.257  1.00  0.00     0.150 C 
HETATM   16  C   UNL     1     -46.801 -51.560  14.657  1.00  0.00     0.187 C 
HETATM   17  O   UNL     1     -47.303 -52.858  15.010  1.00  0.00    -0.388 OA
HETATM   18  C   UNL     1     -46.237 -53.826  15.004  1.00  0.00     0.187 C 
HETATM   19  C   UNL     1     -45.553 -53.916  13.628  1.00  0.00     0.150 C 
ENDBRANCH  10  14
ENDBRANCH   4   7
BRANCH   1  20
HETATM   20  C   UNL     1     -38.143 -49.734  14.596  1.00  0.00     0.159 C 
BRANCH  20  21
HETATM   21  C   UNL     1     -38.044 -48.184  14.409  1.00  0.00     0.236 C 
HETATM   22  C   UNL     1     -36.761 -47.807  15.188  1.00  0.00     0.044 C 
BRANCH  21  23
HETATM   23  N   UNL     1     -39.211 -47.397  14.895  1.00  0.00     0.098 N 
HETATM   24  C   UNL     1     -40.438 -47.528  14.071  1.00  0.00     0.299 C 
HETATM   25  C   UNL     1     -40.388 -46.788  12.722  1.00  0.00     0.198 C 
HETATM   26  O   UNL     1     -40.102 -45.395  12.900  1.00  0.00    -0.388 OA
HETATM   27  C   UNL     1     -38.894 -45.213  13.647  1.00  0.00     0.198 C 
HETATM   28  C   UNL     1     -38.963 -45.935  15.004  1.00  0.00     0.299 C 
ENDBRANCH  21  23
ENDBRANCH  20  21
ENDBRANCH   1  20
TORSDOF 5
ENDMDL
MODEL 9
REMARK VINA RESULT:      -5.7      2.166      2.603
REMARK  5 active torsions:
REMARK  status: ('A' for Active; 'I' for Inactive)
REMARK    1  A    between atoms: C_2  and  C_3 
REMARK    2  A    between atoms: C_2  and  N_21 
REMARK    3  A    between atoms: C_3  and  N_4 
REMARK       I    between atoms: N_4  and  C_5 
REMARK       I    between atoms: C_5  and  N_7 
REMARK    4  A    between atoms: N_7  and  C_8 
REMARK    5  A    between atoms: C_11  and  N_15 
ROOT
HETATM    1  N   UNL     1     -40.543 -52.053  13.827  1.00  0.00    -0.341 N 
HETATM    2  C   UNL     1     -39.210 -52.329  13.616  1.00  0.00     0.320 C 
HETATM    3  O   UNL     1     -38.715 -53.440  13.787  1.00  0.00    -0.247 OA
HETATM    4  N   UNL     1     -38.415 -51.262  13.320  1.00  0.00    -0.308 N 
HETATM    5  H   UNL     1     -40.712 -51.139  14.221  1.00  0.00     0.164 HD
HETATM    6  H   UNL     1     -37.445 -51.423  13.559  1.00  0.00     0.170 HD
ENDROOT
BRANCH   4   7
HETATM    7  C   UNL     1     -38.815 -49.975  12.954  1.00  0.00     0.051 A 
HETATM    8  C   UNL     1     -38.802 -48.975  13.905  1.00  0.00     0.035 A 
HETATM    9  C   UNL     1     -39.305 -47.716  13.571  1.00  0.00     0.051 A 
HETATM   10  C   UNL     1     -39.775 -47.445  12.284  1.00  0.00     0.103 A 
HETATM   11  N   UNL     1     -39.722 -48.418  11.345  1.00  0.00    -0.350 N 
HETATM   12  C   UNL     1     -39.240 -49.638  11.681  1.00  0.00     0.119 A 
ATOM     13  HN  UNL     1     -40.041 -48.234  10.394  1.00  0.00     0.166 HD
BRANCH  10  14
HETATM   14  N   UNL     1     -40.289 -46.224  11.923  1.00  0.00    -0.363 N 
HETATM   15  C   UNL     1     -40.599 -45.793  10.557  1.00  0.00     0.150 C 
HETATM   16  C   UNL     1     -39.764 -44.553  10.207  1.00  0.00     0.187 C 
HETATM   17  O   UNL     1     -39.986 -43.491  11.149  1.00  0.00    -0.388 OA
HETATM   18  C   UNL     1     -39.624 -43.915  12.475  1.00  0.00     0.187 C 
HETATM   19  C   UNL     1     -40.427 -45.150  12.922  1.00  0.00     0.150 C 
ENDBRANCH  10  14
ENDBRANCH   4   7
BRANCH   1  20
HETATM   20  C   UNL     1     -41.395 -53.121  14.309  1.00  0.00     0.159 C 
BRANCH  20  21
HETATM   21  C   UNL     1     -42.809 -53.280  13.656  1.00  0.00     0.236 C 
HETATM   22  C   UNL     1     -42.623 -52.684  12.241  1.00  0.00     0.044 C 
BRANCH  21  23
HETATM   23  N   UNL     1     -43.931 -52.612  14.372  1.00  0.00     0.098 N 
HETATM   24  C   UNL     1     -43.914 -52.773  15.847  1.00  0.00     0.299 C 
HETATM   25  C   UNL     1     -44.312 -54.174  16.346  1.00  0.00     0.198 C 
HETATM   26  O   UNL     1     -45.605 -54.554  15.859  1.00  0.00    -0.388 OA
HETATM   27  C   UNL     1     -45.659 -54.467  14.430  1.00  0.00     0.198 C 
HETATM   28  C   UNL     1     -45.284 -53.056  13.943  1.00  0.00     0.299 C 
ENDBRANCH  21  23
ENDBRANCH  20  21
ENDBRANCH   1  20
TORSDOF 5
ENDMDL
