MODEL 1
REMARK VINA RESULT:      -6.0      0.000      0.000
REMARK  5 active torsions:
REMARK  status: ('A' for Active; 'I' for Inactive)
REMARK    1  A    between atoms: C_2  and  C_4 
REMARK    2  A    between atoms: C_4  and  N_5 
REMARK    3  A    between atoms: C_8  and  N_11 
REMARK       I    between atoms: N_11  and  C_12 
REMARK    4  A    between atoms: C_12  and  C_14 
REMARK    5  A    between atoms: C_14  and  C_15 
ROOT
HETATM    1  N   UNL     1     -43.059 -53.931  13.776  1.00  0.00    -0.356 N 
HETATM    2  C   UNL     1     -43.861 -54.860  14.410  1.00  0.00     0.222 C 
HETATM    3  O   UNL     1     -43.427 -55.746  15.142  1.00  0.00    -0.273 OA
HETATM    4  H   UNL     1     -43.507 -53.098  13.412  1.00  0.00     0.162 HD
ENDROOT
BRANCH   1   5
HETATM    5  C   UNL     1     -41.617 -53.879  14.019  1.00  0.00     0.087 C 
HETATM    6  C   UNL     1     -41.251 -52.728  14.962  1.00  0.00     0.055 C 
HETATM    7  C   UNL     1     -41.280 -51.372  14.250  1.00  0.00     0.274 C 
HETATM    8  N   UNL     1     -40.466 -51.320  13.023  1.00  0.00     0.088 N 
HETATM    9  C   UNL     1     -40.873 -52.388  12.100  1.00  0.00     0.274 C 
HETATM   10  C   UNL     1     -40.831 -53.789  12.708  1.00  0.00     0.055 C 
BRANCH   8  11
HETATM   11  C   UNL     1     -39.021 -51.281  13.328  1.00  0.00     0.276 C 
BRANCH  11  12
HETATM   12  C   UNL     1     -38.250 -50.070  12.752  1.00  0.00     0.006 C 
HETATM   13  C   UNL     1     -37.408 -50.441  11.531  1.00  0.00     0.011 C 
HETATM   14  C   UNL     1     -39.221 -48.942  12.384  1.00  0.00     0.011 C 
ENDBRANCH  11  12
ENDBRANCH   8  11
ENDBRANCH   1   5
BRANCH   2  15
HETATM   15  C   UNL     1     -45.344 -54.700  14.139  1.00  0.00     0.142 C 
BRANCH  15  16
HETATM   16  C   UNL     1     -45.972 -53.610  14.964  1.00  0.00    -0.034 A 
HETATM   17  C   UNL     1     -46.559 -52.492  14.370  1.00  0.00     0.011 A 
HETATM   18  C   UNL     1     -47.127 -51.502  15.170  1.00  0.00     0.025 A 
HETATM   19  C   UNL     1     -47.102 -51.657  16.552  1.00  0.00     0.005 A 
HETATM   20  C   UNL     1     -47.669 -50.605  17.457  1.00  0.00     0.068 C 
HETATM   21  N   UNL     1     -46.550 -52.738  17.149  1.00  0.00    -0.369 N 
HETATM   22  C   UNL     1     -46.005 -53.685  16.352  1.00  0.00     0.095 A 
ATOM     23  HN  UNL     1     -46.544 -52.836  18.165  1.00  0.00     0.165 HD
ENDBRANCH  15  16
ENDBRANCH   2  15
TORSDOF 5
ENDMDL
MODEL 2
REMARK VINA RESULT:      -5.7      2.760      3.639
REMARK  5 active torsions:
REMARK  status: ('A' for Active; 'I' for Inactive)
REMARK    1  A    between atoms: C_2  and  C_4 
REMARK    2  A    between atoms: C_4  and  N_5 
REMARK    3  A    between atoms: C_8  and  N_11 
REMARK       I    between atoms: N_11  and  C_12 
REMARK    4  A    between atoms: C_12  and  C_14 
REMARK    5  A    between atoms: C_14  and  C_15 
ROOT
HETATM    1  N   UNL     1     -42.353 -51.170  12.051  1.00  0.00    -0.356 N 
HETATM    2  C   UNL     1     -42.452 -52.475  12.495  1.00  0.00     0.222 C 
HETATM    3  O   UNL     1     -41.521 -53.092  13.005  1.00  0.00    -0.273 OA
HETATM    4  H   UNL     1     -43.216 -50.665  11.888  1.00  0.00     0.162 HD
ENDROOT
BRANCH   1   5
HETATM    5  C   UNL     1     -41.132 -50.390  12.253  1.00  0.00     0.087 C 
HETATM    6  C   UNL     1     -41.284 -49.410  13.421  1.00  0.00     0.055 C 
HETATM    7  C   UNL     1     -42.121 -48.186  13.037  1.00  0.00     0.274 C 
HETATM    8  N   UNL     1     -41.647 -47.488  11.829  1.00  0.00     0.088 N 
HETATM    9  C   UNL     1     -41.571 -48.425  10.701  1.00  0.00     0.274 C 
HETATM   10  C   UNL     1     -40.714 -49.661  10.973  1.00  0.00     0.055 C 
BRANCH   8  11
HETATM   11  C   UNL     1     -40.408 -46.727  12.090  1.00  0.00     0.276 C 
BRANCH  11  12
HETATM   12  C   UNL     1     -40.414 -45.257  11.607  1.00  0.00     0.006 C 
HETATM   13  C   UNL     1     -39.670 -45.073  10.285  1.00  0.00     0.011 C 
HETATM   14  C   UNL     1     -41.853 -44.746  11.463  1.00  0.00     0.011 C 
ENDBRANCH  11  12
ENDBRANCH   8  11
ENDBRANCH   1   5
BRANCH   2  15
HETATM   15  C   UNL     1     -43.823 -53.098  12.312  1.00  0.00     0.142 C 
BRANCH  15  16
HETATM   16  C   UNL     1     -44.814 -52.639  13.346  1.00  0.00    -0.034 A 
HETATM   17  C   UNL     1     -45.862 -51.777  13.019  1.00  0.00     0.011 A 
HETATM   18  C   UNL     1     -46.758 -51.372  14.007  1.00  0.00     0.025 A 
HETATM   19  C   UNL     1     -46.589 -51.846  15.303  1.00  0.00     0.005 A 
HETATM   20  C   UNL     1     -47.505 -51.413  16.409  1.00  0.00     0.068 C 
HETATM   21  N   UNL     1     -45.588 -52.691  15.641  1.00  0.00    -0.369 N 
HETATM   22  C   UNL     1     -44.731 -53.070  14.664  1.00  0.00     0.095 A 
ATOM     23  HN  UNL     1     -45.482 -53.031  16.597  1.00  0.00     0.165 HD
ENDBRANCH  15  16
ENDBRANCH   2  15
TORSDOF 5
ENDMDL
MODEL 3
REMARK VINA RESULT:      -5.6      3.351      7.278
REMARK  5 active torsions:
REMARK  status: ('A' for Active; 'I' for Inactive)
REMARK    1  A    between atoms: C_2  and  C_4 
REMARK    2  A    between atoms: C_4  and  N_5 
REMARK    3  A    between atoms: C_8  and  N_11 
REMARK       I    between atoms: N_11  and  C_12 
REMARK    4  A    between atoms: C_12  and  C_14 
REMARK    5  A    between atoms: C_14  and  C_15 
ROOT
HETATM    1  N   UNL     1     -40.111 -50.094  12.886  1.00  0.00    -0.356 N 
HETATM    2  C   UNL     1     -39.324 -49.375  12.007  1.00  0.00     0.222 C 
HETATM    3  O   UNL     1     -38.493 -49.889  11.262  1.00  0.00    -0.273 OA
HETATM    4  H   UNL     1     -40.931 -49.633  13.263  1.00  0.00     0.162 HD
ENDROOT
BRANCH   1   5
HETATM    5  C   UNL     1     -40.075 -51.556  12.916  1.00  0.00     0.087 C 
HETATM    6  C   UNL     1     -41.161 -52.160  12.019  1.00  0.00     0.055 C 
HETATM    7  C   UNL     1     -42.548 -52.081  12.665  1.00  0.00     0.274 C 
HETATM    8  N   UNL     1     -42.613 -52.656  14.020  1.00  0.00     0.088 N 
HETATM    9  C   UNL     1     -41.612 -52.020  14.887  1.00  0.00     0.274 C 
HETATM   10  C   UNL     1     -40.184 -52.090  14.348  1.00  0.00     0.055 C 
BRANCH   8  11
HETATM   11  C   UNL     1     -42.562 -54.132  13.990  1.00  0.00     0.276 C 
BRANCH  11  12
HETATM   12  C   UNL     1     -43.788 -54.854  14.597  1.00  0.00     0.006 C 
HETATM   13  C   UNL     1     -44.189 -54.282  15.957  1.00  0.00     0.011 C 
HETATM   14  C   UNL     1     -44.981 -54.783  13.637  1.00  0.00     0.011 C 
ENDBRANCH  11  12
ENDBRANCH   8  11
ENDBRANCH   1   5
BRANCH   2  15
HETATM   15  C   UNL     1     -39.570 -47.879  12.023  1.00  0.00     0.142 C 
BRANCH  15  16
HETATM   16  C   UNL     1     -40.763 -47.477  11.200  1.00  0.00    -0.034 A 
HETATM   17  C   UNL     1     -41.099 -46.136  11.009  1.00  0.00     0.011 A 
HETATM   18  C   UNL     1     -42.215 -45.805  10.242  1.00  0.00     0.025 A 
HETATM   19  C   UNL     1     -42.968 -46.827   9.675  1.00  0.00     0.005 A 
HETATM   20  C   UNL     1     -44.197 -46.524   8.870  1.00  0.00     0.068 C 
HETATM   21  N   UNL     1     -42.655 -48.133   9.837  1.00  0.00    -0.369 N 
HETATM   22  C   UNL     1     -41.568 -48.429  10.585  1.00  0.00     0.095 A 
ATOM     23  HN  UNL     1     -43.219 -48.868   9.410  1.00  0.00     0.165 HD
ENDBRANCH  15  16
ENDBRANCH   2  15
TORSDOF 5
ENDMDL
MODEL 4
REMARK VINA RESULT:      -5.3      2.847      4.560
REMARK  5 active torsions:
REMARK  status: ('A' for Active; 'I' for Inactive)
REMARK    1  A    between atoms: C_2  and  C_4 
REMARK    2  A    between atoms: C_4  and  N_5 
REMARK    3  A    between atoms: C_8  and  N_11 
REMARK       I    between atoms: N_11  and  C_12 
REMARK    4  A    between atoms: C_12  and  C_14 
REMARK    5  A    between atoms: C_14  and  C_15 
ROOT
HETATM    1  N   UNL     1     -40.650 -50.741  13.541  1.00  0.00    -0.356 N 
HETATM    2  C   UNL     1     -40.553 -52.118  13.607  1.00  0.00     0.222 C 
HETATM    3  O   UNL     1     -39.657 -52.763  13.070  1.00  0.00    -0.273 OA
HETATM    4  H   UNL     1     -41.254 -50.282  14.212  1.00  0.00     0.162 HD
ENDROOT
BRANCH   1   5
HETATM    5  C   UNL     1     -39.612 -49.937  12.894  1.00  0.00     0.087 C 
HETATM    6  C   UNL     1     -39.444 -48.581  13.587  1.00  0.00     0.055 C 
HETATM    7  C   UNL     1     -40.568 -47.607  13.221  1.00  0.00     0.274 C 
HETATM    8  N   UNL     1     -40.761 -47.430  11.770  1.00  0.00     0.088 N 
HETATM    9  C   UNL     1     -40.988 -48.732  11.129  1.00  0.00     0.274 C 
HETATM   10  C   UNL     1     -39.891 -49.761  11.399  1.00  0.00     0.055 C 
BRANCH   8  11
HETATM   11  C   UNL     1     -39.680 -46.622  11.170  1.00  0.00     0.276 C 
BRANCH  11  12
HETATM   12  C   UNL     1     -40.083 -45.197  10.723  1.00  0.00     0.006 C 
HETATM   13  C   UNL     1     -40.053 -44.192  11.875  1.00  0.00     0.011 C 
HETATM   14  C   UNL     1     -39.168 -44.711   9.593  1.00  0.00     0.011 C 
ENDBRANCH  11  12
ENDBRANCH   8  11
ENDBRANCH   1   5
BRANCH   2  15
HETATM   15  C   UNL     1     -41.650 -52.787  14.414  1.00  0.00     0.142 C 
BRANCH  15  16
HETATM   16  C   UNL     1     -43.026 -52.486  13.886  1.00  0.00    -0.034 A 
HETATM   17  C   UNL     1     -43.904 -51.649  14.576  1.00  0.00     0.011 A 
HETATM   18  C   UNL     1     -45.173 -51.398  14.055  1.00  0.00     0.025 A 
HETATM   19  C   UNL     1     -45.532 -51.986  12.847  1.00  0.00     0.005 A 
HETATM   20  C   UNL     1     -46.896 -51.775  12.262  1.00  0.00     0.068 C 
HETATM   21  N   UNL     1     -44.693 -52.791  12.155  1.00  0.00    -0.369 N 
HETATM   22  C   UNL     1     -43.468 -53.019  12.681  1.00  0.00     0.095 A 
ATOM     23  HN  UNL     1     -44.974 -53.210  11.269  1.00  0.00     0.165 HD
ENDBRANCH  15  16
ENDBRANCH   2  15
TORSDOF 5
ENDMDL
MODEL 5
REMARK VINA RESULT:      -5.3      2.784      7.710
REMARK  5 active torsions:
REMARK  status: ('A' for Active; 'I' for Inactive)
REMARK    1  A    between atoms: C_2  and  C_4 
REMARK    2  A    between atoms: C_4  and  N_5 
REMARK    3  A    between atoms: C_8  and  N_11 
REMARK       I    between atoms: N_11  and  C_12 
REMARK    4  A    between atoms: C_12  and  C_14 
REMARK    5  A    between atoms: C_14  and  C_15 
ROOT
HETATM    1  N   UNL     1     -40.260 -51.526  14.007  1.00  0.00    -0.356 N 
HETATM    2  C   UNL     1     -39.015 -51.954  13.589  1.00  0.00     0.222 C 
HETATM    3  O   UNL     1     -38.635 -53.120  13.667  1.00  0.00    -0.273 OA
HETATM    4  H   UNL     1     -40.580 -50.624  13.674  1.00  0.00     0.162 HD
ENDROOT
BRANCH   1   5
HETATM    5  C   UNL     1     -41.267 -52.472  14.489  1.00  0.00     0.087 C 
HETATM    6  C   UNL     1     -41.927 -53.223  13.329  1.00  0.00     0.055 C 
HETATM    7  C   UNL     1     -42.952 -52.354  12.593  1.00  0.00     0.274 C 
HETATM    8  N   UNL     1     -43.971 -51.751  13.471  1.00  0.00     0.088 N 
HETATM    9  C   UNL     1     -43.323 -50.980  14.539  1.00  0.00     0.274 C 
HETATM   10  C   UNL     1     -42.314 -51.777  15.364  1.00  0.00     0.055 C 
BRANCH   8  11
HETATM   11  C   UNL     1     -44.952 -52.753  13.935  1.00  0.00     0.276 C 
BRANCH  11  12
HETATM   12  C   UNL     1     -46.438 -52.352  13.783  1.00  0.00     0.006 C 
HETATM   13  C   UNL     1     -46.918 -51.446  14.918  1.00  0.00     0.011 C 
HETATM   14  C   UNL     1     -46.670 -51.655  12.437  1.00  0.00     0.011 C 
ENDBRANCH  11  12
ENDBRANCH   8  11
ENDBRANCH   1   5
BRANCH   2  15
HETATM   15  C   UNL     1     -38.137 -50.863  13.009  1.00  0.00     0.142 C 
BRANCH  15  16
HETATM   16  C   UNL     1     -37.567 -49.953  14.062  1.00  0.00    -0.034 A 
HETATM   17  C   UNL     1     -37.631 -48.564  13.938  1.00  0.00     0.011 A 
HETATM   18  C   UNL     1     -37.088 -47.755  14.935  1.00  0.00     0.025 A 
HETATM   19  C   UNL     1     -36.498 -48.356  16.042  1.00  0.00     0.005 A 
HETATM   20  C   UNL     1     -35.870 -47.531  17.125  1.00  0.00     0.068 C 
HETATM   21  N   UNL     1     -36.436 -49.700  16.189  1.00  0.00    -0.369 N 
HETATM   22  C   UNL     1     -36.970 -50.463  15.208  1.00  0.00     0.095 A 
ATOM     23  HN  UNL     1     -36.002 -50.122  17.010  1.00  0.00     0.165 HD
ENDBRANCH  15  16
ENDBRANCH   2  15
TORSDOF 5
ENDMDL
MODEL 6
REMARK VINA RESULT:      -5.2      2.490      7.240
REMARK  5 active torsions:
REMARK  status: ('A' for Active; 'I' for Inactive)
REMARK    1  A    between atoms: C_2  and  C_4 
REMARK    2  A    between atoms: C_4  and  N_5 
REMARK    3  A    between atoms: C_8  and  N_11 
REMARK       I    between atoms: N_11  and  C_12 
REMARK    4  A    between atoms: C_12  and  C_14 
REMARK    5  A    between atoms: C_14  and  C_15 
ROOT
HETATM    1  N   UNL     1     -40.333 -50.619  13.992  1.00  0.00    -0.356 N 
HETATM    2  C   UNL     1     -39.205 -50.996  13.288  1.00  0.00     0.222 C 
HETATM    3  O   UNL     1     -38.771 -52.144  13.265  1.00  0.00    -0.273 OA
HETATM    4  H   UNL     1     -40.759 -49.732  13.751  1.00  0.00     0.162 HD
ENDROOT
BRANCH   1   5
HETATM    5  C   UNL     1     -41.158 -51.606  14.690  1.00  0.00     0.087 C 
HETATM    6  C   UNL     1     -41.835 -52.564  13.706  1.00  0.00     0.055 C 
HETATM    7  C   UNL     1     -43.032 -51.913  13.004  1.00  0.00     0.274 C 
HETATM    8  N   UNL     1     -44.022 -51.325  13.923  1.00  0.00     0.088 N 
HETATM    9  C   UNL     1     -43.369 -50.359  14.817  1.00  0.00     0.274 C 
HETATM   10  C   UNL     1     -42.188 -50.930  15.600  1.00  0.00     0.055 C 
BRANCH   8  11
HETATM   11  C   UNL     1     -44.816 -52.366  14.607  1.00  0.00     0.276 C 
BRANCH  11  12
HETATM   12  C   UNL     1     -46.349 -52.260  14.427  1.00  0.00     0.006 C 
HETATM   13  C   UNL     1     -47.019 -51.484  15.562  1.00  0.00     0.011 C 
HETATM   14  C   UNL     1     -46.687 -51.603  13.084  1.00  0.00     0.011 C 
ENDBRANCH  11  12
ENDBRANCH   8  11
ENDBRANCH   1   5
BRANCH   2  15
HETATM   15  C   UNL     1     -38.535 -49.870  12.526  1.00  0.00     0.142 C 
BRANCH  15  16
HETATM   16  C   UNL     1     -39.521 -48.947  11.864  1.00  0.00    -0.034 A 
HETATM   17  C   UNL     1     -39.543 -47.580  12.145  1.00  0.00     0.011 A 
HETATM   18  C   UNL     1     -40.476 -46.759  11.513  1.00  0.00     0.025 A 
HETATM   19  C   UNL     1     -41.362 -47.326  10.603  1.00  0.00     0.005 A 
HETATM   20  C   UNL     1     -42.406 -46.492   9.922  1.00  0.00     0.068 C 
HETATM   21  N   UNL     1     -41.351 -48.645  10.306  1.00  0.00    -0.369 N 
HETATM   22  C   UNL     1     -40.437 -49.421  10.933  1.00  0.00     0.095 A 
ATOM     23  HN  UNL     1     -42.008 -49.041   9.633  1.00  0.00     0.165 HD
ENDBRANCH  15  16
ENDBRANCH   2  15
TORSDOF 5
ENDMDL
MODEL 7
REMARK VINA RESULT:      -5.2      2.508      3.525
REMARK  5 active torsions:
REMARK  status: ('A' for Active; 'I' for Inactive)
REMARK    1  A    between atoms: C_2  and  C_4 
REMARK    2  A    between atoms: C_4  and  N_5 
REMARK    3  A    between atoms: C_8  and  N_11 
REMARK       I    between atoms: N_11  and  C_12 
REMARK    4  A    between atoms: C_12  and  C_14 
REMARK    5  A    between atoms: C_14  and  C_15 
ROOT
HETATM    1  N   UNL     1     -43.121 -53.037  13.370  1.00  0.00    -0.356 N 
HETATM    2  C   UNL     1     -44.436 -53.160  12.962  1.00  0.00     0.222 C 
HETATM    3  O   UNL     1     -44.945 -54.223  12.619  1.00  0.00    -0.273 OA
HETATM    4  H   UNL     1     -42.865 -52.196  13.872  1.00  0.00     0.162 HD
ENDROOT
BRANCH   1   5
HETATM    5  C   UNL     1     -42.260 -54.211  13.519  1.00  0.00     0.087 C 
HETATM    6  C   UNL     1     -42.305 -54.758  14.949  1.00  0.00     0.055 C 
HETATM    7  C   UNL     1     -41.477 -53.904  15.916  1.00  0.00     0.274 C 
HETATM    8  N   UNL     1     -40.085 -53.686  15.485  1.00  0.00     0.088 N 
HETATM    9  C   UNL     1     -40.060 -53.099  14.138  1.00  0.00     0.274 C 
HETATM   10  C   UNL     1     -40.822 -53.908  13.089  1.00  0.00     0.055 C 
BRANCH   8  11
HETATM   11  C   UNL     1     -39.266 -54.904  15.647  1.00  0.00     0.276 C 
BRANCH  11  12
HETATM   12  C   UNL     1     -38.528 -55.037  16.999  1.00  0.00     0.006 C 
HETATM   13  C   UNL     1     -37.269 -55.897  16.896  1.00  0.00     0.011 C 
HETATM   14  C   UNL     1     -38.161 -53.652  17.547  1.00  0.00     0.011 C 
ENDBRANCH  11  12
ENDBRANCH   8  11
ENDBRANCH   1   5
BRANCH   2  15
HETATM   15  C   UNL     1     -45.221 -51.862  12.974  1.00  0.00     0.142 C 
BRANCH  15  16
HETATM   16  C   UNL     1     -45.652 -51.457  14.357  1.00  0.00    -0.034 A 
HETATM   17  C   UNL     1     -44.778 -50.812  15.234  1.00  0.00     0.011 A 
HETATM   18  C   UNL     1     -45.216 -50.456  16.509  1.00  0.00     0.025 A 
HETATM   19  C   UNL     1     -46.525 -50.747  16.876  1.00  0.00     0.005 A 
HETATM   20  C   UNL     1     -47.034 -50.415  18.247  1.00  0.00     0.068 C 
HETATM   21  N   UNL     1     -47.394 -51.360  16.039  1.00  0.00    -0.369 N 
HETATM   22  C   UNL     1     -46.945 -51.696  14.807  1.00  0.00     0.095 A 
ATOM     23  HN  UNL     1     -48.351 -51.562  16.325  1.00  0.00     0.165 HD
ENDBRANCH  15  16
ENDBRANCH   2  15
TORSDOF 5
ENDMDL
MODEL 8
REMARK VINA RESULT:      -5.1      2.734      7.594
REMARK  5 active torsions:
REMARK  status: ('A' for Active; 'I' for Inactive)
REMARK    1  A    between atoms: C_2  and  C_4 
REMARK    2  A    between atoms: C_4  and  N_5 
REMARK    3  A    between atoms: C_8  and  N_11 
REMARK       I    between atoms: N_11  and  C_12 
REMARK    4  A    between atoms: C_12  and  C_14 
REMARK    5  A    between atoms: C_14  and  C_15 
ROOT
HETATM    1  N   UNL     1     -46.035 -52.568  15.501  1.00  0.00    -0.356 N 
HETATM    2  C   UNL     1     -46.192 -53.074  14.225  1.00  0.00     0.222 C 
HETATM    3  O   UNL     1     -46.762 -52.471  13.319  1.00  0.00    -0.273 OA
HETATM    4  H   UNL     1     -45.343 -53.007  16.096  1.00  0.00     0.162 HD
ENDROOT
BRANCH   1   5
HETATM    5  C   UNL     1     -46.460 -51.208  15.836  1.00  0.00     0.087 C 
HETATM    6  C   UNL     1     -45.357 -50.445  16.575  1.00  0.00     0.055 C 
HETATM    7  C   UNL     1     -45.243 -50.878  18.040  1.00  0.00     0.274 C 
HETATM    8  N   UNL     1     -46.512 -50.812  18.787  1.00  0.00     0.088 N 
HETATM    9  C   UNL     1     -47.542 -51.604  18.102  1.00  0.00     0.274 C 
HETATM   10  C   UNL     1     -47.763 -51.212  16.641  1.00  0.00     0.055 C 
BRANCH   8  11
HETATM   11  C   UNL     1     -46.897 -49.418  19.088  1.00  0.00     0.276 C 
BRANCH  11  12
HETATM   12  C   UNL     1     -48.410 -49.174  19.295  1.00  0.00     0.006 C 
HETATM   13  C   UNL     1     -48.831 -49.327  20.757  1.00  0.00     0.011 C 
HETATM   14  C   UNL     1     -48.802 -47.780  18.791  1.00  0.00     0.011 C 
ENDBRANCH  11  12
ENDBRANCH   8  11
ENDBRANCH   1   5
BRANCH   2  15
HETATM   15  C   UNL     1     -45.591 -54.451  14.017  1.00  0.00     0.142 C 
BRANCH  15  16
HETATM   16  C   UNL     1     -44.088 -54.430  13.976  1.00  0.00    -0.034 A 
HETATM   17  C   UNL     1     -43.322 -54.957  15.017  1.00  0.00     0.011 A 
HETATM   18  C   UNL     1     -41.931 -54.914  14.941  1.00  0.00     0.025 A 
HETATM   19  C   UNL     1     -41.335 -54.352  13.818  1.00  0.00     0.005 A 
HETATM   20  C   UNL     1     -39.843 -54.252  13.705  1.00  0.00     0.068 C 
HETATM   21  N   UNL     1     -42.057 -53.846  12.792  1.00  0.00    -0.369 N 
HETATM   22  C   UNL     1     -43.405 -53.899  12.888  1.00  0.00     0.095 A 
ATOM     23  HN  UNL     1     -41.601 -53.440  11.975  1.00  0.00     0.165 HD
ENDBRANCH  15  16
ENDBRANCH   2  15
TORSDOF 5
ENDMDL
MODEL 9
REMARK VINA RESULT:      -5.1      2.621      7.381
REMARK  5 active torsions:
REMARK  status: ('A' for Active; 'I' for Inactive)
REMARK    1  A    between atoms: C_2  and  C_4 
REMARK    2  A    between atoms: C_4  and  N_5 
REMARK    3  A    between atoms: C_8  and  N_11 
REMARK       I    between atoms: N_11  and  C_12 
REMARK    4  A    between atoms: C_12  and  C_14 
REMARK    5  A    between atoms: C_14  and  C_15 
ROOT
HETATM    1  N   UNL     1     -44.959 -52.833  14.076  1.00  0.00    -0.356 N 
HETATM    2  C   UNL     1     -44.534 -53.836  13.226  1.00  0.00     0.222 C 
HETATM    3  O   UNL     1     -45.183 -54.852  12.996  1.00  0.00    -0.273 OA
HETATM    4  H   UNL     1     -44.495 -51.935  14.007  1.00  0.00     0.162 HD
ENDROOT
BRANCH   1   5
HETATM    5  C   UNL     1     -46.285 -52.871  14.692  1.00  0.00     0.087 C 
HETATM    6  C   UNL     1     -46.794 -51.461  15.009  1.00  0.00     0.055 C 
HETATM    7  C   UNL     1     -46.122 -50.875  16.255  1.00  0.00     0.274 C 
HETATM    8  N   UNL     1     -46.206 -51.739  17.446  1.00  0.00     0.088 N 
HETATM    9  C   UNL     1     -45.653 -53.066  17.146  1.00  0.00     0.274 C 
HETATM   10  C   UNL     1     -46.295 -53.755  15.943  1.00  0.00     0.055 C 
BRANCH   8  11
HETATM   11  C   UNL     1     -47.567 -51.748  18.019  1.00  0.00     0.276 C 
BRANCH  11  12
HETATM   12  C   UNL     1     -47.825 -50.717  19.142  1.00  0.00     0.006 C 
HETATM   13  C   UNL     1     -48.315 -49.373  18.601  1.00  0.00     0.011 C 
HETATM   14  C   UNL     1     -48.841 -51.266  20.151  1.00  0.00     0.011 C 
ENDBRANCH  11  12
ENDBRANCH   8  11
ENDBRANCH   1   5
BRANCH   2  15
HETATM   15  C   UNL     1     -43.185 -53.583  12.581  1.00  0.00     0.142 C 
BRANCH  15  16
HETATM   16  C   UNL     1     -42.035 -54.013  13.449  1.00  0.00    -0.034 A 
HETATM   17  C   UNL     1     -40.714 -53.929  13.004  1.00  0.00     0.011 A 
HETATM   18  C   UNL     1     -39.676 -54.341  13.839  1.00  0.00     0.025 A 
HETATM   19  C   UNL     1     -39.984 -54.823  15.107  1.00  0.00     0.005 A 
HETATM   20  C   UNL     1     -38.907 -55.310  16.029  1.00  0.00     0.068 C 
HETATM   21  N   UNL     1     -41.255 -54.902  15.563  1.00  0.00    -0.369 N 
HETATM   22  C   UNL     1     -42.244 -54.496  14.735  1.00  0.00     0.095 A 
ATOM     23  HN  UNL     1     -41.460 -55.255  16.498  1.00  0.00     0.165 HD
ENDBRANCH  15  16
ENDBRANCH   2  15
TORSDOF 5
ENDMDL
