MODEL 1
REMARK VINA RESULT:      -5.8      0.000      0.000
REMARK  5 active torsions:
REMARK  status: ('A' for Active; 'I' for Inactive)
REMARK    1  A    between atoms: C_6  and  N_7 
REMARK       I    between atoms: N_7  and  C_8 
REMARK    2  A    between atoms: C_8  and  C_10 
REMARK    3  A    between atoms: C_10  and  O_11 
REMARK    4  A    between atoms: O_11  and  C_12 
REMARK    5  A    between atoms: C_12  and  C_13 
ROOT
HETATM    1  N   UNL     1     -42.567 -50.450  12.294  1.00  0.00    -0.311 N 
HETATM    2  C   UNL     1     -41.220 -50.552  11.980  1.00  0.00     0.246 C 
HETATM    3  O   UNL     1     -40.524 -51.560  12.048  1.00  0.00    -0.271 OA
HETATM    4  H   UNL     1     -43.008 -49.544  12.252  1.00  0.00     0.170 HD
ENDROOT
BRANCH   1   5
HETATM    5  C   UNL     1     -43.370 -51.537  12.674  1.00  0.00     0.109 A 
HETATM    6  N   UNL     1     -43.112 -52.765  12.197  1.00  0.00    -0.351 N 
HETATM    7  C   UNL     1     -43.894 -53.795  12.587  1.00  0.00     0.115 A 
ATOM      8  HN  UNL     1     -42.339 -52.917  11.550  1.00  0.00     0.166 HD
HETATM    9  C   UNL     1     -44.955 -53.666  13.460  1.00  0.00     0.071 A 
HETATM   10 CL   UNL     1     -45.858 -55.061  13.902  1.00  0.00    -0.081 Cl
HETATM   11  C   UNL     1     -45.220 -52.386  13.939  1.00  0.00     0.060 A 
HETATM   12  C   UNL     1     -44.430 -51.304  13.539  1.00  0.00     0.074 A 
HETATM   13 CL   UNL     1     -46.514 -52.071  15.042  1.00  0.00    -0.082 Cl
ENDBRANCH   1   5
BRANCH   2  14
HETATM   14  C   UNL     1     -40.618 -49.233  11.457  1.00  0.00     0.270 C 
BRANCH  14  15
HETATM   15  O   UNL     1     -41.418 -48.550  10.500  1.00  0.00    -0.380 OA
BRANCH  15  16
HETATM   16  C   UNL     1     -41.433 -47.139  10.710  1.00  0.00     0.200 C 
BRANCH  16  17
HETATM   17  C   UNL     1     -42.820 -46.565  10.443  1.00  0.00     0.145 C 
HETATM   18  C   UNL     1     -43.913 -47.604  10.267  1.00  0.00     0.036 C 
HETATM   19  C   UNL     1     -44.882 -46.954   9.298  1.00  0.00     0.029 C 
HETATM   20  C   UNL     1     -44.183 -45.694   8.826  1.00  0.00     0.168 C 
HETATM   21  O   UNL     1     -42.813 -45.824   9.213  1.00  0.00    -0.384 OA
ENDBRANCH  16  17
ENDBRANCH  15  16
ENDBRANCH  14  15
ENDBRANCH   2  14
TORSDOF 5
ENDMDL
MODEL 2
REMARK VINA RESULT:      -5.7      4.282      7.085
REMARK  5 active torsions:
REMARK  status: ('A' for Active; 'I' for Inactive)
REMARK    1  A    between atoms: C_6  and  N_7 
REMARK       I    between atoms: N_7  and  C_8 
REMARK    2  A    between atoms: C_8  and  C_10 
REMARK    3  A    between atoms: C_10  and  O_11 
REMARK    4  A    between atoms: O_11  and  C_12 
REMARK    5  A    between atoms: C_12  and  C_13 
ROOT
HETATM    1  N   UNL     1     -42.124 -52.110  11.985  1.00  0.00    -0.311 N 
HETATM    2  C   UNL     1     -43.047 -52.445  12.965  1.00  0.00     0.246 C 
HETATM    3  O   UNL     1     -43.452 -51.722  13.870  1.00  0.00    -0.271 OA
HETATM    4  H   UNL     1     -41.832 -52.820  11.331  1.00  0.00     0.170 HD
ENDROOT
BRANCH   1   5
HETATM    5  C   UNL     1     -41.560 -50.833  11.840  1.00  0.00     0.109 A 
HETATM    6  N   UNL     1     -42.352 -49.761  11.675  1.00  0.00    -0.351 N 
HETATM    7  C   UNL     1     -41.783 -48.542  11.549  1.00  0.00     0.115 A 
ATOM      8  HN  UNL     1     -43.366 -49.865  11.646  1.00  0.00     0.166 HD
HETATM    9  C   UNL     1     -40.421 -48.324  11.581  1.00  0.00     0.071 A 
HETATM   10 CL   UNL     1     -39.821 -46.719  11.437  1.00  0.00    -0.081 Cl
HETATM   11  C   UNL     1     -39.610 -49.443  11.740  1.00  0.00     0.060 A 
HETATM   12  C   UNL     1     -40.177 -50.716  11.862  1.00  0.00     0.074 A 
HETATM   13 CL   UNL     1     -37.886 -49.324  11.802  1.00  0.00    -0.082 Cl
ENDBRANCH   1   5
BRANCH   2  14
HETATM   14  C   UNL     1     -43.611 -53.870  12.806  1.00  0.00     0.270 C 
BRANCH  14  15
HETATM   15  O   UNL     1     -45.026 -53.943  12.681  1.00  0.00    -0.380 OA
BRANCH  15  16
HETATM   16  C   UNL     1     -45.632 -54.659  13.755  1.00  0.00     0.200 C 
BRANCH  16  17
HETATM   17  C   UNL     1     -46.426 -53.718  14.655  1.00  0.00     0.145 C 
HETATM   18  C   UNL     1     -46.793 -52.390  14.018  1.00  0.00     0.036 C 
HETATM   19  C   UNL     1     -46.811 -51.419  15.182  1.00  0.00     0.029 C 
HETATM   20  C   UNL     1     -46.253 -52.200  16.356  1.00  0.00     0.168 C 
HETATM   21  O   UNL     1     -45.645 -53.372  15.809  1.00  0.00    -0.384 OA
ENDBRANCH  16  17
ENDBRANCH  15  16
ENDBRANCH  14  15
ENDBRANCH   2  14
TORSDOF 5
ENDMDL
MODEL 3
REMARK VINA RESULT:      -5.7      4.266      6.686
REMARK  5 active torsions:
REMARK  status: ('A' for Active; 'I' for Inactive)
REMARK    1  A    between atoms: C_6  and  N_7 
REMARK       I    between atoms: N_7  and  C_8 
REMARK    2  A    between atoms: C_8  and  C_10 
REMARK    3  A    between atoms: C_10  and  O_11 
REMARK    4  A    between atoms: O_11  and  C_12 
REMARK    5  A    between atoms: C_12  and  C_13 
ROOT
HETATM    1  N   UNL     1     -41.507 -50.328  11.473  1.00  0.00    -0.311 N 
HETATM    2  C   UNL     1     -42.027 -51.084  12.514  1.00  0.00     0.246 C 
HETATM    3  O   UNL     1     -42.753 -50.685  13.419  1.00  0.00    -0.271 OA
HETATM    4  H   UNL     1     -40.872 -50.767  10.824  1.00  0.00     0.170 HD
ENDROOT
BRANCH   1   5
HETATM    5  C   UNL     1     -41.807 -48.973  11.259  1.00  0.00     0.109 A 
HETATM    6  N   UNL     1     -43.081 -48.552  11.287  1.00  0.00    -0.351 N 
HETATM    7  C   UNL     1     -43.340 -47.241  11.089  1.00  0.00     0.115 A 
ATOM      8  HN  UNL     1     -43.841 -49.211  11.456  1.00  0.00     0.166 HD
HETATM    9  C   UNL     1     -42.365 -46.292  10.859  1.00  0.00     0.071 A 
HETATM   10 CL   UNL     1     -42.822 -44.648  10.649  1.00  0.00    -0.081 Cl
HETATM   11  C   UNL     1     -41.049 -46.742  10.820  1.00  0.00     0.060 A 
HETATM   12  C   UNL     1     -40.759 -48.097  11.012  1.00  0.00     0.074 A 
HETATM   13 CL   UNL     1     -39.721 -45.669  10.545  1.00  0.00    -0.082 Cl
ENDBRANCH   1   5
BRANCH   2  14
HETATM   14  C   UNL     1     -41.649 -52.575  12.428  1.00  0.00     0.270 C 
BRANCH  14  15
HETATM   15  O   UNL     1     -40.253 -52.841  12.463  1.00  0.00    -0.380 OA
BRANCH  15  16
HETATM   16  C   UNL     1     -39.659 -52.471  13.707  1.00  0.00     0.200 C 
BRANCH  16  17
HETATM   17  C   UNL     1     -38.535 -51.463  13.494  1.00  0.00     0.145 C 
HETATM   18  C   UNL     1     -38.739 -50.129  14.189  1.00  0.00     0.036 C 
HETATM   19  C   UNL     1     -38.049 -49.132  13.279  1.00  0.00     0.029 C 
HETATM   20  C   UNL     1     -37.686 -49.920  12.034  1.00  0.00     0.168 C 
HETATM   21  O   UNL     1     -38.428 -51.139  12.098  1.00  0.00    -0.384 OA
ENDBRANCH  16  17
ENDBRANCH  15  16
ENDBRANCH  14  15
ENDBRANCH   2  14
TORSDOF 5
ENDMDL
MODEL 4
REMARK VINA RESULT:      -5.7      3.997      6.817
REMARK  5 active torsions:
REMARK  status: ('A' for Active; 'I' for Inactive)
REMARK    1  A    between atoms: C_6  and  N_7 
REMARK       I    between atoms: N_7  and  C_8 
REMARK    2  A    between atoms: C_8  and  C_10 
REMARK    3  A    between atoms: C_10  and  O_11 
REMARK    4  A    between atoms: O_11  and  C_12 
REMARK    5  A    between atoms: C_12  and  C_13 
ROOT
HETATM    1  N   UNL     1     -41.902 -50.498  11.781  1.00  0.00    -0.311 N 
HETATM    2  C   UNL     1     -41.107 -51.589  12.097  1.00  0.00     0.246 C 
HETATM    3  O   UNL     1     -39.881 -51.617  12.138  1.00  0.00    -0.271 OA
HETATM    4  H   UNL     1     -42.901 -50.625  11.726  1.00  0.00     0.170 HD
ENDROOT
BRANCH   1   5
HETATM    5  C   UNL     1     -41.405 -49.210  11.527  1.00  0.00     0.109 A 
HETATM    6  N   UNL     1     -40.199 -48.849  11.993  1.00  0.00    -0.351 N 
HETATM    7  C   UNL     1     -39.740 -47.607  11.725  1.00  0.00     0.115 A 
ATOM      8  HN  UNL     1     -39.639 -49.501  12.541  1.00  0.00     0.166 HD
HETATM    9  C   UNL     1     -40.440 -46.672  10.989  1.00  0.00     0.071 A 
HETATM   10 CL   UNL     1     -39.734 -45.133  10.692  1.00  0.00    -0.081 Cl
HETATM   11  C   UNL     1     -41.693 -47.054  10.521  1.00  0.00     0.060 A 
HETATM   12  C   UNL     1     -42.192 -48.331  10.796  1.00  0.00     0.074 A 
HETATM   13 CL   UNL     1     -42.683 -45.991   9.583  1.00  0.00    -0.082 Cl
ENDBRANCH   1   5
BRANCH   2  14
HETATM   14  C   UNL     1     -41.919 -52.845  12.470  1.00  0.00     0.270 C 
BRANCH  14  15
HETATM   15  O   UNL     1     -43.196 -52.583  13.039  1.00  0.00    -0.380 OA
BRANCH  15  16
HETATM   16  C   UNL     1     -44.232 -53.356  12.435  1.00  0.00     0.200 C 
BRANCH  16  17
HETATM   17  C   UNL     1     -45.600 -52.932  12.957  1.00  0.00     0.145 C 
HETATM   18  C   UNL     1     -45.722 -51.458  13.296  1.00  0.00     0.036 C 
HETATM   19  C   UNL     1     -46.720 -51.426  14.437  1.00  0.00     0.029 C 
HETATM   20  C   UNL     1     -46.937 -52.879  14.812  1.00  0.00     0.168 C 
HETATM   21  O   UNL     1     -45.887 -53.619  14.186  1.00  0.00    -0.384 OA
ENDBRANCH  16  17
ENDBRANCH  15  16
ENDBRANCH  14  15
ENDBRANCH   2  14
TORSDOF 5
ENDMDL
MODEL 5
REMARK VINA RESULT:      -5.4      4.349      7.112
REMARK  5 active torsions:
REMARK  status: ('A' for Active; 'I' for Inactive)
REMARK    1  A    between atoms: C_6  and  N_7 
REMARK       I    between atoms: N_7  and  C_8 
REMARK    2  A    between atoms: C_8  and  C_10 
REMARK    3  A    between atoms: C_10  and  O_11 
REMARK    4  A    between atoms: O_11  and  C_12 
REMARK    5  A    between atoms: C_12  and  C_13 
ROOT
HETATM    1  N   UNL     1     -39.823 -47.819  11.253  1.00  0.00    -0.311 N 
HETATM    2  C   UNL     1     -39.779 -48.692  12.330  1.00  0.00     0.246 C 
HETATM    3  O   UNL     1     -40.735 -49.110  12.976  1.00  0.00    -0.271 OA
HETATM    4  H   UNL     1     -38.954 -47.506  10.846  1.00  0.00     0.170 HD
ENDROOT
BRANCH   1   5
HETATM    5  C   UNL     1     -41.010 -47.331  10.684  1.00  0.00     0.109 A 
HETATM    6  N   UNL     1     -41.777 -48.137   9.933  1.00  0.00    -0.351 N 
HETATM    7  C   UNL     1     -42.920 -47.646   9.406  1.00  0.00     0.115 A 
ATOM      8  HN  UNL     1     -41.502 -49.105   9.764  1.00  0.00     0.166 HD
HETATM    9  C   UNL     1     -43.358 -46.351   9.595  1.00  0.00     0.071 A 
HETATM   10 CL   UNL     1     -44.846 -45.854   8.892  1.00  0.00    -0.081 Cl
HETATM   11  C   UNL     1     -42.548 -45.521  10.364  1.00  0.00     0.060 A 
HETATM   12  C   UNL     1     -41.355 -46.006  10.911  1.00  0.00     0.074 A 
HETATM   13 CL   UNL     1     -42.968 -43.876  10.689  1.00  0.00    -0.082 Cl
ENDBRANCH   1   5
BRANCH   2  14
HETATM   14  C   UNL     1     -38.354 -49.179  12.658  1.00  0.00     0.270 C 
BRANCH  14  15
HETATM   15  O   UNL     1     -38.119 -50.558  12.398  1.00  0.00    -0.380 OA
BRANCH  15  16
HETATM   16  C   UNL     1     -38.049 -51.334  13.593  1.00  0.00     0.200 C 
BRANCH  16  17
HETATM   17  C   UNL     1     -39.307 -52.178  13.766  1.00  0.00     0.145 C 
HETATM   18  C   UNL     1     -39.061 -53.590  14.267  1.00  0.00     0.036 C 
HETATM   19  C   UNL     1     -40.175 -54.401  13.633  1.00  0.00     0.029 C 
HETATM   20  C   UNL     1     -40.847 -53.455  12.657  1.00  0.00     0.168 C 
HETATM   21  O   UNL     1     -39.963 -52.343  12.499  1.00  0.00    -0.384 OA
ENDBRANCH  16  17
ENDBRANCH  15  16
ENDBRANCH  14  15
ENDBRANCH   2  14
TORSDOF 5
ENDMDL
MODEL 6
REMARK VINA RESULT:      -5.4      3.326      5.472
REMARK  5 active torsions:
REMARK  status: ('A' for Active; 'I' for Inactive)
REMARK    1  A    between atoms: C_6  and  N_7 
REMARK       I    between atoms: N_7  and  C_8 
REMARK    2  A    between atoms: C_8  and  C_10 
REMARK    3  A    between atoms: C_10  and  O_11 
REMARK    4  A    between atoms: O_11  and  C_12 
REMARK    5  A    between atoms: C_12  and  C_13 
ROOT
HETATM    1  N   UNL     1     -40.678 -52.001  12.112  1.00  0.00    -0.311 N 
HETATM    2  C   UNL     1     -40.709 -50.652  11.789  1.00  0.00     0.246 C 
HETATM    3  O   UNL     1     -41.700 -49.930  11.748  1.00  0.00    -0.271 OA
HETATM    4  H   UNL     1     -39.800 -52.494  12.051  1.00  0.00     0.170 HD
ENDROOT
BRANCH   1   5
HETATM    5  C   UNL     1     -41.800 -52.738  12.523  1.00  0.00     0.109 A 
HETATM    6  N   UNL     1     -42.959 -52.627  11.856  1.00  0.00    -0.351 N 
HETATM    7  C   UNL     1     -44.020 -53.356  12.265  1.00  0.00     0.115 A 
ATOM      8  HN  UNL     1     -43.038 -52.003  11.053  1.00  0.00     0.166 HD
HETATM    9  C   UNL     1     -43.988 -54.223  13.338  1.00  0.00     0.071 A 
HETATM   10 CL   UNL     1     -45.401 -55.116  13.743  1.00  0.00    -0.081 Cl
HETATM   11  C   UNL     1     -42.785 -54.320  14.029  1.00  0.00     0.060 A 
HETATM   12  C   UNL     1     -41.676 -53.567  13.629  1.00  0.00     0.074 A 
HETATM   13 CL   UNL     1     -42.593 -55.367  15.393  1.00  0.00    -0.082 Cl
ENDBRANCH   1   5
BRANCH   2  14
HETATM   14  C   UNL     1     -39.313 -50.062  11.514  1.00  0.00     0.270 C 
BRANCH  14  15
HETATM   15  O   UNL     1     -38.254 -50.661  12.251  1.00  0.00    -0.380 OA
BRANCH  15  16
HETATM   16  C   UNL     1     -37.866 -49.880  13.380  1.00  0.00     0.200 C 
BRANCH  16  17
HETATM   17  C   UNL     1     -38.485 -50.431  14.660  1.00  0.00     0.145 C 
HETATM   18  C   UNL     1     -37.614 -50.296  15.896  1.00  0.00     0.036 C 
HETATM   19  C   UNL     1     -37.989 -51.498  16.740  1.00  0.00     0.029 C 
HETATM   20  C   UNL     1     -38.880 -52.344  15.850  1.00  0.00     0.168 C 
HETATM   21  O   UNL     1     -38.716 -51.842  14.522  1.00  0.00    -0.384 OA
ENDBRANCH  16  17
ENDBRANCH  15  16
ENDBRANCH  14  15
ENDBRANCH   2  14
TORSDOF 5
ENDMDL
MODEL 7
REMARK VINA RESULT:      -5.3      4.703      6.866
REMARK  5 active torsions:
REMARK  status: ('A' for Active; 'I' for Inactive)
REMARK    1  A    between atoms: C_6  and  N_7 
REMARK       I    between atoms: N_7  and  C_8 
REMARK    2  A    between atoms: C_8  and  C_10 
REMARK    3  A    between atoms: C_10  and  O_11 
REMARK    4  A    between atoms: O_11  and  C_12 
REMARK    5  A    between atoms: C_12  and  C_13 
ROOT
HETATM    1  N   UNL     1     -43.497 -53.752  13.842  1.00  0.00    -0.311 N 
HETATM    2  C   UNL     1     -44.642 -54.060  13.123  1.00  0.00     0.246 C 
HETATM    3  O   UNL     1     -44.990 -53.573  12.052  1.00  0.00    -0.271 OA
HETATM    4  H   UNL     1     -43.358 -54.185  14.743  1.00  0.00     0.170 HD
ENDROOT
BRANCH   1   5
HETATM    5  C   UNL     1     -42.504 -52.864  13.398  1.00  0.00     0.109 A 
HETATM    6  N   UNL     1     -42.820 -51.866  12.557  1.00  0.00    -0.351 N 
HETATM    7  C   UNL     1     -41.848 -51.020  12.154  1.00  0.00     0.115 A 
ATOM      8  HN  UNL     1     -43.778 -51.750  12.228  1.00  0.00     0.166 HD
HETATM    9  C   UNL     1     -40.532 -51.113  12.559  1.00  0.00     0.071 A 
HETATM   10 CL   UNL     1     -39.393 -49.955  11.996  1.00  0.00    -0.081 Cl
HETATM   11  C   UNL     1     -40.214 -52.158  13.421  1.00  0.00     0.060 A 
HETATM   12  C   UNL     1     -41.203 -53.052  13.843  1.00  0.00     0.074 A 
HETATM   13 CL   UNL     1     -38.608 -52.399  14.015  1.00  0.00    -0.082 Cl
ENDBRANCH   1   5
BRANCH   2  14
HETATM   14  C   UNL     1     -45.487 -55.171  13.776  1.00  0.00     0.270 C 
BRANCH  14  15
HETATM   15  O   UNL     1     -46.078 -54.819  15.020  1.00  0.00    -0.380 OA
BRANCH  15  16
HETATM   16  C   UNL     1     -46.910 -53.663  14.921  1.00  0.00     0.200 C 
BRANCH  16  17
HETATM   17  C   UNL     1     -46.357 -52.523  15.769  1.00  0.00     0.145 C 
HETATM   18  C   UNL     1     -46.014 -51.264  14.993  1.00  0.00     0.036 C 
HETATM   19  C   UNL     1     -44.852 -50.667  15.762  1.00  0.00     0.029 C 
HETATM   20  C   UNL     1     -44.474 -51.718  16.787  1.00  0.00     0.168 C 
HETATM   21  O   UNL     1     -45.124 -52.926  16.384  1.00  0.00    -0.384 OA
ENDBRANCH  16  17
ENDBRANCH  15  16
ENDBRANCH  14  15
ENDBRANCH   2  14
TORSDOF 5
ENDMDL
MODEL 8
REMARK VINA RESULT:      -5.3      2.150      4.142
REMARK  5 active torsions:
REMARK  status: ('A' for Active; 'I' for Inactive)
REMARK    1  A    between atoms: C_6  and  N_7 
REMARK       I    between atoms: N_7  and  C_8 
REMARK    2  A    between atoms: C_8  and  C_10 
REMARK    3  A    between atoms: C_10  and  O_11 
REMARK    4  A    between atoms: O_11  and  C_12 
REMARK    5  A    between atoms: C_12  and  C_13 
ROOT
HETATM    1  N   UNL     1     -43.102 -50.041  12.536  1.00  0.00    -0.311 N 
HETATM    2  C   UNL     1     -41.819 -49.947  12.016  1.00  0.00     0.246 C 
HETATM    3  O   UNL     1     -41.038 -50.872  11.818  1.00  0.00    -0.271 OA
HETATM    4  H   UNL     1     -43.620 -49.192  12.704  1.00  0.00     0.170 HD
ENDROOT
BRANCH   1   5
HETATM    5  C   UNL     1     -43.737 -51.252  12.851  1.00  0.00     0.109 A 
HETATM    6  N   UNL     1     -43.325 -52.396  12.282  1.00  0.00    -0.351 N 
HETATM    7  C   UNL     1     -43.946 -53.550  12.611  1.00  0.00     0.115 A 
ATOM      8  HN  UNL     1     -42.556 -52.395  11.612  1.00  0.00     0.166 HD
HETATM    9  C   UNL     1     -44.990 -53.630  13.510  1.00  0.00     0.071 A 
HETATM   10 CL   UNL     1     -45.680 -55.164  13.866  1.00  0.00    -0.081 Cl
HETATM   11  C   UNL     1     -45.416 -52.436  14.084  1.00  0.00     0.060 A 
HETATM   12  C   UNL     1     -44.794 -51.229  13.749  1.00  0.00     0.074 A 
HETATM   13 CL   UNL     1     -46.711 -52.381  15.229  1.00  0.00    -0.082 Cl
ENDBRANCH   1   5
BRANCH   2  14
HETATM   14  C   UNL     1     -41.425 -48.509  11.627  1.00  0.00     0.270 C 
BRANCH  14  15
HETATM   15  O   UNL     1     -40.029 -48.298  11.455  1.00  0.00    -0.380 OA
BRANCH  15  16
HETATM   16  C   UNL     1     -39.394 -47.852  12.653  1.00  0.00     0.200 C 
BRANCH  16  17
HETATM   17  C   UNL     1     -38.290 -48.816  13.073  1.00  0.00     0.145 C 
HETATM   18  C   UNL     1     -37.743 -49.682  11.952  1.00  0.00     0.036 C 
HETATM   19  C   UNL     1     -37.342 -50.968  12.647  1.00  0.00     0.029 C 
HETATM   20  C   UNL     1     -37.875 -50.837  14.060  1.00  0.00     0.168 C 
HETATM   21  O   UNL     1     -38.797 -49.745  14.044  1.00  0.00    -0.384 OA
ENDBRANCH  16  17
ENDBRANCH  15  16
ENDBRANCH  14  15
ENDBRANCH   2  14
TORSDOF 5
ENDMDL
MODEL 9
REMARK VINA RESULT:      -5.2      3.468      6.144
REMARK  5 active torsions:
REMARK  status: ('A' for Active; 'I' for Inactive)
REMARK    1  A    between atoms: C_6  and  N_7 
REMARK       I    between atoms: N_7  and  C_8 
REMARK    2  A    between atoms: C_8  and  C_10 
REMARK    3  A    between atoms: C_10  and  O_11 
REMARK    4  A    between atoms: O_11  and  C_12 
REMARK    5  A    between atoms: C_12  and  C_13 
ROOT
HETATM    1  N   UNL     1     -41.955 -50.429  11.763  1.00  0.00    -0.311 N 
HETATM    2  C   UNL     1     -40.729 -51.055  11.933  1.00  0.00     0.246 C 
HETATM    3  O   UNL     1     -39.623 -50.527  11.887  1.00  0.00    -0.271 OA
HETATM    4  H   UNL     1     -42.792 -50.993  11.766  1.00  0.00     0.170 HD
ENDROOT
BRANCH   1   5
HETATM    5  C   UNL     1     -42.115 -49.046  11.583  1.00  0.00     0.109 A 
HETATM    6  N   UNL     1     -41.783 -48.476  10.414  1.00  0.00    -0.351 N 
HETATM    7  C   UNL     1     -41.957 -47.145  10.264  1.00  0.00     0.115 A 
ATOM      8  HN  UNL     1     -41.407 -49.039   9.651  1.00  0.00     0.166 HD
HETATM    9  C   UNL     1     -42.464 -46.321  11.248  1.00  0.00     0.071 A 
HETATM   10 CL   UNL     1     -42.663 -44.645  10.924  1.00  0.00    -0.081 Cl
HETATM   11  C   UNL     1     -42.792 -46.921  12.460  1.00  0.00     0.060 A 
HETATM   12  C   UNL     1     -42.610 -48.296  12.641  1.00  0.00     0.074 A 
HETATM   13 CL   UNL     1     -43.439 -46.017  13.784  1.00  0.00    -0.082 Cl
ENDBRANCH   1   5
BRANCH   2  14
HETATM   14  C   UNL     1     -40.854 -52.557  12.254  1.00  0.00     0.270 C 
BRANCH  14  15
HETATM   15  O   UNL     1     -42.173 -53.080  12.165  1.00  0.00    -0.380 OA
BRANCH  15  16
HETATM   16  C   UNL     1     -42.626 -53.631  13.401  1.00  0.00     0.200 C 
BRANCH  16  17
HETATM   17  C   UNL     1     -43.985 -53.058  13.785  1.00  0.00     0.145 C 
HETATM   18  C   UNL     1     -45.132 -53.487  12.887  1.00  0.00     0.036 C 
HETATM   19  C   UNL     1     -46.078 -52.303  12.912  1.00  0.00     0.029 C 
HETATM   20  C   UNL     1     -45.322 -51.208  13.640  1.00  0.00     0.168 C 
HETATM   21  O   UNL     1     -43.956 -51.626  13.689  1.00  0.00    -0.384 OA
ENDBRANCH  16  17
ENDBRANCH  15  16
ENDBRANCH  14  15
ENDBRANCH   2  14
TORSDOF 5
ENDMDL
