MODEL 1
REMARK VINA RESULT:      -5.7      0.000      0.000
REMARK  9 active torsions:
REMARK  status: ('A' for Active; 'I' for Inactive)
REMARK    1  A    between atoms: C_2  and  C_3 
REMARK    2  A    between atoms: C_6  and  O_7 
REMARK    3  A    between atoms: O_7  and  C_8 
REMARK    4  A    between atoms: C_8  and  C_9 
REMARK    5  A    between atoms: C_9  and  O_10 
REMARK    6  A    between atoms: C_9  and  C_11 
REMARK    7  A    between atoms: C_11  and  N_12 
REMARK    8  A    between atoms: C_13  and  C_14 
REMARK    9  A    between atoms: C_14  and  O_15 
ROOT
HETATM    1  C   UNL     1     -40.878 -52.741  11.948  1.00  0.00     0.164 C 
ENDROOT
BRANCH   1   2
HETATM    2  C   UNL     1     -41.149 -51.236  12.116  1.00  0.00     0.160 C 
BRANCH   2   3
HETATM    3  C   UNL     1     -40.520 -50.679  13.416  1.00  0.00     0.209 C 
BRANCH   3   4
HETATM    4  O   UNL     1     -41.478 -49.785  13.995  1.00  0.00    -0.349 OA
BRANCH   4   5
HETATM    5  C   UNL     1     -42.484 -50.325  14.743  1.00  0.00     0.068 A 
HETATM    6  C   UNL     1     -43.770 -50.096  14.245  1.00  0.00     0.037 A 
HETATM    7  C   UNL     1     -44.891 -50.633  14.884  1.00  0.00     0.010 A 
HETATM    8  C   UNL     1     -44.741 -51.425  16.026  1.00  0.00    -0.058 A 
HETATM    9  C   UNL     1     -43.450 -51.667  16.515  1.00  0.00     0.010 A 
HETATM   10  C   UNL     1     -42.328 -51.116  15.880  1.00  0.00     0.037 A 
BRANCH   8  11
HETATM   11  C   UNL     1     -45.947 -52.035  16.695  1.00  0.00     0.034 C 
HETATM   12  C   UNL     1     -47.219 -51.823  15.887  1.00  0.00     0.010 C 
ENDBRANCH   8  11
ENDBRANCH   4   5
ENDBRANCH   3   4
ENDBRANCH   2   3
BRANCH   2  13
HETATM   13  O   UNL     1     -40.644 -50.521  10.973  1.00  0.00    -0.392 OA
HETATM   14  H   UNL     1     -40.084 -49.792  11.306  1.00  0.00     0.210 HD
ENDBRANCH   2  13
ENDBRANCH   1   2
BRANCH   1  15
HETATM   15  N   UNL     1     -41.470 -53.551  13.009  1.00  0.00    -0.330 N 
HETATM   16  C   UNL     1     -40.833 -54.169  14.071  1.00  0.00     0.108 A 
HETATM   17  N   UNL     1     -41.718 -54.767  14.851  1.00  0.00    -0.342 N 
HETATM   18  C   UNL     1     -42.947 -54.514  14.312  1.00  0.00     0.060 A 
ATOM     19  HN  UNL     1     -41.522 -55.310  15.692  1.00  0.00     0.167 HD
HETATM   20  C   UNL     1     -44.213 -54.892  14.781  1.00  0.00     0.032 A 
HETATM   21  C   UNL     1     -42.832 -53.763  13.148  1.00  0.00     0.062 A 
HETATM   22  C   UNL     1     -45.344 -54.499  14.059  1.00  0.00     0.002 A 
HETATM   23  C   UNL     1     -45.212 -53.757  12.886  1.00  0.00     0.002 A 
HETATM   24  C   UNL     1     -43.954 -53.375  12.400  1.00  0.00     0.032 A 
BRANCH  16  25
HETATM   25  C   UNL     1     -39.375 -54.153  14.408  1.00  0.00     0.240 C 
BRANCH  25  26
HETATM   26  O   UNL     1     -38.611 -54.922  13.492  1.00  0.00    -0.393 OA
HETATM   27  H   UNL     1     -38.598 -54.404  12.662  1.00  0.00     0.209 HD
ENDBRANCH  25  26
ENDBRANCH  16  25
ENDBRANCH   1  15
TORSDOF 9
ENDMDL
MODEL 2
REMARK VINA RESULT:      -5.6      4.086      7.076
REMARK  9 active torsions:
REMARK  status: ('A' for Active; 'I' for Inactive)
REMARK    1  A    between atoms: C_2  and  C_3 
REMARK    2  A    between atoms: C_6  and  O_7 
REMARK    3  A    between atoms: O_7  and  C_8 
REMARK    4  A    between atoms: C_8  and  C_9 
REMARK    5  A    between atoms: C_9  and  O_10 
REMARK    6  A    between atoms: C_9  and  C_11 
REMARK    7  A    between atoms: C_11  and  N_12 
REMARK    8  A    between atoms: C_13  and  C_14 
REMARK    9  A    between atoms: C_14  and  O_15 
ROOT
HETATM    1  C   UNL     1     -41.188 -48.662  12.168  1.00  0.00     0.164 C 
ENDROOT
BRANCH   1   2
HETATM    2  C   UNL     1     -40.041 -49.536  11.634  1.00  0.00     0.160 C 
BRANCH   2   3
HETATM    3  C   UNL     1     -39.696 -50.691  12.605  1.00  0.00     0.209 C 
BRANCH   3   4
HETATM    4  O   UNL     1     -40.051 -51.912  11.947  1.00  0.00    -0.349 OA
BRANCH   4   5
HETATM    5  C   UNL     1     -41.081 -52.642  12.468  1.00  0.00     0.068 A 
HETATM    6  C   UNL     1     -40.707 -53.564  13.451  1.00  0.00     0.037 A 
HETATM    7  C   UNL     1     -41.666 -54.342  14.104  1.00  0.00     0.010 A 
HETATM    8  C   UNL     1     -43.021 -54.198  13.796  1.00  0.00    -0.058 A 
HETATM    9  C   UNL     1     -43.397 -53.261  12.822  1.00  0.00     0.010 A 
HETATM   10  C   UNL     1     -42.432 -52.492  12.159  1.00  0.00     0.037 A 
BRANCH   8  11
HETATM   11  C   UNL     1     -44.060 -55.011  14.526  1.00  0.00     0.034 C 
HETATM   12  C   UNL     1     -45.396 -55.020  13.799  1.00  0.00     0.010 C 
ENDBRANCH   8  11
ENDBRANCH   4   5
ENDBRANCH   3   4
ENDBRANCH   2   3
BRANCH   2  13
HETATM   13  O   UNL     1     -40.392 -50.063  10.341  1.00  0.00    -0.392 OA
HETATM   14  H   UNL     1     -41.295 -50.432  10.409  1.00  0.00     0.210 HD
ENDBRANCH   2  13
ENDBRANCH   1   2
BRANCH   1  15
HETATM   15  N   UNL     1     -41.144 -47.290  11.668  1.00  0.00    -0.330 N 
HETATM   16  C   UNL     1     -41.889 -46.727  10.646  1.00  0.00     0.108 A 
HETATM   17  N   UNL     1     -41.602 -45.441  10.526  1.00  0.00    -0.342 N 
HETATM   18  C   UNL     1     -40.684 -45.154  11.494  1.00  0.00     0.060 A 
ATOM     19  HN  UNL     1     -41.992 -44.791   9.843  1.00  0.00     0.167 HD
HETATM   20  C   UNL     1     -40.088 -43.925  11.811  1.00  0.00     0.032 A 
HETATM   21  C   UNL     1     -40.362 -46.292  12.225  1.00  0.00     0.062 A 
HETATM   22  C   UNL     1     -39.175 -43.872  12.869  1.00  0.00     0.002 A 
HETATM   23  C   UNL     1     -38.852 -45.024  13.585  1.00  0.00     0.002 A 
HETATM   24  C   UNL     1     -39.435 -46.262  13.277  1.00  0.00     0.032 A 
BRANCH  16  25
HETATM   25  C   UNL     1     -42.939 -47.379   9.802  1.00  0.00     0.240 C 
BRANCH  25  26
HETATM   26  O   UNL     1     -42.378 -48.265   8.849  1.00  0.00    -0.393 OA
HETATM   27  H   UNL     1     -42.644 -47.913   7.975  1.00  0.00     0.209 HD
ENDBRANCH  25  26
ENDBRANCH  16  25
ENDBRANCH   1  15
TORSDOF 9
ENDMDL
MODEL 3
REMARK VINA RESULT:      -5.5      1.685      2.267
REMARK  9 active torsions:
REMARK  status: ('A' for Active; 'I' for Inactive)
REMARK    1  A    between atoms: C_2  and  C_3 
REMARK    2  A    between atoms: C_6  and  O_7 
REMARK    3  A    between atoms: O_7  and  C_8 
REMARK    4  A    between atoms: C_8  and  C_9 
REMARK    5  A    between atoms: C_9  and  O_10 
REMARK    6  A    between atoms: C_9  and  C_11 
REMARK    7  A    between atoms: C_11  and  N_12 
REMARK    8  A    between atoms: C_13  and  C_14 
REMARK    9  A    between atoms: C_14  and  O_15 
ROOT
HETATM    1  C   UNL     1     -41.544 -53.841  13.075  1.00  0.00     0.164 C 
ENDROOT
BRANCH   1   2
HETATM    2  C   UNL     1     -42.003 -52.651  12.214  1.00  0.00     0.160 C 
BRANCH   2   3
HETATM    3  C   UNL     1     -41.903 -51.312  12.984  1.00  0.00     0.209 C 
BRANCH   3   4
HETATM    4  O   UNL     1     -43.098 -50.575  12.699  1.00  0.00    -0.349 OA
BRANCH   4   5
HETATM    5  C   UNL     1     -44.202 -50.829  13.461  1.00  0.00     0.068 A 
HETATM    6  C   UNL     1     -44.046 -50.563  14.825  1.00  0.00     0.037 A 
HETATM    7  C   UNL     1     -45.111 -50.731  15.713  1.00  0.00     0.010 A 
HETATM    8  C   UNL     1     -46.359 -51.154  15.247  1.00  0.00    -0.058 A 
HETATM    9  C   UNL     1     -46.519 -51.406  13.877  1.00  0.00     0.010 A 
HETATM   10  C   UNL     1     -45.444 -51.249  12.990  1.00  0.00     0.037 A 
BRANCH   8  11
HETATM   11  C   UNL     1     -47.519 -51.302  16.199  1.00  0.00     0.034 C 
HETATM   12  C   UNL     1     -47.222 -50.694  17.562  1.00  0.00     0.010 C 
ENDBRANCH   8  11
ENDBRANCH   4   5
ENDBRANCH   3   4
ENDBRANCH   2   3
BRANCH   2  13
HETATM   13  O   UNL     1     -41.217 -52.591  11.009  1.00  0.00    -0.392 OA
HETATM   14  H   UNL     1     -40.451 -53.188  11.128  1.00  0.00     0.210 HD
ENDBRANCH   2  13
ENDBRANCH   1   2
BRANCH   1  15
HETATM   15  N   UNL     1     -42.215 -53.903  14.370  1.00  0.00    -0.330 N 
HETATM   16  C   UNL     1     -41.698 -53.595  15.617  1.00  0.00     0.108 A 
HETATM   17  N   UNL     1     -42.633 -53.723  16.545  1.00  0.00    -0.342 N 
HETATM   18  C   UNL     1     -43.777 -54.091  15.896  1.00  0.00     0.060 A 
ATOM     19  HN  UNL     1     -42.521 -53.576  17.547  1.00  0.00     0.167 HD
HETATM   20  C   UNL     1     -45.057 -54.315  16.422  1.00  0.00     0.032 A 
HETATM   21  C   UNL     1     -43.553 -54.224  14.531  1.00  0.00     0.062 A 
HETATM   22  C   UNL     1     -46.091 -54.672  15.550  1.00  0.00     0.002 A 
HETATM   23  C   UNL     1     -45.847 -54.815  14.184  1.00  0.00     0.002 A 
HETATM   24  C   UNL     1     -44.571 -54.599  13.644  1.00  0.00     0.032 A 
BRANCH  16  25
HETATM   25  C   UNL     1     -40.323 -53.108  15.952  1.00  0.00     0.240 C 
BRANCH  25  26
HETATM   26  O   UNL     1     -40.275 -51.696  16.070  1.00  0.00    -0.393 OA
HETATM   27  H   UNL     1     -39.341 -51.481  16.268  1.00  0.00     0.209 HD
ENDBRANCH  25  26
ENDBRANCH  16  25
ENDBRANCH   1  15
TORSDOF 9
ENDMDL
MODEL 4
REMARK VINA RESULT:      -5.4      1.661      2.975
REMARK  9 active torsions:
REMARK  status: ('A' for Active; 'I' for Inactive)
REMARK    1  A    between atoms: C_2  and  C_3 
REMARK    2  A    between atoms: C_6  and  O_7 
REMARK    3  A    between atoms: O_7  and  C_8 
REMARK    4  A    between atoms: C_8  and  C_9 
REMARK    5  A    between atoms: C_9  and  O_10 
REMARK    6  A    between atoms: C_9  and  C_11 
REMARK    7  A    between atoms: C_11  and  N_12 
REMARK    8  A    between atoms: C_13  and  C_14 
REMARK    9  A    between atoms: C_14  and  O_15 
ROOT
HETATM    1  C   UNL     1     -39.381 -52.174  14.131  1.00  0.00     0.164 C 
ENDROOT
BRANCH   1   2
HETATM    2  C   UNL     1     -39.271 -51.055  15.180  1.00  0.00     0.160 C 
BRANCH   2   3
HETATM    3  C   UNL     1     -40.069 -51.387  16.464  1.00  0.00     0.209 C 
BRANCH   3   4
HETATM    4  O   UNL     1     -41.066 -50.370  16.614  1.00  0.00    -0.349 OA
BRANCH   4   5
HETATM    5  C   UNL     1     -42.366 -50.709  16.374  1.00  0.00     0.068 A 
HETATM    6  C   UNL     1     -42.948 -50.058  15.282  1.00  0.00     0.037 A 
HETATM    7  C   UNL     1     -44.258 -50.346  14.893  1.00  0.00     0.010 A 
HETATM    8  C   UNL     1     -45.005 -51.307  15.581  1.00  0.00    -0.058 A 
HETATM    9  C   UNL     1     -44.415 -51.970  16.666  1.00  0.00     0.010 A 
HETATM   10  C   UNL     1     -43.104 -51.669  17.062  1.00  0.00     0.037 A 
BRANCH   8  11
HETATM   11  C   UNL     1     -46.406 -51.644  15.139  1.00  0.00     0.034 C 
HETATM   12  C   UNL     1     -46.606 -51.422  13.647  1.00  0.00     0.010 C 
ENDBRANCH   8  11
ENDBRANCH   4   5
ENDBRANCH   3   4
ENDBRANCH   2   3
BRANCH   2  13
HETATM   13  O   UNL     1     -37.887 -50.825  15.501  1.00  0.00    -0.392 OA
HETATM   14  H   UNL     1     -37.411 -51.669  15.373  1.00  0.00     0.210 HD
ENDBRANCH   2  13
ENDBRANCH   1   2
BRANCH   1  15
HETATM   15  N   UNL     1     -40.616 -52.112  13.354  1.00  0.00    -0.330 N 
HETATM   16  C   UNL     1     -40.906 -51.299  12.271  1.00  0.00     0.108 A 
HETATM   17  N   UNL     1     -42.112 -51.574  11.801  1.00  0.00    -0.342 N 
HETATM   18  C   UNL     1     -42.603 -52.594  12.564  1.00  0.00     0.060 A 
ATOM     19  HN  UNL     1     -42.582 -51.115  11.022  1.00  0.00     0.167 HD
HETATM   20  C   UNL     1     -43.824 -53.274  12.450  1.00  0.00     0.032 A 
HETATM   21  C   UNL     1     -41.698 -52.953  13.556  1.00  0.00     0.062 A 
HETATM   22  C   UNL     1     -44.106 -54.309  13.347  1.00  0.00     0.002 A 
HETATM   23  C   UNL     1     -43.193 -54.648  14.346  1.00  0.00     0.002 A 
HETATM   24  C   UNL     1     -41.970 -53.975  14.477  1.00  0.00     0.032 A 
BRANCH  16  25
HETATM   25  C   UNL     1     -40.021 -50.286  11.615  1.00  0.00     0.240 C 
BRANCH  25  26
HETATM   26  O   UNL     1     -40.410 -50.032  10.275  1.00  0.00    -0.393 OA
HETATM   27  H   UNL     1     -40.691 -49.095  10.256  1.00  0.00     0.209 HD
ENDBRANCH  25  26
ENDBRANCH  16  25
ENDBRANCH   1  15
TORSDOF 9
ENDMDL
MODEL 5
REMARK VINA RESULT:      -5.4      2.667      4.646
REMARK  9 active torsions:
REMARK  status: ('A' for Active; 'I' for Inactive)
REMARK    1  A    between atoms: C_2  and  C_3 
REMARK    2  A    between atoms: C_6  and  O_7 
REMARK    3  A    between atoms: O_7  and  C_8 
REMARK    4  A    between atoms: C_8  and  C_9 
REMARK    5  A    between atoms: C_9  and  O_10 
REMARK    6  A    between atoms: C_9  and  C_11 
REMARK    7  A    between atoms: C_11  and  N_12 
REMARK    8  A    between atoms: C_13  and  C_14 
REMARK    9  A    between atoms: C_14  and  O_15 
ROOT
HETATM    1  C   UNL     1     -40.888 -51.454  13.372  1.00  0.00     0.164 C 
ENDROOT
BRANCH   1   2
HETATM    2  C   UNL     1     -41.130 -52.700  12.503  1.00  0.00     0.160 C 
BRANCH   2   3
HETATM    3  C   UNL     1     -42.402 -53.467  12.937  1.00  0.00     0.209 C 
BRANCH   3   4
HETATM    4  O   UNL     1     -43.523 -52.762  12.392  1.00  0.00    -0.349 OA
BRANCH   4   5
HETATM    5  C   UNL     1     -44.538 -52.423  13.241  1.00  0.00     0.068 A 
HETATM    6  C   UNL     1     -44.298 -52.718  14.587  1.00  0.00     0.037 A 
HETATM    7  C   UNL     1     -45.230 -52.380  15.570  1.00  0.00     0.010 A 
HETATM    8  C   UNL     1     -46.415 -51.723  15.225  1.00  0.00    -0.058 A 
HETATM    9  C   UNL     1     -46.647 -51.413  13.877  1.00  0.00     0.010 A 
HETATM   10  C   UNL     1     -45.716 -51.766  12.891  1.00  0.00     0.037 A 
BRANCH   8  11
HETATM   11  C   UNL     1     -47.405 -51.325  16.290  1.00  0.00     0.034 C 
HETATM   12  C   UNL     1     -46.737 -50.613  17.457  1.00  0.00     0.010 C 
ENDBRANCH   8  11
ENDBRANCH   4   5
ENDBRANCH   3   4
ENDBRANCH   2   3
BRANCH   2  13
HETATM   13  O   UNL     1     -41.229 -52.315  11.119  1.00  0.00    -0.392 OA
HETATM   14  H   UNL     1     -41.218 -51.338  11.084  1.00  0.00     0.210 HD
ENDBRANCH   2  13
ENDBRANCH   1   2
BRANCH   1  15
HETATM   15  N   UNL     1     -40.505 -50.279  12.595  1.00  0.00    -0.330 N 
HETATM   16  C   UNL     1     -39.246 -49.930  12.136  1.00  0.00     0.108 A 
HETATM   17  N   UNL     1     -39.312 -48.820  11.419  1.00  0.00    -0.342 N 
HETATM   18  C   UNL     1     -40.627 -48.455  11.385  1.00  0.00     0.060 A 
ATOM     19  HN  UNL     1     -38.533 -48.332  10.978  1.00  0.00     0.167 HD
HETATM   20  C   UNL     1     -41.228 -47.374  10.725  1.00  0.00     0.032 A 
HETATM   21  C   UNL     1     -41.406 -49.340  12.120  1.00  0.00     0.062 A 
HETATM   22  C   UNL     1     -42.613 -47.210  10.822  1.00  0.00     0.002 A 
HETATM   23  C   UNL     1     -43.380 -48.099  11.575  1.00  0.00     0.002 A 
HETATM   24  C   UNL     1     -42.794 -49.182  12.245  1.00  0.00     0.032 A 
BRANCH  16  25
HETATM   25  C   UNL     1     -37.960 -50.675  12.311  1.00  0.00     0.240 C 
BRANCH  25  26
HETATM   26  O   UNL     1     -37.467 -51.176  11.079  1.00  0.00    -0.393 OA
HETATM   27  H   UNL     1     -36.648 -50.670  10.900  1.00  0.00     0.209 HD
ENDBRANCH  25  26
ENDBRANCH  16  25
ENDBRANCH   1  15
TORSDOF 9
ENDMDL
MODEL 6
REMARK VINA RESULT:      -5.4      1.711      4.172
REMARK  9 active torsions:
REMARK  status: ('A' for Active; 'I' for Inactive)
REMARK    1  A    between atoms: C_2  and  C_3 
REMARK    2  A    between atoms: C_6  and  O_7 
REMARK    3  A    between atoms: O_7  and  C_8 
REMARK    4  A    between atoms: C_8  and  C_9 
REMARK    5  A    between atoms: C_9  and  O_10 
REMARK    6  A    between atoms: C_9  and  C_11 
REMARK    7  A    between atoms: C_11  and  N_12 
REMARK    8  A    between atoms: C_13  and  C_14 
REMARK    9  A    between atoms: C_14  and  O_15 
ROOT
HETATM    1  C   UNL     1     -39.225 -52.142  13.942  1.00  0.00     0.164 C 
ENDROOT
BRANCH   1   2
HETATM    2  C   UNL     1     -39.804 -53.560  13.799  1.00  0.00     0.160 C 
BRANCH   2   3
HETATM    3  C   UNL     1     -40.878 -53.635  12.688  1.00  0.00     0.209 C 
BRANCH   3   4
HETATM    4  O   UNL     1     -41.999 -54.339  13.234  1.00  0.00    -0.349 OA
BRANCH   4   5
HETATM    5  C   UNL     1     -43.161 -53.646  13.417  1.00  0.00     0.068 A 
HETATM    6  C   UNL     1     -43.831 -53.932  14.611  1.00  0.00     0.037 A 
HETATM    7  C   UNL     1     -45.008 -53.260  14.949  1.00  0.00     0.010 A 
HETATM    8  C   UNL     1     -45.526 -52.274  14.105  1.00  0.00    -0.058 A 
HETATM    9  C   UNL     1     -44.845 -51.976  12.916  1.00  0.00     0.010 A 
HETATM   10  C   UNL     1     -43.672 -52.663  12.572  1.00  0.00     0.037 A 
BRANCH   8  11
HETATM   11  C   UNL     1     -46.776 -51.523  14.487  1.00  0.00     0.034 C 
HETATM   12  C   UNL     1     -46.935 -51.404  15.996  1.00  0.00     0.010 C 
ENDBRANCH   8  11
ENDBRANCH   4   5
ENDBRANCH   3   4
ENDBRANCH   2   3
BRANCH   2  13
HETATM   13  O   UNL     1     -38.741 -54.493  13.526  1.00  0.00    -0.392 OA
HETATM   14  H   UNL     1     -39.094 -55.169  12.913  1.00  0.00     0.210 HD
ENDBRANCH   2  13
ENDBRANCH   1   2
BRANCH   1  15
HETATM   15  N   UNL     1     -40.231 -51.095  13.789  1.00  0.00    -0.330 N 
HETATM   16  C   UNL     1     -40.423 -50.242  12.716  1.00  0.00     0.108 A 
HETATM   17  N   UNL     1     -41.474 -49.467  12.929  1.00  0.00    -0.342 N 
HETATM   18  C   UNL     1     -41.991 -49.836  14.137  1.00  0.00     0.060 A 
ATOM     19  HN  UNL     1     -41.829 -48.738  12.311  1.00  0.00     0.167 HD
HETATM   20  C   UNL     1     -43.127 -49.347  14.798  1.00  0.00     0.032 A 
HETATM   21  C   UNL     1     -41.233 -50.848  14.714  1.00  0.00     0.062 A 
HETATM   22  C   UNL     1     -43.475 -49.897  16.036  1.00  0.00     0.002 A 
HETATM   23  C   UNL     1     -42.697 -50.902  16.608  1.00  0.00     0.002 A 
HETATM   24  C   UNL     1     -41.555 -51.398  15.963  1.00  0.00     0.032 A 
BRANCH  16  25
HETATM   25  C   UNL     1     -39.653 -50.185  11.434  1.00  0.00     0.240 C 
BRANCH  25  26
HETATM   26  O   UNL     1     -40.503 -50.007  10.313  1.00  0.00    -0.393 OA
HETATM   27  H   UNL     1     -41.359 -50.406  10.568  1.00  0.00     0.209 HD
ENDBRANCH  25  26
ENDBRANCH  16  25
ENDBRANCH   1  15
TORSDOF 9
ENDMDL
MODEL 7
REMARK VINA RESULT:      -5.4      2.310      4.475
REMARK  9 active torsions:
REMARK  status: ('A' for Active; 'I' for Inactive)
REMARK    1  A    between atoms: C_2  and  C_3 
REMARK    2  A    between atoms: C_6  and  O_7 
REMARK    3  A    between atoms: O_7  and  C_8 
REMARK    4  A    between atoms: C_8  and  C_9 
REMARK    5  A    between atoms: C_9  and  O_10 
REMARK    6  A    between atoms: C_9  and  C_11 
REMARK    7  A    between atoms: C_11  and  N_12 
REMARK    8  A    between atoms: C_13  and  C_14 
REMARK    9  A    between atoms: C_14  and  O_15 
ROOT
HETATM    1  C   UNL     1     -41.439 -53.520  16.762  1.00  0.00     0.164 C 
ENDROOT
BRANCH   1   2
HETATM    2  C   UNL     1     -42.650 -54.467  16.716  1.00  0.00     0.160 C 
BRANCH   2   3
HETATM    3  C   UNL     1     -42.613 -55.389  15.473  1.00  0.00     0.209 C 
BRANCH   3   4
HETATM    4  O   UNL     1     -43.970 -55.595  15.063  1.00  0.00    -0.349 OA
BRANCH   4   5
HETATM    5  C   UNL     1     -44.556 -54.635  14.289  1.00  0.00     0.068 A 
HETATM    6  C   UNL     1     -45.756 -54.127  14.796  1.00  0.00     0.037 A 
HETATM    7  C   UNL     1     -46.438 -53.105  14.132  1.00  0.00     0.010 A 
HETATM    8  C   UNL     1     -45.920 -52.559  12.954  1.00  0.00    -0.058 A 
HETATM    9  C   UNL     1     -44.708 -53.058  12.455  1.00  0.00     0.010 A 
HETATM   10  C   UNL     1     -44.034 -54.093  13.116  1.00  0.00     0.037 A 
BRANCH   8  11
HETATM   11  C   UNL     1     -46.637 -51.431  12.256  1.00  0.00     0.034 C 
HETATM   12  C   UNL     1     -47.432 -51.915  11.053  1.00  0.00     0.010 C 
ENDBRANCH   8  11
ENDBRANCH   4   5
ENDBRANCH   3   4
ENDBRANCH   2   3
BRANCH   2  13
HETATM   13  O   UNL     1     -42.695 -55.257  17.918  1.00  0.00    -0.392 OA
HETATM   14  H   UNL     1     -42.006 -55.947  17.843  1.00  0.00     0.210 HD
ENDBRANCH   2  13
ENDBRANCH   1   2
BRANCH   1  15
HETATM   15  N   UNL     1     -41.220 -52.808  15.506  1.00  0.00    -0.330 N 
HETATM   16  C   UNL     1     -40.263 -53.056  14.537  1.00  0.00     0.108 A 
HETATM   17  N   UNL     1     -40.420 -52.230  13.516  1.00  0.00    -0.342 N 
HETATM   18  C   UNL     1     -41.505 -51.454  13.806  1.00  0.00     0.060 A 
ATOM     19  HN  UNL     1     -39.844 -52.181  12.676  1.00  0.00     0.167 HD
HETATM   20  C   UNL     1     -42.108 -50.452  13.032  1.00  0.00     0.032 A 
HETATM   21  C   UNL     1     -42.029 -51.779  15.052  1.00  0.00     0.062 A 
HETATM   22  C   UNL     1     -43.235 -49.796  13.538  1.00  0.00     0.002 A 
HETATM   23  C   UNL     1     -43.741 -50.125  14.795  1.00  0.00     0.002 A 
HETATM   24  C   UNL     1     -43.147 -51.121  15.584  1.00  0.00     0.032 A 
BRANCH  16  25
HETATM   25  C   UNL     1     -39.216 -54.126  14.526  1.00  0.00     0.240 C 
BRANCH  25  26
HETATM   26  O   UNL     1     -38.978 -54.620  13.218  1.00  0.00    -0.393 OA
HETATM   27  H   UNL     1     -38.033 -54.437  13.038  1.00  0.00     0.209 HD
ENDBRANCH  25  26
ENDBRANCH  16  25
ENDBRANCH   1  15
TORSDOF 9
ENDMDL
MODEL 8
REMARK VINA RESULT:      -5.4      1.587      3.186
REMARK  9 active torsions:
REMARK  status: ('A' for Active; 'I' for Inactive)
REMARK    1  A    between atoms: C_2  and  C_3 
REMARK    2  A    between atoms: C_6  and  O_7 
REMARK    3  A    between atoms: O_7  and  C_8 
REMARK    4  A    between atoms: C_8  and  C_9 
REMARK    5  A    between atoms: C_9  and  O_10 
REMARK    6  A    between atoms: C_9  and  C_11 
REMARK    7  A    between atoms: C_11  and  N_12 
REMARK    8  A    between atoms: C_13  and  C_14 
REMARK    9  A    between atoms: C_14  and  O_15 
ROOT
HETATM    1  C   UNL     1     -40.908 -53.814  12.622  1.00  0.00     0.164 C 
ENDROOT
BRANCH   1   2
HETATM    2  C   UNL     1     -39.947 -53.787  13.822  1.00  0.00     0.160 C 
BRANCH   2   3
HETATM    3  C   UNL     1     -40.544 -54.507  15.056  1.00  0.00     0.209 C 
BRANCH   3   4
HETATM    4  O   UNL     1     -40.773 -53.507  16.055  1.00  0.00    -0.349 OA
BRANCH   4   5
HETATM    5  C   UNL     1     -42.062 -53.126  16.295  1.00  0.00     0.068 A 
HETATM    6  C   UNL     1     -42.916 -54.164  16.680  1.00  0.00     0.037 A 
HETATM    7  C   UNL     1     -44.251 -53.909  17.004  1.00  0.00     0.010 A 
HETATM    8  C   UNL     1     -44.750 -52.604  16.966  1.00  0.00    -0.058 A 
HETATM    9  C   UNL     1     -43.888 -51.561  16.596  1.00  0.00     0.010 A 
HETATM   10  C   UNL     1     -42.553 -51.823  16.257  1.00  0.00     0.037 A 
BRANCH   8  11
HETATM   11  C   UNL     1     -46.180 -52.322  17.350  1.00  0.00     0.034 C 
HETATM   12  C   UNL     1     -46.764 -51.154  16.570  1.00  0.00     0.010 C 
ENDBRANCH   8  11
ENDBRANCH   4   5
ENDBRANCH   3   4
ENDBRANCH   2   3
BRANCH   2  13
HETATM   13  O   UNL     1     -38.693 -54.392  13.454  1.00  0.00    -0.392 OA
HETATM   14  H   UNL     1     -38.176 -54.519  14.274  1.00  0.00     0.210 HD
ENDBRANCH   2  13
ENDBRANCH   1   2
BRANCH   1  15
HETATM   15  N   UNL     1     -41.950 -52.793  12.700  1.00  0.00    -0.330 N 
HETATM   16  C   UNL     1     -41.838 -51.436  12.447  1.00  0.00     0.108 A 
HETATM   17  N   UNL     1     -43.018 -50.849  12.571  1.00  0.00    -0.342 N 
HETATM   18  C   UNL     1     -43.912 -51.833  12.879  1.00  0.00     0.060 A 
ATOM     19  HN  UNL     1     -43.219 -49.856  12.458  1.00  0.00     0.167 HD
HETATM   20  C   UNL     1     -45.297 -51.739  13.076  1.00  0.00     0.032 A 
HETATM   21  C   UNL     1     -43.278 -53.066  12.980  1.00  0.00     0.062 A 
HETATM   22  C   UNL     1     -46.017 -52.901  13.371  1.00  0.00     0.002 A 
HETATM   23  C   UNL     1     -45.365 -54.129  13.482  1.00  0.00     0.002 A 
HETATM   24  C   UNL     1     -43.980 -54.240  13.293  1.00  0.00     0.032 A 
BRANCH  16  25
HETATM   25  C   UNL     1     -40.624 -50.674  12.017  1.00  0.00     0.240 C 
BRANCH  25  26
HETATM   26  O   UNL     1     -40.596 -50.469  10.614  1.00  0.00    -0.393 OA
HETATM   27  H   UNL     1     -39.841 -50.997  10.287  1.00  0.00     0.209 HD
ENDBRANCH  25  26
ENDBRANCH  16  25
ENDBRANCH   1  15
TORSDOF 9
ENDMDL
MODEL 9
REMARK VINA RESULT:      -5.3      1.951      4.369
REMARK  9 active torsions:
REMARK  status: ('A' for Active; 'I' for Inactive)
REMARK    1  A    between atoms: C_2  and  C_3 
REMARK    2  A    between atoms: C_6  and  O_7 
REMARK    3  A    between atoms: O_7  and  C_8 
REMARK    4  A    between atoms: C_8  and  C_9 
REMARK    5  A    between atoms: C_9  and  O_10 
REMARK    6  A    between atoms: C_9  and  C_11 
REMARK    7  A    between atoms: C_11  and  N_12 
REMARK    8  A    between atoms: C_13  and  C_14 
REMARK    9  A    between atoms: C_14  and  O_15 
ROOT
HETATM    1  C   UNL     1     -40.035 -49.522  14.424  1.00  0.00     0.164 C 
ENDROOT
BRANCH   1   2
HETATM    2  C   UNL     1     -39.363 -50.864  14.760  1.00  0.00     0.160 C 
BRANCH   2   3
HETATM    3  C   UNL     1     -38.801 -51.559  13.496  1.00  0.00     0.209 C 
BRANCH   3   4
HETATM    4  O   UNL     1     -39.136 -52.948  13.597  1.00  0.00    -0.349 OA
BRANCH   4   5
HETATM    5  C   UNL     1     -40.458 -53.289  13.570  1.00  0.00     0.068 A 
HETATM    6  C   UNL     1     -41.105 -53.031  12.357  1.00  0.00     0.037 A 
HETATM    7  C   UNL     1     -42.445 -53.376  12.174  1.00  0.00     0.010 A 
HETATM    8  C   UNL     1     -43.160 -54.003  13.198  1.00  0.00    -0.058 A 
HETATM    9  C   UNL     1     -42.506 -54.277  14.408  1.00  0.00     0.010 A 
HETATM   10  C   UNL     1     -41.164 -53.917  14.594  1.00  0.00     0.037 A 
BRANCH   8  11
HETATM   11  C   UNL     1     -44.597 -54.409  12.988  1.00  0.00     0.034 C 
HETATM   12  C   UNL     1     -45.278 -54.800  14.291  1.00  0.00     0.010 C 
ENDBRANCH   8  11
ENDBRANCH   4   5
ENDBRANCH   3   4
ENDBRANCH   2   3
BRANCH   2  13
HETATM   13  O   UNL     1     -38.311 -50.654  15.720  1.00  0.00    -0.392 OA
HETATM   14  H   UNL     1     -38.374 -51.366  16.386  1.00  0.00     0.210 HD
ENDBRANCH   2  13
ENDBRANCH   1   2
BRANCH   1  15
HETATM   15  N   UNL     1     -41.297 -49.677  13.706  1.00  0.00    -0.330 N 
HETATM   16  C   UNL     1     -41.549 -49.463  12.362  1.00  0.00     0.108 A 
HETATM   17  N   UNL     1     -42.805 -49.766  12.077  1.00  0.00    -0.342 N 
HETATM   18  C   UNL     1     -43.371 -50.208  13.238  1.00  0.00     0.060 A 
ATOM     19  HN  UNL     1     -43.261 -49.685  11.168  1.00  0.00     0.167 HD
HETATM   20  C   UNL     1     -44.671 -50.684  13.461  1.00  0.00     0.032 A 
HETATM   21  C   UNL     1     -42.460 -50.158  14.285  1.00  0.00     0.062 A 
HETATM   22  C   UNL     1     -45.024 -51.102  14.748  1.00  0.00     0.002 A 
HETATM   23  C   UNL     1     -44.102 -51.033  15.792  1.00  0.00     0.002 A 
HETATM   24  C   UNL     1     -42.800 -50.555  15.587  1.00  0.00     0.032 A 
BRANCH  16  25
HETATM   25  C   UNL     1     -40.587 -49.029  11.300  1.00  0.00     0.240 C 
BRANCH  25  26
HETATM   26  O   UNL     1     -40.398 -50.031  10.314  1.00  0.00    -0.393 OA
HETATM   27  H   UNL     1     -39.621 -50.546  10.610  1.00  0.00     0.209 HD
ENDBRANCH  25  26
ENDBRANCH  16  25
ENDBRANCH   1  15
TORSDOF 9
ENDMDL
