MODEL 1
REMARK VINA RESULT:      -5.8      0.000      0.000
REMARK  4 active torsions:
REMARK  status: ('A' for Active; 'I' for Inactive)
REMARK    1  A    between atoms: C_4  and  N_5 
REMARK       I    between atoms: N_5  and  C_6 
REMARK       I    between atoms: C_6  and  N_8 
REMARK    2  A    between atoms: N_8  and  C_9 
REMARK    3  A    between atoms: C_9  and  C_10 
REMARK    4  A    between atoms: C_9  and  C_13 
ROOT
HETATM    1  N   UNL     1     -42.000 -51.729  11.990  1.00  0.00    -0.308 N 
HETATM    2  C   UNL     1     -42.253 -50.381  12.152  1.00  0.00     0.321 C 
HETATM    3  O   UNL     1     -42.860 -49.871  13.087  1.00  0.00    -0.247 OA
HETATM    4  N   UNL     1     -41.700 -49.621  11.151  1.00  0.00    -0.338 N 
HETATM    5  H   UNL     1     -41.411 -51.974  11.212  1.00  0.00     0.170 HD
HETATM    6  H   UNL     1     -41.507 -50.054  10.264  1.00  0.00     0.164 HD
ENDROOT
BRANCH   1   7
HETATM    7  C   UNL     1     -42.394 -52.754  12.828  1.00  0.00     0.052 A 
HETATM    8  C   UNL     1     -43.636 -53.268  12.874  1.00  0.00     0.123 A 
HETATM    9  N   UNL     1     -43.981 -54.307  13.721  1.00  0.00    -0.327 N 
HETATM   10  C   UNL     1     -45.331 -54.839  13.670  1.00  0.00     0.159 C 
HETATM   11  C   UNL     1     -43.066 -54.903  14.580  1.00  0.00     0.247 A 
HETATM   12  C   UNL     1     -41.694 -54.328  14.551  1.00  0.00     0.077 A 
HETATM   13  O   UNL     1     -43.313 -55.843  15.330  1.00  0.00    -0.268 OA
HETATM   14  C   UNL     1     -41.394 -53.318  13.718  1.00  0.00     0.036 A 
ENDBRANCH   1   7
BRANCH   4  15
HETATM   15  C   UNL     1     -41.855 -48.177  11.167  1.00  0.00     0.094 C 
BRANCH  15  16
HETATM   16  C   UNL     1     -40.483 -47.555  11.222  1.00  0.00     0.009 A 
HETATM   17  C   UNL     1     -39.504 -47.950  12.303  1.00  0.00     0.007 A 
HETATM   18  C   UNL     1     -40.136 -46.589  12.331  1.00  0.00     0.007 A 
ENDBRANCH  15  16
BRANCH  15  19
HETATM   19  C   UNL     1     -42.615 -47.745   9.937  1.00  0.00     0.009 A 
HETATM   20  C   UNL     1     -43.030 -46.304   9.745  1.00  0.00     0.007 A 
HETATM   21  C   UNL     1     -44.070 -47.347  10.038  1.00  0.00     0.007 A 
ENDBRANCH  15  19
ENDBRANCH   4  15
TORSDOF 4
ENDMDL
MODEL 2
REMARK VINA RESULT:      -5.7      2.326      2.892
REMARK  4 active torsions:
REMARK  status: ('A' for Active; 'I' for Inactive)
REMARK    1  A    between atoms: C_4  and  N_5 
REMARK       I    between atoms: N_5  and  C_6 
REMARK       I    between atoms: C_6  and  N_8 
REMARK    2  A    between atoms: N_8  and  C_9 
REMARK    3  A    between atoms: C_9  and  C_10 
REMARK    4  A    between atoms: C_9  and  C_13 
ROOT
HETATM    1  N   UNL     1     -40.708 -50.513  11.268  1.00  0.00    -0.308 N 
HETATM    2  C   UNL     1     -41.527 -49.412  11.425  1.00  0.00     0.321 C 
HETATM    3  O   UNL     1     -42.180 -49.140  12.426  1.00  0.00    -0.247 OA
HETATM    4  N   UNL     1     -41.508 -48.585  10.329  1.00  0.00    -0.338 N 
HETATM    5  H   UNL     1     -40.172 -50.544  10.417  1.00  0.00     0.170 HD
HETATM    6  H   UNL     1     -41.249 -48.970   9.436  1.00  0.00     0.164 HD
ENDROOT
BRANCH   1   7
HETATM    7  C   UNL     1     -40.486 -51.520  12.187  1.00  0.00     0.052 A 
HETATM    8  C   UNL     1     -39.737 -51.392  13.296  1.00  0.00     0.123 A 
HETATM    9  N   UNL     1     -39.555 -52.427  14.197  1.00  0.00    -0.327 N 
HETATM   10  C   UNL     1     -38.774 -52.188  15.397  1.00  0.00     0.159 C 
HETATM   11  C   UNL     1     -40.143 -53.674  14.027  1.00  0.00     0.247 A 
HETATM   12  C   UNL     1     -40.959 -53.833  12.792  1.00  0.00     0.077 A 
HETATM   13  O   UNL     1     -40.037 -54.615  14.808  1.00  0.00    -0.268 OA
HETATM   14  C   UNL     1     -41.112 -52.808  11.938  1.00  0.00     0.036 A 
ENDBRANCH   1   7
BRANCH   4  15
HETATM   15  C   UNL     1     -42.302 -47.369  10.324  1.00  0.00     0.094 C 
BRANCH  15  16
HETATM   16  C   UNL     1     -41.367 -46.196  10.183  1.00  0.00     0.009 A 
HETATM   17  C   UNL     1     -40.101 -46.119  11.005  1.00  0.00     0.007 A 
HETATM   18  C   UNL     1     -41.241 -45.191  11.305  1.00  0.00     0.007 A 
ENDBRANCH  15  16
BRANCH  15  19
HETATM   19  C   UNL     1     -43.297 -47.429   9.190  1.00  0.00     0.009 A 
HETATM   20  C   UNL     1     -44.161 -46.237   8.851  1.00  0.00     0.007 A 
HETATM   21  C   UNL     1     -44.781 -47.453   9.478  1.00  0.00     0.007 A 
ENDBRANCH  15  19
ENDBRANCH   4  15
TORSDOF 4
ENDMDL
MODEL 3
REMARK VINA RESULT:      -5.6      1.999      7.431
REMARK  4 active torsions:
REMARK  status: ('A' for Active; 'I' for Inactive)
REMARK    1  A    between atoms: C_4  and  N_5 
REMARK       I    between atoms: N_5  and  C_6 
REMARK       I    between atoms: C_6  and  N_8 
REMARK    2  A    between atoms: N_8  and  C_9 
REMARK    3  A    between atoms: C_9  and  C_10 
REMARK    4  A    between atoms: C_9  and  C_13 
ROOT
HETATM    1  N   UNL     1     -41.223 -49.903  11.044  1.00  0.00    -0.308 N 
HETATM    2  C   UNL     1     -41.400 -50.563  12.244  1.00  0.00     0.321 C 
HETATM    3  O   UNL     1     -41.694 -50.043  13.314  1.00  0.00    -0.247 OA
HETATM    4  N   UNL     1     -41.256 -51.923  12.118  1.00  0.00    -0.338 N 
HETATM    5  H   UNL     1     -41.070 -50.487  10.240  1.00  0.00     0.170 HD
HETATM    6  H   UNL     1     -40.712 -52.285  11.352  1.00  0.00     0.164 HD
ENDROOT
BRANCH   1   7
HETATM    7  C   UNL     1     -41.321 -48.543  10.824  1.00  0.00     0.052 A 
HETATM    8  C   UNL     1     -42.328 -47.946  10.163  1.00  0.00     0.123 A 
HETATM    9  N   UNL     1     -42.391 -46.575   9.979  1.00  0.00    -0.327 N 
HETATM   10  C   UNL     1     -43.540 -46.006   9.300  1.00  0.00     0.159 C 
HETATM   11  C   UNL     1     -41.421 -45.712  10.475  1.00  0.00     0.247 A 
HETATM   12  C   UNL     1     -40.291 -46.365  11.191  1.00  0.00     0.077 A 
HETATM   13  O   UNL     1     -41.443 -44.490  10.364  1.00  0.00    -0.268 OA
HETATM   14  C   UNL     1     -40.261 -47.698  11.349  1.00  0.00     0.036 A 
ENDBRANCH   1   7
BRANCH   4  15
HETATM   15  C   UNL     1     -41.421 -52.781  13.279  1.00  0.00     0.094 C 
BRANCH  15  16
HETATM   16  C   UNL     1     -42.447 -53.833  12.946  1.00  0.00     0.009 A 
HETATM   17  C   UNL     1     -43.842 -53.437  12.519  1.00  0.00     0.007 A 
HETATM   18  C   UNL     1     -43.624 -54.058  13.868  1.00  0.00     0.007 A 
ENDBRANCH  15  16
BRANCH  15  19
HETATM   19  C   UNL     1     -40.089 -53.394  13.638  1.00  0.00     0.009 A 
HETATM   20  C   UNL     1     -39.989 -54.467  14.696  1.00  0.00     0.007 A 
HETATM   21  C   UNL     1     -39.447 -53.095  14.974  1.00  0.00     0.007 A 
ENDBRANCH  15  19
ENDBRANCH   4  15
TORSDOF 4
ENDMDL
MODEL 4
REMARK VINA RESULT:      -5.6      1.977      7.283
REMARK  4 active torsions:
REMARK  status: ('A' for Active; 'I' for Inactive)
REMARK    1  A    between atoms: C_4  and  N_5 
REMARK       I    between atoms: N_5  and  C_6 
REMARK       I    between atoms: C_6  and  N_8 
REMARK    2  A    between atoms: N_8  and  C_9 
REMARK    3  A    between atoms: C_9  and  C_10 
REMARK    4  A    between atoms: C_9  and  C_13 
ROOT
HETATM    1  N   UNL     1     -42.013 -50.293  11.545  1.00  0.00    -0.308 N 
HETATM    2  C   UNL     1     -42.708 -50.788  12.632  1.00  0.00     0.321 C 
HETATM    3  O   UNL     1     -42.958 -50.175  13.663  1.00  0.00    -0.247 OA
HETATM    4  N   UNL     1     -43.155 -52.070  12.427  1.00  0.00    -0.338 N 
HETATM    5  H   UNL     1     -41.969 -50.896  10.741  1.00  0.00     0.170 HD
HETATM    6  H   UNL     1     -42.680 -52.647  11.753  1.00  0.00     0.164 HD
ENDROOT
BRANCH   1   7
HETATM    7  C   UNL     1     -41.453 -49.037  11.420  1.00  0.00     0.052 A 
HETATM    8  C   UNL     1     -42.071 -47.976  10.869  1.00  0.00     0.123 A 
HETATM    9  N   UNL     1     -41.474 -46.731  10.780  1.00  0.00    -0.327 N 
HETATM   10  C   UNL     1     -42.230 -45.626  10.219  1.00  0.00     0.159 C 
HETATM   11  C   UNL     1     -40.196 -46.480  11.262  1.00  0.00     0.247 A 
HETATM   12  C   UNL     1     -39.496 -47.653  11.856  1.00  0.00     0.077 A 
HETATM   13  O   UNL     1     -39.632 -45.390  11.232  1.00  0.00    -0.268 OA
HETATM   14  C   UNL     1     -40.104 -48.848  11.924  1.00  0.00     0.036 A 
ENDBRANCH   1   7
BRANCH   4  15
HETATM   15  C   UNL     1     -43.918 -52.746  13.461  1.00  0.00     0.094 C 
BRANCH  15  16
HETATM   16  C   UNL     1     -45.357 -52.813  13.019  1.00  0.00     0.009 A 
HETATM   17  C   UNL     1     -46.159 -51.547  12.820  1.00  0.00     0.007 A 
HETATM   18  C   UNL     1     -46.461 -52.445  13.983  1.00  0.00     0.007 A 
ENDBRANCH  15  16
BRANCH  15  19
HETATM   19  C   UNL     1     -43.339 -54.121  13.689  1.00  0.00     0.009 A 
HETATM   20  C   UNL     1     -43.920 -55.046  14.733  1.00  0.00     0.007 A 
HETATM   21  C   UNL     1     -42.570 -54.427  14.953  1.00  0.00     0.007 A 
ENDBRANCH  15  19
ENDBRANCH   4  15
TORSDOF 4
ENDMDL
MODEL 5
REMARK VINA RESULT:      -5.3      1.572      3.234
REMARK  4 active torsions:
REMARK  status: ('A' for Active; 'I' for Inactive)
REMARK    1  A    between atoms: C_4  and  N_5 
REMARK       I    between atoms: N_5  and  C_6 
REMARK       I    between atoms: C_6  and  N_8 
REMARK    2  A    between atoms: N_8  and  C_9 
REMARK    3  A    between atoms: C_9  and  C_10 
REMARK    4  A    between atoms: C_9  and  C_13 
ROOT
HETATM    1  N   UNL     1     -42.359 -52.393  11.757  1.00  0.00    -0.308 N 
HETATM    2  C   UNL     1     -41.539 -51.334  12.093  1.00  0.00     0.321 C 
HETATM    3  O   UNL     1     -41.382 -50.876  13.219  1.00  0.00    -0.247 OA
HETATM    4  N   UNL     1     -40.846 -50.845  11.012  1.00  0.00    -0.338 N 
HETATM    5  H   UNL     1     -42.307 -52.702  10.801  1.00  0.00     0.170 HD
HETATM    6  H   UNL     1     -41.217 -50.998  10.090  1.00  0.00     0.164 HD
ENDROOT
BRANCH   1   7
HETATM    7  C   UNL     1     -43.168 -53.119  12.609  1.00  0.00     0.052 A 
HETATM    8  C   UNL     1     -42.719 -53.947  13.569  1.00  0.00     0.123 A 
HETATM    9  N   UNL     1     -43.570 -54.643  14.410  1.00  0.00    -0.327 N 
HETATM   10  C   UNL     1     -43.003 -55.475  15.456  1.00  0.00     0.159 C 
HETATM   11  C   UNL     1     -44.953 -54.529  14.332  1.00  0.00     0.247 A 
HETATM   12  C   UNL     1     -45.460 -53.630  13.259  1.00  0.00     0.077 A 
HETATM   13  O   UNL     1     -45.749 -55.102  15.070  1.00  0.00    -0.268 OA
HETATM   14  C   UNL     1     -44.606 -52.972  12.459  1.00  0.00     0.036 A 
ENDBRANCH   1   7
BRANCH   4  15
HETATM   15  C   UNL     1     -39.924 -49.737  11.183  1.00  0.00     0.094 C 
BRANCH  15  16
HETATM   16  C   UNL     1     -40.699 -48.555  11.707  1.00  0.00     0.009 A 
HETATM   17  C   UNL     1     -41.790 -47.922  10.874  1.00  0.00     0.007 A 
HETATM   18  C   UNL     1     -40.499 -47.188  11.091  1.00  0.00     0.007 A 
ENDBRANCH  15  16
BRANCH  15  19
HETATM   19  C   UNL     1     -38.823 -50.146  12.131  1.00  0.00     0.009 A 
HETATM   20  C   UNL     1     -37.857 -49.126  12.686  1.00  0.00     0.007 A 
HETATM   21  C   UNL     1     -37.381 -50.132  11.678  1.00  0.00     0.007 A 
ENDBRANCH  15  19
ENDBRANCH   4  15
TORSDOF 4
ENDMDL
MODEL 6
REMARK VINA RESULT:      -5.3      1.683      2.274
REMARK  4 active torsions:
REMARK  status: ('A' for Active; 'I' for Inactive)
REMARK    1  A    between atoms: C_4  and  N_5 
REMARK       I    between atoms: N_5  and  C_6 
REMARK       I    between atoms: C_6  and  N_8 
REMARK    2  A    between atoms: N_8  and  C_9 
REMARK    3  A    between atoms: C_9  and  C_10 
REMARK    4  A    between atoms: C_9  and  C_13 
ROOT
HETATM    1  N   UNL     1     -42.641 -51.702  12.117  1.00  0.00    -0.308 N 
HETATM    2  C   UNL     1     -41.933 -50.603  12.563  1.00  0.00     0.321 C 
HETATM    3  O   UNL     1     -41.950 -50.151  13.701  1.00  0.00    -0.247 OA
HETATM    4  N   UNL     1     -41.132 -50.065  11.585  1.00  0.00    -0.338 N 
HETATM    5  H   UNL     1     -42.447 -51.996  11.175  1.00  0.00     0.170 HD
HETATM    6  H   UNL     1     -41.370 -50.228  10.621  1.00  0.00     0.164 HD
ENDROOT
BRANCH   1   7
HETATM    7  C   UNL     1     -43.514 -52.480  12.852  1.00  0.00     0.052 A 
HETATM    8  C   UNL     1     -44.727 -52.081  13.272  1.00  0.00     0.123 A 
HETATM    9  N   UNL     1     -45.574 -52.903  13.995  1.00  0.00    -0.327 N 
HETATM   10  C   UNL     1     -46.889 -52.412  14.364  1.00  0.00     0.159 C 
HETATM   11  C   UNL     1     -45.237 -54.208  14.331  1.00  0.00     0.247 A 
HETATM   12  C   UNL     1     -43.887 -54.654  13.888  1.00  0.00     0.077 A 
HETATM   13  O   UNL     1     -45.960 -54.987  14.946  1.00  0.00    -0.268 OA
HETATM   14  C   UNL     1     -43.090 -53.829  13.191  1.00  0.00     0.036 A 
ENDBRANCH   1   7
BRANCH   4  15
HETATM   15  C   UNL     1     -40.304 -48.910  11.880  1.00  0.00     0.094 C 
BRANCH  15  16
HETATM   16  C   UNL     1     -38.870 -49.270  11.589  1.00  0.00     0.009 A 
HETATM   17  C   UNL     1     -38.272 -50.546  12.138  1.00  0.00     0.007 A 
HETATM   18  C   UNL     1     -37.840 -49.221  12.694  1.00  0.00     0.007 A 
ENDBRANCH  15  16
BRANCH  15  19
HETATM   19  C   UNL     1     -40.765 -47.740  11.045  1.00  0.00     0.009 A 
HETATM   20  C   UNL     1     -40.007 -46.433  11.052  1.00  0.00     0.007 A 
HETATM   21  C   UNL     1     -41.355 -46.515  11.707  1.00  0.00     0.007 A 
ENDBRANCH  15  19
ENDBRANCH   4  15
TORSDOF 4
ENDMDL
MODEL 7
REMARK VINA RESULT:      -5.1      1.428      2.925
REMARK  4 active torsions:
REMARK  status: ('A' for Active; 'I' for Inactive)
REMARK    1  A    between atoms: C_4  and  N_5 
REMARK       I    between atoms: N_5  and  C_6 
REMARK       I    between atoms: C_6  and  N_8 
REMARK    2  A    between atoms: N_8  and  C_9 
REMARK    3  A    between atoms: C_9  and  C_10 
REMARK    4  A    between atoms: C_9  and  C_13 
ROOT
HETATM    1  N   UNL     1     -43.796 -50.595  12.908  1.00  0.00    -0.308 N 
HETATM    2  C   UNL     1     -42.821 -49.998  12.133  1.00  0.00     0.321 C 
HETATM    3  O   UNL     1     -41.751 -50.501  11.812  1.00  0.00    -0.247 OA
HETATM    4  N   UNL     1     -43.193 -48.751  11.694  1.00  0.00    -0.338 N 
HETATM    5  H   UNL     1     -44.655 -50.080  13.006  1.00  0.00     0.170 HD
HETATM    6  H   UNL     1     -43.888 -48.242  12.213  1.00  0.00     0.164 HD
ENDROOT
BRANCH   1   7
HETATM    7  C   UNL     1     -43.746 -51.850  13.483  1.00  0.00     0.052 A 
HETATM    8  C   UNL     1     -43.184 -52.124  14.673  1.00  0.00     0.123 A 
HETATM    9  N   UNL     1     -43.171 -53.397  15.216  1.00  0.00    -0.327 N 
HETATM   10  C   UNL     1     -42.590 -53.597  16.531  1.00  0.00     0.159 C 
HETATM   11  C   UNL     1     -43.750 -54.486  14.575  1.00  0.00     0.247 A 
HETATM   12  C   UNL     1     -44.358 -54.197  13.247  1.00  0.00     0.077 A 
HETATM   13  O   UNL     1     -43.790 -55.628  15.024  1.00  0.00    -0.268 OA
HETATM   14  C   UNL     1     -44.350 -52.950  12.749  1.00  0.00     0.036 A 
ENDBRANCH   1   7
BRANCH   4  15
HETATM   15  C   UNL     1     -42.294 -47.980  10.854  1.00  0.00     0.094 C 
BRANCH  15  16
HETATM   16  C   UNL     1     -43.123 -47.078   9.978  1.00  0.00     0.009 A 
HETATM   17  C   UNL     1     -44.540 -47.455   9.610  1.00  0.00     0.007 A 
HETATM   18  C   UNL     1     -43.463 -47.500   8.567  1.00  0.00     0.007 A 
ENDBRANCH  15  16
BRANCH  15  19
HETATM   19  C   UNL     1     -41.348 -47.193  11.729  1.00  0.00     0.009 A 
HETATM   20  C   UNL     1     -40.484 -46.097  11.149  1.00  0.00     0.007 A 
HETATM   21  C   UNL     1     -39.854 -47.382  11.601  1.00  0.00     0.007 A 
ENDBRANCH  15  19
ENDBRANCH   4  15
TORSDOF 4
ENDMDL
MODEL 8
REMARK VINA RESULT:      -5.1      1.059      1.829
REMARK  4 active torsions:
REMARK  status: ('A' for Active; 'I' for Inactive)
REMARK    1  A    between atoms: C_4  and  N_5 
REMARK       I    between atoms: N_5  and  C_6 
REMARK       I    between atoms: C_6  and  N_8 
REMARK    2  A    between atoms: N_8  and  C_9 
REMARK    3  A    between atoms: C_9  and  C_10 
REMARK    4  A    between atoms: C_9  and  C_13 
ROOT
HETATM    1  N   UNL     1     -41.945 -52.187  12.365  1.00  0.00    -0.308 N 
HETATM    2  C   UNL     1     -41.971 -50.824  12.589  1.00  0.00     0.321 C 
HETATM    3  O   UNL     1     -42.178 -50.276  13.665  1.00  0.00    -0.247 OA
HETATM    4  N   UNL     1     -41.684 -50.103  11.455  1.00  0.00    -0.338 N 
HETATM    5  H   UNL     1     -41.673 -52.475  11.441  1.00  0.00     0.170 HD
HETATM    6  H   UNL     1     -41.842 -50.528  10.557  1.00  0.00     0.164 HD
ENDROOT
BRANCH   1   7
HETATM    7  C   UNL     1     -42.167 -53.184  13.295  1.00  0.00     0.052 A 
HETATM    8  C   UNL     1     -41.232 -53.673  14.129  1.00  0.00     0.123 A 
HETATM    9  N   UNL     1     -41.505 -54.664  15.056  1.00  0.00    -0.327 N 
HETATM   10  C   UNL     1     -40.452 -55.099  15.955  1.00  0.00     0.159 C 
HETATM   11  C   UNL     1     -42.771 -55.219  15.202  1.00  0.00     0.247 A 
HETATM   12  C   UNL     1     -43.808 -54.698  14.270  1.00  0.00     0.077 A 
HETATM   13  O   UNL     1     -43.073 -56.079  16.024  1.00  0.00    -0.268 OA
HETATM   14  C   UNL     1     -43.508 -53.738  13.381  1.00  0.00     0.036 A 
ENDBRANCH   1   7
BRANCH   4  15
HETATM   15  C   UNL     1     -41.654 -48.652  11.507  1.00  0.00     0.094 C 
BRANCH  15  16
HETATM   16  C   UNL     1     -40.219 -48.205  11.388  1.00  0.00     0.009 A 
HETATM   17  C   UNL     1     -39.100 -49.062  11.933  1.00  0.00     0.007 A 
HETATM   18  C   UNL     1     -39.457 -47.777  12.620  1.00  0.00     0.007 A 
ENDBRANCH  15  16
BRANCH  15  19
HETATM   19  C   UNL     1     -42.506 -48.096  10.392  1.00  0.00     0.009 A 
HETATM   20  C   UNL     1     -42.534 -46.613  10.101  1.00  0.00     0.007 A 
HETATM   21  C   UNL     1     -43.737 -47.277  10.707  1.00  0.00     0.007 A 
ENDBRANCH  15  19
ENDBRANCH   4  15
TORSDOF 4
ENDMDL
MODEL 9
REMARK VINA RESULT:      -5.0      4.757      6.339
REMARK  4 active torsions:
REMARK  status: ('A' for Active; 'I' for Inactive)
REMARK    1  A    between atoms: C_4  and  N_5 
REMARK       I    between atoms: N_5  and  C_6 
REMARK       I    between atoms: C_6  and  N_8 
REMARK    2  A    between atoms: N_8  and  C_9 
REMARK    3  A    between atoms: C_9  and  C_10 
REMARK    4  A    between atoms: C_9  and  C_13 
ROOT
HETATM    1  N   UNL     1     -43.005 -54.750  15.348  1.00  0.00    -0.308 N 
HETATM    2  C   UNL     1     -43.579 -53.497  15.444  1.00  0.00     0.321 C 
HETATM    3  O   UNL     1     -42.994 -52.458  15.724  1.00  0.00    -0.247 OA
HETATM    4  N   UNL     1     -44.918 -53.512  15.138  1.00  0.00    -0.338 N 
HETATM    5  H   UNL     1     -43.608 -55.486  15.022  1.00  0.00     0.170 HD
HETATM    6  H   UNL     1     -45.429 -54.373  15.235  1.00  0.00     0.164 HD
ENDROOT
BRANCH   1   7
HETATM    7  C   UNL     1     -41.680 -55.074  15.568  1.00  0.00     0.052 A 
HETATM    8  C   UNL     1     -41.247 -55.906  16.531  1.00  0.00     0.123 A 
HETATM    9  N   UNL     1     -39.908 -56.213  16.704  1.00  0.00    -0.327 N 
HETATM   10  C   UNL     1     -39.529 -57.163  17.735  1.00  0.00     0.159 C 
HETATM   11  C   UNL     1     -38.913 -55.691  15.887  1.00  0.00     0.247 A 
HETATM   12  C   UNL     1     -39.380 -54.752  14.831  1.00  0.00     0.077 A 
HETATM   13  O   UNL     1     -37.716 -55.951  15.980  1.00  0.00    -0.268 OA
HETATM   14  C   UNL     1     -40.687 -54.475  14.693  1.00  0.00     0.036 A 
ENDBRANCH   1   7
BRANCH   4  15
HETATM   15  C   UNL     1     -45.683 -52.278  15.174  1.00  0.00     0.094 C 
BRANCH  15  16
HETATM   16  C   UNL     1     -46.540 -52.218  13.935  1.00  0.00     0.009 A 
HETATM   17  C   UNL     1     -45.999 -52.689  12.604  1.00  0.00     0.007 A 
HETATM   18  C   UNL     1     -46.218 -51.224  12.843  1.00  0.00     0.007 A 
ENDBRANCH  15  16
BRANCH  15  19
HETATM   19  C   UNL     1     -46.518 -52.246  16.431  1.00  0.00     0.009 A 
HETATM   20  C   UNL     1     -47.697 -51.310  16.558  1.00  0.00     0.007 A 
HETATM   21  C   UNL     1     -46.454 -51.056  17.360  1.00  0.00     0.007 A 
ENDBRANCH  15  19
ENDBRANCH   4  15
TORSDOF 4
ENDMDL
