MODEL 1
REMARK VINA RESULT:      -7.1      0.000      0.000
REMARK  4 active torsions:
REMARK  status: ('A' for Active; 'I' for Inactive)
REMARK    1  A    between atoms: N_1  and  C_9 
REMARK    2  A    between atoms: N_2  and  C_12 
REMARK    3  A    between atoms: S_6  and  N_8 
REMARK    4  A    between atoms: C_9  and  C_10 
REMARK       I    between atoms: C_10  and  N_11 
ROOT
HETATM    1  N   UNL     1     -45.375 -53.765  14.417  1.00  0.00    -0.255 N 
HETATM    2  N   UNL     1     -46.533 -52.329  15.909  1.00  0.00    -0.279 N 
HETATM    3  C   UNL     1     -45.914 -53.562  15.683  1.00  0.00     0.334 C 
HETATM    4  C   UNL     1     -45.751 -53.010  13.307  1.00  0.00     0.292 C 
HETATM    5  C   UNL     1     -46.586 -51.828  13.602  1.00  0.00     0.200 C 
HETATM    6  C   UNL     1     -46.907 -51.525  14.855  1.00  0.00     0.146 C 
HETATM    7  O   UNL     1     -45.884 -54.424  16.562  1.00  0.00    -0.246 OA
HETATM    8  O   UNL     1     -45.484 -53.304  12.144  1.00  0.00    -0.264 OA
HETATM    9  F   UNL     1     -47.021 -51.099  12.558  1.00  0.00    -0.199 F 
ENDROOT
BRANCH   1  10
HETATM   10  C   UNL     1     -44.603 -54.985  14.180  1.00  0.00     0.240 C 
BRANCH  10  11
HETATM   11  C   UNL     1     -43.248 -55.049  14.923  1.00  0.00     0.238 C 
HETATM   12  N   UNL     1     -42.293 -54.056  14.721  1.00  0.00    -0.348 N 
HETATM   13  C   UNL     1     -42.249 -53.144  13.573  1.00  0.00     0.141 C 
HETATM   14  C   UNL     1     -41.033 -54.125  15.479  1.00  0.00     0.141 C 
HETATM   15  C   UNL     1     -41.726 -51.751  13.953  1.00  0.00     0.127 C 
HETATM   16  N   UNL     1     -40.400 -51.818  14.650  1.00  0.00    -0.208 NA
HETATM   17  C   UNL     1     -40.489 -52.729  15.833  1.00  0.00     0.127 C 
HETATM   18  O   UNL     1     -43.036 -55.967  15.724  1.00  0.00    -0.272 OA
BRANCH  16  19
HETATM   19  S   UNL     1     -39.074 -51.968  13.607  1.00  0.00     0.207 S 
HETATM   20  O   UNL     1     -38.563 -53.314  13.727  1.00  0.00    -0.212 OA
HETATM   21  O   UNL     1     -39.473 -51.440  12.319  1.00  0.00    -0.212 OA
HETATM   22  C   UNL     1     -37.876 -50.845  14.308  1.00  0.00     0.180 C 
ENDBRANCH  16  19
ENDBRANCH  10  11
ENDBRANCH   1  10
BRANCH   2  23
HETATM   23  C   UNL     1     -46.934 -52.035  17.283  1.00  0.00     0.232 C 
HETATM   24  O   UNL     1     -48.272 -51.506  17.354  1.00  0.00    -0.366 OA
HETATM   25  C   UNL     1     -48.323 -50.540  18.416  1.00  0.00     0.170 C 
HETATM   26  C   UNL     1     -46.959 -50.505  19.070  1.00  0.00     0.031 C 
HETATM   27  C   UNL     1     -46.061 -50.980  17.958  1.00  0.00     0.056 C 
ENDBRANCH   2  23
TORSDOF 4
ENDMDL
MODEL 2
REMARK VINA RESULT:      -6.7      4.219      6.234
REMARK  4 active torsions:
REMARK  status: ('A' for Active; 'I' for Inactive)
REMARK    1  A    between atoms: N_1  and  C_9 
REMARK    2  A    between atoms: N_2  and  C_12 
REMARK    3  A    between atoms: S_6  and  N_8 
REMARK    4  A    between atoms: C_9  and  C_10 
REMARK       I    between atoms: C_10  and  N_11 
ROOT
HETATM    1  N   UNL     1     -41.035 -52.473  12.935  1.00  0.00    -0.255 N 
HETATM    2  N   UNL     1     -42.930 -53.456  13.970  1.00  0.00    -0.279 N 
HETATM    3  C   UNL     1     -42.387 -52.386  13.254  1.00  0.00     0.334 C 
HETATM    4  C   UNL     1     -40.157 -53.327  13.600  1.00  0.00     0.292 C 
HETATM    5  C   UNL     1     -40.793 -54.302  14.509  1.00  0.00     0.200 C 
HETATM    6  C   UNL     1     -42.115 -54.349  14.629  1.00  0.00     0.146 C 
HETATM    7  O   UNL     1     -43.076 -51.411  12.954  1.00  0.00    -0.246 OA
HETATM    8  O   UNL     1     -38.932 -53.266  13.518  1.00  0.00    -0.264 OA
HETATM    9  F   UNL     1     -39.983 -55.112  15.217  1.00  0.00    -0.199 F 
ENDROOT
BRANCH   1  10
HETATM   10  C   UNL     1     -40.458 -51.440  12.073  1.00  0.00     0.240 C 
BRANCH  10  11
HETATM   11  C   UNL     1     -40.230 -50.075  12.763  1.00  0.00     0.238 C 
HETATM   12  N   UNL     1     -40.904 -48.943  12.312  1.00  0.00    -0.348 N 
HETATM   13  C   UNL     1     -41.521 -48.795  10.990  1.00  0.00     0.141 C 
HETATM   14  C   UNL     1     -40.696 -47.670  13.021  1.00  0.00     0.141 C 
HETATM   15  C   UNL     1     -42.797 -47.942  11.032  1.00  0.00     0.127 C 
HETATM   16  N   UNL     1     -42.564 -46.610  11.679  1.00  0.00    -0.208 NA
HETATM   17  C   UNL     1     -41.965 -46.799  13.037  1.00  0.00     0.127 C 
HETATM   18  O   UNL     1     -39.474 -50.006  13.739  1.00  0.00    -0.272 OA
BRANCH  16  19
HETATM   19  S   UNL     1     -41.890 -45.446  10.649  1.00  0.00     0.207 S 
HETATM   20  O   UNL     1     -40.453 -45.526  10.767  1.00  0.00    -0.212 OA
HETATM   21  O   UNL     1     -42.535 -45.583   9.360  1.00  0.00    -0.212 OA
HETATM   22  C   UNL     1     -42.431 -43.905  11.368  1.00  0.00     0.180 C 
ENDBRANCH  16  19
ENDBRANCH  10  11
ENDBRANCH   1  10
BRANCH   2  23
HETATM   23  C   UNL     1     -44.381 -53.462  14.144  1.00  0.00     0.232 C 
HETATM   24  O   UNL     1     -44.761 -53.230  15.514  1.00  0.00    -0.366 OA
HETATM   25  C   UNL     1     -45.939 -54.002  15.796  1.00  0.00     0.170 C 
HETATM   26  C   UNL     1     -46.340 -54.709  14.520  1.00  0.00     0.031 C 
HETATM   27  C   UNL     1     -45.031 -54.794  13.779  1.00  0.00     0.056 C 
ENDBRANCH   2  23
TORSDOF 4
ENDMDL
MODEL 3
REMARK VINA RESULT:      -6.6      5.167      7.010
REMARK  4 active torsions:
REMARK  status: ('A' for Active; 'I' for Inactive)
REMARK    1  A    between atoms: N_1  and  C_9 
REMARK    2  A    between atoms: N_2  and  C_12 
REMARK    3  A    between atoms: S_6  and  N_8 
REMARK    4  A    between atoms: C_9  and  C_10 
REMARK       I    between atoms: C_10  and  N_11 
ROOT
HETATM    1  N   UNL     1     -41.232 -50.518  12.156  1.00  0.00    -0.255 N 
HETATM    2  N   UNL     1     -43.163 -51.113  13.399  1.00  0.00    -0.279 N 
HETATM    3  C   UNL     1     -42.462 -50.138  12.684  1.00  0.00     0.334 C 
HETATM    4  C   UNL     1     -40.524 -51.627  12.616  1.00  0.00     0.292 C 
HETATM    5  C   UNL     1     -41.264 -52.508  13.541  1.00  0.00     0.200 C 
HETATM    6  C   UNL     1     -42.526 -52.242  13.861  1.00  0.00     0.146 C 
HETATM    7  O   UNL     1     -42.911 -48.997  12.564  1.00  0.00    -0.246 OA
HETATM    8  O   UNL     1     -39.347 -51.858  12.350  1.00  0.00    -0.264 OA
HETATM    9  F   UNL     1     -40.604 -53.562  14.058  1.00  0.00    -0.199 F 
ENDROOT
BRANCH   1  10
HETATM   10  C   UNL     1     -40.528 -49.572  11.289  1.00  0.00     0.240 C 
BRANCH  10  11
HETATM   11  C   UNL     1     -39.834 -48.407  12.033  1.00  0.00     0.238 C 
HETATM   12  N   UNL     1     -40.357 -47.119  11.957  1.00  0.00    -0.348 N 
HETATM   13  C   UNL     1     -41.280 -46.639  10.923  1.00  0.00     0.141 C 
HETATM   14  C   UNL     1     -39.694 -46.044  12.714  1.00  0.00     0.141 C 
HETATM   15  C   UNL     1     -42.284 -45.613  11.468  1.00  0.00     0.127 C 
HETATM   16  N   UNL     1     -41.603 -44.473  12.165  1.00  0.00    -0.208 NA
HETATM   17  C   UNL     1     -40.695 -44.996  13.233  1.00  0.00     0.127 C 
HETATM   18  O   UNL     1     -38.834 -48.637  12.723  1.00  0.00    -0.272 OA
BRANCH  16  19
HETATM   19  S   UNL     1     -41.025 -43.268  11.125  1.00  0.00     0.207 S 
HETATM   20  O   UNL     1     -40.025 -43.863  10.268  1.00  0.00    -0.212 OA
HETATM   21  O   UNL     1     -42.174 -42.592  10.562  1.00  0.00    -0.212 OA
HETATM   22  C   UNL     1     -40.212 -42.129  12.234  1.00  0.00     0.180 C 
ENDBRANCH  16  19
ENDBRANCH  10  11
ENDBRANCH   1  10
BRANCH   2  23
HETATM   23  C   UNL     1     -44.531 -50.783  13.795  1.00  0.00     0.232 C 
HETATM   24  O   UNL     1     -44.717 -50.870  15.221  1.00  0.00    -0.366 OA
HETATM   25  C   UNL     1     -46.047 -51.347  15.477  1.00  0.00     0.170 C 
HETATM   26  C   UNL     1     -46.739 -51.516  14.143  1.00  0.00     0.031 C 
HETATM   27  C   UNL     1     -45.578 -51.725  13.207  1.00  0.00     0.056 C 
ENDBRANCH   2  23
TORSDOF 4
ENDMDL
MODEL 4
REMARK VINA RESULT:      -6.6      3.974      7.596
REMARK  4 active torsions:
REMARK  status: ('A' for Active; 'I' for Inactive)
REMARK    1  A    between atoms: N_1  and  C_9 
REMARK    2  A    between atoms: N_2  and  C_12 
REMARK    3  A    between atoms: S_6  and  N_8 
REMARK    4  A    between atoms: C_9  and  C_10 
REMARK       I    between atoms: C_10  and  N_11 
ROOT
HETATM    1  N   UNL     1     -39.187 -50.606  13.289  1.00  0.00    -0.255 N 
HETATM    2  N   UNL     1     -39.754 -48.586  12.180  1.00  0.00    -0.279 N 
HETATM    3  C   UNL     1     -40.152 -49.647  12.999  1.00  0.00     0.334 C 
HETATM    4  C   UNL     1     -38.032 -50.768  12.525  1.00  0.00     0.292 C 
HETATM    5  C   UNL     1     -37.783 -49.709  11.527  1.00  0.00     0.200 C 
HETATM    6  C   UNL     1     -38.610 -48.675  11.420  1.00  0.00     0.146 C 
HETATM    7  O   UNL     1     -41.311 -49.728  13.409  1.00  0.00    -0.246 OA
HETATM    8  O   UNL     1     -37.282 -51.739  12.598  1.00  0.00    -0.264 OA
HETATM    9  F   UNL     1     -36.709 -49.849  10.726  1.00  0.00    -0.199 F 
ENDROOT
BRANCH   1  10
HETATM   10  C   UNL     1     -39.523 -51.659  14.248  1.00  0.00     0.240 C 
BRANCH  10  11
HETATM   11  C   UNL     1     -40.302 -52.854  13.650  1.00  0.00     0.238 C 
HETATM   12  N   UNL     1     -41.658 -53.011  13.923  1.00  0.00    -0.348 N 
HETATM   13  C   UNL     1     -42.373 -52.394  15.045  1.00  0.00     0.141 C 
HETATM   14  C   UNL     1     -42.377 -54.135  13.301  1.00  0.00     0.141 C 
HETATM   15  C   UNL     1     -43.819 -52.026  14.685  1.00  0.00     0.127 C 
HETATM   16  N   UNL     1     -44.577 -53.195  14.130  1.00  0.00    -0.208 NA
HETATM   17  C   UNL     1     -43.837 -53.779  12.968  1.00  0.00     0.127 C 
HETATM   18  O   UNL     1     -39.718 -53.646  12.900  1.00  0.00    -0.272 OA
BRANCH  16  19
HETATM   19  S   UNL     1     -45.198 -54.242  15.307  1.00  0.00     0.207 S 
HETATM   20  O   UNL     1     -46.311 -54.957  14.725  1.00  0.00    -0.212 OA
HETATM   21  O   UNL     1     -44.080 -54.958  15.885  1.00  0.00    -0.212 OA
HETATM   22  C   UNL     1     -45.832 -53.128  16.550  1.00  0.00     0.180 C 
ENDBRANCH  16  19
ENDBRANCH  10  11
ENDBRANCH   1  10
BRANCH   2  23
HETATM   23  C   UNL     1     -40.699 -47.483  12.026  1.00  0.00     0.232 C 
HETATM   24  O   UNL     1     -41.196 -47.382  10.677  1.00  0.00    -0.366 OA
HETATM   25  C   UNL     1     -41.389 -45.993  10.366  1.00  0.00     0.170 C 
HETATM   26  C   UNL     1     -41.044 -45.194  11.604  1.00  0.00     0.031 C 
HETATM   27  C   UNL     1     -40.091 -46.115  12.320  1.00  0.00     0.056 C 
ENDBRANCH   2  23
TORSDOF 4
ENDMDL
MODEL 5
REMARK VINA RESULT:      -6.4      4.287      7.484
REMARK  4 active torsions:
REMARK  status: ('A' for Active; 'I' for Inactive)
REMARK    1  A    between atoms: N_1  and  C_9 
REMARK    2  A    between atoms: N_2  and  C_12 
REMARK    3  A    between atoms: S_6  and  N_8 
REMARK    4  A    between atoms: C_9  and  C_10 
REMARK       I    between atoms: C_10  and  N_11 
ROOT
HETATM    1  N   UNL     1     -38.919 -49.303  12.929  1.00  0.00    -0.255 N 
HETATM    2  N   UNL     1     -40.482 -47.920  11.801  1.00  0.00    -0.279 N 
HETATM    3  C   UNL     1     -39.806 -49.141  11.869  1.00  0.00     0.334 C 
HETATM    4  C   UNL     1     -38.401 -48.228  13.650  1.00  0.00     0.292 C 
HETATM    5  C   UNL     1     -39.028 -46.921  13.370  1.00  0.00     0.200 C 
HETATM    6  C   UNL     1     -40.035 -46.827  12.508  1.00  0.00     0.146 C 
HETATM    7  O   UNL     1     -39.976 -50.007  11.009  1.00  0.00    -0.246 OA
HETATM    8  O   UNL     1     -37.449 -48.305  14.423  1.00  0.00    -0.264 OA
HETATM    9  F   UNL     1     -38.525 -45.843  14.000  1.00  0.00    -0.199 F 
ENDROOT
BRANCH   1  10
HETATM   10  C   UNL     1     -38.291 -50.612  13.114  1.00  0.00     0.240 C 
BRANCH  10  11
HETATM   11  C   UNL     1     -38.774 -51.391  14.359  1.00  0.00     0.238 C 
HETATM   12  N   UNL     1     -39.794 -52.332  14.244  1.00  0.00    -0.348 N 
HETATM   13  C   UNL     1     -40.760 -52.403  13.142  1.00  0.00     0.141 C 
HETATM   14  C   UNL     1     -40.196 -53.086  15.443  1.00  0.00     0.141 C 
HETATM   15  C   UNL     1     -41.160 -53.847  12.809  1.00  0.00     0.127 C 
HETATM   16  N   UNL     1     -41.651 -54.589  14.016  1.00  0.00    -0.208 NA
HETATM   17  C   UNL     1     -40.630 -54.524  15.107  1.00  0.00     0.127 C 
HETATM   18  O   UNL     1     -38.222 -51.197  15.449  1.00  0.00    -0.272 OA
BRANCH  16  19
HETATM   19  S   UNL     1     -43.273 -54.290  14.403  1.00  0.00     0.207 S 
HETATM   20  O   UNL     1     -43.844 -55.517  14.909  1.00  0.00    -0.212 OA
HETATM   21  O   UNL     1     -43.315 -53.075  15.189  1.00  0.00    -0.212 OA
HETATM   22  C   UNL     1     -44.011 -53.937  12.816  1.00  0.00     0.180 C 
ENDBRANCH  16  19
ENDBRANCH  10  11
ENDBRANCH   1  10
BRANCH   2  23
HETATM   23  C   UNL     1     -41.547 -47.813  10.807  1.00  0.00     0.232 C 
HETATM   24  O   UNL     1     -41.643 -46.484  10.258  1.00  0.00    -0.366 OA
HETATM   25  C   UNL     1     -43.026 -46.197   9.999  1.00  0.00     0.170 C 
HETATM   26  C   UNL     1     -43.825 -47.431  10.357  1.00  0.00     0.031 C 
HETATM   27  C   UNL     1     -42.936 -48.101  11.371  1.00  0.00     0.056 C 
ENDBRANCH   2  23
TORSDOF 4
ENDMDL
MODEL 6
REMARK VINA RESULT:      -6.2      4.025      5.192
REMARK  4 active torsions:
REMARK  status: ('A' for Active; 'I' for Inactive)
REMARK    1  A    between atoms: N_1  and  C_9 
REMARK    2  A    between atoms: N_2  and  C_12 
REMARK    3  A    between atoms: S_6  and  N_8 
REMARK    4  A    between atoms: C_9  and  C_10 
REMARK       I    between atoms: C_10  and  N_11 
ROOT
HETATM    1  N   UNL     1     -42.735 -52.302  13.290  1.00  0.00    -0.255 N 
HETATM    2  N   UNL     1     -44.297 -52.307  15.076  1.00  0.00    -0.279 N 
HETATM    3  C   UNL     1     -43.592 -51.578  14.114  1.00  0.00     0.334 C 
HETATM    4  C   UNL     1     -42.267 -53.573  13.619  1.00  0.00     0.292 C 
HETATM    5  C   UNL     1     -42.919 -54.202  14.785  1.00  0.00     0.200 C 
HETATM    6  C   UNL     1     -43.900 -53.577  15.428  1.00  0.00     0.146 C 
HETATM    7  O   UNL     1     -43.712 -50.355  14.034  1.00  0.00    -0.246 OA
HETATM    8  O   UNL     1     -41.339 -54.141  13.048  1.00  0.00    -0.264 OA
HETATM    9  F   UNL     1     -42.464 -55.407  15.177  1.00  0.00    -0.199 F 
ENDROOT
BRANCH   1  10
HETATM   10  C   UNL     1     -42.080 -51.600  12.185  1.00  0.00     0.240 C 
BRANCH  10  11
HETATM   11  C   UNL     1     -41.018 -50.562  12.616  1.00  0.00     0.238 C 
HETATM   12  N   UNL     1     -41.207 -49.211  12.335  1.00  0.00    -0.348 N 
HETATM   13  C   UNL     1     -42.117 -48.678  11.316  1.00  0.00     0.141 C 
HETATM   14  C   UNL     1     -40.197 -48.246  12.800  1.00  0.00     0.141 C 
HETATM   15  C   UNL     1     -42.746 -47.341  11.736  1.00  0.00     0.127 C 
HETATM   16  N   UNL     1     -41.710 -46.330  12.128  1.00  0.00    -0.208 NA
HETATM   17  C   UNL     1     -40.821 -46.895  13.191  1.00  0.00     0.127 C 
HETATM   18  O   UNL     1     -40.021 -50.937  13.243  1.00  0.00    -0.272 OA
BRANCH  16  19
HETATM   19  S   UNL     1     -41.001 -45.519  10.821  1.00  0.00     0.207 S 
HETATM   20  O   UNL     1     -39.702 -46.106  10.585  1.00  0.00    -0.212 OA
HETATM   21  O   UNL     1     -41.987 -45.455   9.763  1.00  0.00    -0.212 OA
HETATM   22  C   UNL     1     -40.767 -43.864  11.448  1.00  0.00     0.180 C 
ENDBRANCH  16  19
ENDBRANCH  10  11
ENDBRANCH   1  10
BRANCH   2  23
HETATM   23  C   UNL     1     -45.332 -51.590  15.816  1.00  0.00     0.232 C 
HETATM   24  O   UNL     1     -45.514 -52.120  17.143  1.00  0.00    -0.366 OA
HETATM   25  C   UNL     1     -46.906 -52.025  17.484  1.00  0.00     0.170 C 
HETATM   26  C   UNL     1     -47.616 -51.354  16.329  1.00  0.00     0.031 C 
HETATM   27  C   UNL     1     -46.712 -51.677  15.169  1.00  0.00     0.056 C 
ENDBRANCH   2  23
TORSDOF 4
ENDMDL
MODEL 7
REMARK VINA RESULT:      -6.1      2.508      3.276
REMARK  4 active torsions:
REMARK  status: ('A' for Active; 'I' for Inactive)
REMARK    1  A    between atoms: N_1  and  C_9 
REMARK    2  A    between atoms: N_2  and  C_12 
REMARK    3  A    between atoms: S_6  and  N_8 
REMARK    4  A    between atoms: C_9  and  C_10 
REMARK       I    between atoms: C_10  and  N_11 
ROOT
HETATM    1  N   UNL     1     -44.920 -53.469  14.359  1.00  0.00    -0.255 N 
HETATM    2  N   UNL     1     -46.286 -52.058  15.690  1.00  0.00    -0.279 N 
HETATM    3  C   UNL     1     -45.478 -53.195  15.604  1.00  0.00     0.334 C 
HETATM    4  C   UNL     1     -45.419 -52.931  13.174  1.00  0.00     0.292 C 
HETATM    5  C   UNL     1     -46.432 -51.870  13.342  1.00  0.00     0.200 C 
HETATM    6  C   UNL     1     -46.791 -51.465  14.555  1.00  0.00     0.146 C 
HETATM    7  O   UNL     1     -45.304 -53.923  16.583  1.00  0.00    -0.246 OA
HETATM    8  O   UNL     1     -45.115 -53.324  12.050  1.00  0.00    -0.264 OA
HETATM    9  F   UNL     1     -46.986 -51.357  12.227  1.00  0.00    -0.199 F 
ENDROOT
BRANCH   1  10
HETATM   10  C   UNL     1     -43.963 -54.572  14.256  1.00  0.00     0.240 C 
BRANCH  10  11
HETATM   11  C   UNL     1     -42.481 -54.157  14.402  1.00  0.00     0.238 C 
HETATM   12  N   UNL     1     -41.679 -54.756  15.370  1.00  0.00    -0.348 N 
HETATM   13  C   UNL     1     -42.170 -55.467  16.555  1.00  0.00     0.141 C 
HETATM   14  C   UNL     1     -40.261 -54.368  15.449  1.00  0.00     0.141 C 
HETATM   15  C   UNL     1     -41.270 -56.648  16.943  1.00  0.00     0.127 C 
HETATM   16  N   UNL     1     -39.838 -56.235  17.108  1.00  0.00    -0.208 NA
HETATM   17  C   UNL     1     -39.360 -55.543  15.870  1.00  0.00     0.127 C 
HETATM   18  O   UNL     1     -42.006 -53.317  13.628  1.00  0.00    -0.272 OA
BRANCH  16  19
HETATM   19  S   UNL     1     -39.482 -55.544  18.613  1.00  0.00     0.207 S 
HETATM   20  O   UNL     1     -38.097 -55.821  18.915  1.00  0.00    -0.212 OA
HETATM   21  O   UNL     1     -39.977 -54.184  18.594  1.00  0.00    -0.212 OA
HETATM   22  C   UNL     1     -40.503 -56.479  19.741  1.00  0.00     0.180 C 
ENDBRANCH  16  19
ENDBRANCH  10  11
ENDBRANCH   1  10
BRANCH   2  23
HETATM   23  C   UNL     1     -46.720 -51.660  17.027  1.00  0.00     0.232 C 
HETATM   24  O   UNL     1     -48.145 -51.454  17.094  1.00  0.00    -0.366 OA
HETATM   25  C   UNL     1     -48.407 -50.376  18.006  1.00  0.00     0.170 C 
HETATM   26  C   UNL     1     -47.080 -49.923  18.573  1.00  0.00     0.031 C 
HETATM   27  C   UNL     1     -46.115 -50.339  17.495  1.00  0.00     0.056 C 
ENDBRANCH   2  23
TORSDOF 4
ENDMDL
MODEL 8
REMARK VINA RESULT:      -6.1      3.030      7.233
REMARK  4 active torsions:
REMARK  status: ('A' for Active; 'I' for Inactive)
REMARK    1  A    between atoms: N_1  and  C_9 
REMARK    2  A    between atoms: N_2  and  C_12 
REMARK    3  A    between atoms: S_6  and  N_8 
REMARK    4  A    between atoms: C_9  and  C_10 
REMARK       I    between atoms: C_10  and  N_11 
ROOT
HETATM    1  N   UNL     1     -43.736 -54.193  14.043  1.00  0.00    -0.255 N 
HETATM    2  N   UNL     1     -41.842 -53.029  13.213  1.00  0.00    -0.279 N 
HETATM    3  C   UNL     1     -43.176 -53.409  13.039  1.00  0.00     0.334 C 
HETATM    4  C   UNL     1     -42.965 -54.911  14.957  1.00  0.00     0.292 C 
HETATM    5  C   UNL     1     -41.521 -54.606  14.940  1.00  0.00     0.200 C 
HETATM    6  C   UNL     1     -41.035 -53.683  14.117  1.00  0.00     0.146 C 
HETATM    7  O   UNL     1     -43.799 -53.082  12.028  1.00  0.00    -0.246 OA
HETATM    8  O   UNL     1     -43.404 -55.789  15.696  1.00  0.00    -0.264 OA
HETATM    9  F   UNL     1     -40.727 -55.314  15.765  1.00  0.00    -0.199 F 
ENDROOT
BRANCH   1  10
HETATM   10  C   UNL     1     -45.164 -54.500  13.966  1.00  0.00     0.240 C 
BRANCH  10  11
HETATM   11  C   UNL     1     -46.100 -53.323  14.326  1.00  0.00     0.238 C 
HETATM   12  N   UNL     1     -46.262 -52.940  15.655  1.00  0.00    -0.348 N 
HETATM   13  C   UNL     1     -45.955 -53.775  16.821  1.00  0.00     0.141 C 
HETATM   14  C   UNL     1     -47.126 -51.786  15.956  1.00  0.00     0.141 C 
HETATM   15  C   UNL     1     -45.429 -52.954  18.007  1.00  0.00     0.127 C 
HETATM   16  N   UNL     1     -46.354 -51.829  18.367  1.00  0.00    -0.208 NA
HETATM   17  C   UNL     1     -46.619 -50.980  17.165  1.00  0.00     0.127 C 
HETATM   18  O   UNL     1     -46.673 -52.704  13.422  1.00  0.00    -0.272 OA
BRANCH  16  19
HETATM   19  S   UNL     1     -47.661 -52.290  19.341  1.00  0.00     0.207 S 
HETATM   20  O   UNL     1     -48.876 -51.855  18.690  1.00  0.00    -0.212 OA
HETATM   21  O   UNL     1     -47.469 -53.680  19.696  1.00  0.00    -0.212 OA
HETATM   22  C   UNL     1     -47.432 -51.314  20.818  1.00  0.00     0.180 C 
ENDBRANCH  16  19
ENDBRANCH  10  11
ENDBRANCH   1  10
BRANCH   2  23
HETATM   23  C   UNL     1     -41.306 -52.056  12.264  1.00  0.00     0.232 C 
HETATM   24  O   UNL     1     -39.868 -51.986  12.316  1.00  0.00    -0.366 OA
HETATM   25  C   UNL     1     -39.470 -50.627  12.078  1.00  0.00     0.170 C 
HETATM   26  C   UNL     1     -40.723 -49.822  11.813  1.00  0.00     0.031 C 
HETATM   27  C   UNL     1     -41.775 -50.627  12.528  1.00  0.00     0.056 C 
ENDBRANCH   2  23
TORSDOF 4
ENDMDL
MODEL 9
REMARK VINA RESULT:      -6.1      4.131      7.706
REMARK  4 active torsions:
REMARK  status: ('A' for Active; 'I' for Inactive)
REMARK    1  A    between atoms: N_1  and  C_9 
REMARK    2  A    between atoms: N_2  and  C_12 
REMARK    3  A    between atoms: S_6  and  N_8 
REMARK    4  A    between atoms: C_9  and  C_10 
REMARK       I    between atoms: C_10  and  N_11 
ROOT
HETATM    1  N   UNL     1     -39.529 -50.403  13.086  1.00  0.00    -0.255 N 
HETATM    2  N   UNL     1     -39.946 -48.223  12.247  1.00  0.00    -0.279 N 
HETATM    3  C   UNL     1     -40.173 -49.599  12.150  1.00  0.00     0.334 C 
HETATM    4  C   UNL     1     -38.421 -49.972  13.815  1.00  0.00     0.292 C 
HETATM    5  C   UNL     1     -38.114 -48.532  13.702  1.00  0.00     0.200 C 
HETATM    6  C   UNL     1     -38.884 -47.733  12.972  1.00  0.00     0.146 C 
HETATM    7  O   UNL     1     -40.884 -50.061  11.258  1.00  0.00    -0.246 OA
HETATM    8  O   UNL     1     -37.688 -50.713  14.465  1.00  0.00    -0.264 OA
HETATM    9  F   UNL     1     -37.020 -48.078  14.343  1.00  0.00    -0.199 F 
ENDROOT
BRANCH   1  10
HETATM   10  C   UNL     1     -39.842 -51.832  13.104  1.00  0.00     0.240 C 
BRANCH  10  11
HETATM   11  C   UNL     1     -40.741 -52.282  14.280  1.00  0.00     0.238 C 
HETATM   12  N   UNL     1     -42.083 -52.577  14.060  1.00  0.00    -0.348 N 
HETATM   13  C   UNL     1     -42.871 -52.131  12.905  1.00  0.00     0.141 C 
HETATM   14  C   UNL     1     -42.897 -53.045  15.194  1.00  0.00     0.141 C 
HETATM   15  C   UNL     1     -43.917 -53.170  12.475  1.00  0.00     0.127 C 
HETATM   16  N   UNL     1     -44.801 -53.583  13.614  1.00  0.00    -0.208 NA
HETATM   17  C   UNL     1     -43.968 -54.062  14.761  1.00  0.00     0.127 C 
HETATM   18  O   UNL     1     -40.247 -52.412  15.406  1.00  0.00    -0.272 OA
BRANCH  16  19
HETATM   19  S   UNL     1     -46.077 -52.513  13.927  1.00  0.00     0.207 S 
HETATM   20  O   UNL     1     -47.147 -53.264  14.541  1.00  0.00    -0.212 OA
HETATM   21  O   UNL     1     -45.517 -51.351  14.584  1.00  0.00    -0.212 OA
HETATM   22  C   UNL     1     -46.601 -52.016  12.294  1.00  0.00     0.180 C 
ENDBRANCH  16  19
ENDBRANCH  10  11
ENDBRANCH   1  10
BRANCH   2  23
HETATM   23  C   UNL     1     -40.761 -47.361  11.394  1.00  0.00     0.232 C 
HETATM   24  O   UNL     1     -39.969 -46.363  10.720  1.00  0.00    -0.366 OA
HETATM   25  C   UNL     1     -40.747 -45.161  10.612  1.00  0.00     0.170 C 
HETATM   26  C   UNL     1     -42.111 -45.443  11.203  1.00  0.00     0.031 C 
HETATM   27  C   UNL     1     -41.815 -46.567  12.160  1.00  0.00     0.056 C 
ENDBRANCH   2  23
TORSDOF 4
ENDMDL
