MODEL 1
REMARK VINA RESULT:      -6.4      0.000      0.000
REMARK  5 active torsions:
REMARK  status: ('A' for Active; 'I' for Inactive)
REMARK    1  A    between atoms: C_2  and  C_3 
REMARK    2  A    between atoms: C_2  and  N_5 
REMARK    3  A    between atoms: C_2  and  C_16 
REMARK    4  A    between atoms: C_3  and  O_4 
REMARK       I    between atoms: N_5  and  C_6 
REMARK       I    between atoms: C_6  and  N_8 
REMARK    5  A    between atoms: N_8  and  C_9 
ROOT
HETATM    1  N   UNL     1     -40.785 -49.985  11.192  1.00  0.00    -0.332 N 
HETATM    2  C   UNL     1     -41.794 -49.052  11.126  1.00  0.00     0.321 C 
HETATM    3  O   UNL     1     -42.694 -48.952  11.951  1.00  0.00    -0.247 OA
HETATM    4  N   UNL     1     -41.628 -48.225  10.031  1.00  0.00    -0.309 N 
HETATM    5  H   UNL     1     -40.474 -50.310  10.288  1.00  0.00     0.165 HD
HETATM    6  H   UNL     1     -40.654 -48.000   9.872  1.00  0.00     0.170 HD
ENDROOT
BRANCH   1   7
HETATM    7  C   UNL     1     -40.588 -50.904  12.347  1.00  0.00     0.055 C 
HETATM    8  C   UNL     1     -41.257 -50.214  13.552  1.00  0.00     0.041 C 
BRANCH   7   9
HETATM    9  C   UNL     1     -41.380 -52.234  12.078  1.00  0.00     0.195 C 
BRANCH   9  10
HETATM   10  O   UNL     1     -40.603 -53.197  11.354  1.00  0.00    -0.398 OA
HETATM   11  H   UNL     1     -41.206 -53.899  11.056  1.00  0.00     0.209 HD
ENDBRANCH   9  10
ENDBRANCH   7   9
BRANCH   7  12
HETATM   12  C   UNL     1     -39.047 -51.220  12.550  1.00  0.00     0.015 C 
HETATM   13  C   UNL     1     -38.616 -51.799  13.914  1.00  0.00     0.007 C 
HETATM   14  C   UNL     1     -38.348 -50.768  15.002  1.00  0.00     0.000 C 
HETATM   15  C   UNL     1     -37.413 -49.658  14.542  1.00  0.00     0.000 C 
HETATM   16  C   UNL     1     -37.827 -49.039  13.215  1.00  0.00     0.000 C 
HETATM   17  C   UNL     1     -38.079 -50.089  12.140  1.00  0.00     0.007 C 
ENDBRANCH   7  12
ENDBRANCH   1   7
BRANCH   4  18
HETATM   18  C   UNL     1     -42.573 -47.223   9.730  1.00  0.00     0.038 A 
HETATM   19  C   UNL     1     -42.334 -45.921  10.153  1.00  0.00     0.046 A 
HETATM   20  C   UNL     1     -43.312 -44.973   9.910  1.00  0.00     0.090 A 
HETATM   21  N   UNL     1     -44.457 -45.224   9.238  1.00  0.00    -0.375 N 
HETATM   22  C   UNL     1     -44.642 -46.490   8.808  1.00  0.00     0.090 A 
ATOM     23  HN  UNL     1     -45.147 -44.493   9.065  1.00  0.00     0.164 HD
HETATM   24  C   UNL     1     -43.742 -47.516   9.030  1.00  0.00     0.046 A 
ENDBRANCH   4  18
TORSDOF 5
ENDMDL
MODEL 2
REMARK VINA RESULT:      -6.3      3.497      6.213
REMARK  5 active torsions:
REMARK  status: ('A' for Active; 'I' for Inactive)
REMARK    1  A    between atoms: C_2  and  C_3 
REMARK    2  A    between atoms: C_2  and  N_5 
REMARK    3  A    between atoms: C_2  and  C_16 
REMARK    4  A    between atoms: C_3  and  O_4 
REMARK       I    between atoms: N_5  and  C_6 
REMARK       I    between atoms: C_6  and  N_8 
REMARK    5  A    between atoms: N_8  and  C_9 
ROOT
HETATM    1  N   UNL     1     -42.074 -50.776  12.102  1.00  0.00    -0.332 N 
HETATM    2  C   UNL     1     -42.930 -51.378  12.993  1.00  0.00     0.321 C 
HETATM    3  O   UNL     1     -42.927 -51.169  14.201  1.00  0.00    -0.247 OA
HETATM    4  N   UNL     1     -43.815 -52.214  12.337  1.00  0.00    -0.309 N 
HETATM    5  H   UNL     1     -41.813 -51.369  11.327  1.00  0.00     0.165 HD
HETATM    6  H   UNL     1     -44.119 -51.824  11.455  1.00  0.00     0.170 HD
ENDROOT
BRANCH   1   7
HETATM    7  C   UNL     1     -41.123 -49.693  12.477  1.00  0.00     0.055 C 
HETATM    8  C   UNL     1     -40.447 -50.160  13.781  1.00  0.00     0.041 C 
BRANCH   7   9
HETATM    9  C   UNL     1     -40.001 -49.602  11.381  1.00  0.00     0.195 C 
BRANCH   9  10
HETATM   10  O   UNL     1     -40.467 -50.002  10.086  1.00  0.00    -0.398 OA
HETATM   11  H   UNL     1     -39.839 -50.656   9.736  1.00  0.00     0.209 HD
ENDBRANCH   9  10
ENDBRANCH   7   9
BRANCH   7  12
HETATM   12  C   UNL     1     -41.880 -48.304  12.597  1.00  0.00     0.015 C 
HETATM   13  C   UNL     1     -43.151 -48.114  11.743  1.00  0.00     0.007 C 
HETATM   14  C   UNL     1     -42.911 -47.640  10.316  1.00  0.00     0.000 C 
HETATM   15  C   UNL     1     -42.001 -46.421  10.247  1.00  0.00     0.000 C 
HETATM   16  C   UNL     1     -40.719 -46.586  11.051  1.00  0.00     0.000 C 
HETATM   17  C   UNL     1     -40.985 -47.050  12.477  1.00  0.00     0.007 C 
ENDBRANCH   7  12
ENDBRANCH   1   7
BRANCH   4  18
HETATM   18  C   UNL     1     -44.756 -52.981  13.055  1.00  0.00     0.038 A 
HETATM   19  C   UNL     1     -44.546 -54.347  13.197  1.00  0.00     0.046 A 
HETATM   20  C   UNL     1     -45.523 -55.086  13.841  1.00  0.00     0.090 A 
HETATM   21  N   UNL     1     -46.637 -54.553  14.389  1.00  0.00    -0.375 N 
HETATM   22  C   UNL     1     -46.792 -53.217  14.266  1.00  0.00     0.090 A 
ATOM     23  HN  UNL     1     -47.326 -55.131  14.870  1.00  0.00     0.164 HD
HETATM   24  C   UNL     1     -45.892 -52.396  13.612  1.00  0.00     0.046 A 
ENDBRANCH   4  18
TORSDOF 5
ENDMDL
MODEL 3
REMARK VINA RESULT:      -6.2      3.548      5.764
REMARK  5 active torsions:
REMARK  status: ('A' for Active; 'I' for Inactive)
REMARK    1  A    between atoms: C_2  and  C_3 
REMARK    2  A    between atoms: C_2  and  N_5 
REMARK    3  A    between atoms: C_2  and  C_16 
REMARK    4  A    between atoms: C_3  and  O_4 
REMARK       I    between atoms: N_5  and  C_6 
REMARK       I    between atoms: C_6  and  N_8 
REMARK    5  A    between atoms: N_8  and  C_9 
ROOT
HETATM    1  N   UNL     1     -39.946 -51.618  12.305  1.00  0.00    -0.332 N 
HETATM    2  C   UNL     1     -41.114 -51.966  12.942  1.00  0.00     0.321 C 
HETATM    3  O   UNL     1     -41.706 -51.246  13.737  1.00  0.00    -0.247 OA
HETATM    4  N   UNL     1     -41.544 -53.215  12.532  1.00  0.00    -0.309 N 
HETATM    5  H   UNL     1     -39.325 -52.398  12.143  1.00  0.00     0.165 HD
HETATM    6  H   UNL     1     -41.387 -53.363  11.544  1.00  0.00     0.170 HD
ENDROOT
BRANCH   1   7
HETATM    7  C   UNL     1     -39.326 -50.268  12.402  1.00  0.00     0.055 C 
HETATM    8  C   UNL     1     -37.895 -50.421  11.850  1.00  0.00     0.041 C 
BRANCH   7   9
HETATM    9  C   UNL     1     -40.091 -49.290  11.438  1.00  0.00     0.195 C 
BRANCH   9  10
HETATM   10  O   UNL     1     -40.426 -49.905  10.187  1.00  0.00    -0.398 OA
HETATM   11  H   UNL     1     -40.519 -49.197   9.527  1.00  0.00     0.209 HD
ENDBRANCH   9  10
ENDBRANCH   7   9
BRANCH   7  12
HETATM   12  C   UNL     1     -39.396 -49.727  13.891  1.00  0.00     0.015 C 
HETATM   13  C   UNL     1     -39.338 -48.199  14.094  1.00  0.00     0.007 C 
HETATM   14  C   UNL     1     -37.937 -47.604  14.150  1.00  0.00     0.000 C 
HETATM   15  C   UNL     1     -37.027 -48.336  15.128  1.00  0.00     0.000 C 
HETATM   16  C   UNL     1     -37.033 -49.845  14.934  1.00  0.00     0.000 C 
HETATM   17  C   UNL     1     -38.444 -50.418  14.892  1.00  0.00     0.007 C 
ENDBRANCH   7  12
ENDBRANCH   1   7
BRANCH   4  18
HETATM   18  C   UNL     1     -42.697 -53.803  13.091  1.00  0.00     0.038 A 
HETATM   19  C   UNL     1     -43.922 -53.617  12.462  1.00  0.00     0.046 A 
HETATM   20  C   UNL     1     -45.047 -54.143  13.073  1.00  0.00     0.090 A 
HETATM   21  N   UNL     1     -45.020 -54.872  14.210  1.00  0.00    -0.375 N 
HETATM   22  C   UNL     1     -43.809 -55.067  14.775  1.00  0.00     0.090 A 
ATOM     23  HN  UNL     1     -45.871 -55.257  14.620  1.00  0.00     0.164 HD
HETATM   24  C   UNL     1     -42.631 -54.555  14.263  1.00  0.00     0.046 A 
ENDBRANCH   4  18
TORSDOF 5
ENDMDL
MODEL 4
REMARK VINA RESULT:      -6.2      1.814      2.839
REMARK  5 active torsions:
REMARK  status: ('A' for Active; 'I' for Inactive)
REMARK    1  A    between atoms: C_2  and  C_3 
REMARK    2  A    between atoms: C_2  and  N_5 
REMARK    3  A    between atoms: C_2  and  C_16 
REMARK    4  A    between atoms: C_3  and  O_4 
REMARK       I    between atoms: N_5  and  C_6 
REMARK       I    between atoms: C_6  and  N_8 
REMARK    5  A    between atoms: N_8  and  C_9 
ROOT
HETATM    1  N   UNL     1     -40.780 -49.211  10.772  1.00  0.00    -0.332 N 
HETATM    2  C   UNL     1     -41.851 -48.348  10.772  1.00  0.00     0.321 C 
HETATM    3  O   UNL     1     -42.273 -47.774  11.769  1.00  0.00    -0.247 OA
HETATM    4  N   UNL     1     -42.355 -48.190   9.495  1.00  0.00    -0.309 N 
HETATM    5  H   UNL     1     -40.869 -49.967  10.108  1.00  0.00     0.165 HD
HETATM    6  H   UNL     1     -41.620 -48.160   8.800  1.00  0.00     0.170 HD
ENDROOT
BRANCH   1   7
HETATM    7  C   UNL     1     -39.916 -49.450  11.961  1.00  0.00     0.055 C 
HETATM    8  C   UNL     1     -38.652 -50.152  11.427  1.00  0.00     0.041 C 
BRANCH   7   9
HETATM    9  C   UNL     1     -39.462 -48.064  12.545  1.00  0.00     0.195 C 
BRANCH   9  10
HETATM   10  O   UNL     1     -40.197 -47.697  13.720  1.00  0.00    -0.398 OA
HETATM   11  H   UNL     1     -40.140 -48.439  14.346  1.00  0.00     0.209 HD
ENDBRANCH   9  10
ENDBRANCH   7   9
BRANCH   7  12
HETATM   12  C   UNL     1     -40.702 -50.274  13.064  1.00  0.00     0.015 C 
HETATM   13  C   UNL     1     -39.866 -50.962  14.164  1.00  0.00     0.007 C 
HETATM   14  C   UNL     1     -39.323 -52.338  13.803  1.00  0.00     0.000 C 
HETATM   15  C   UNL     1     -40.395 -53.266  13.249  1.00  0.00     0.000 C 
HETATM   16  C   UNL     1     -41.218 -52.632  12.136  1.00  0.00     0.000 C 
HETATM   17  C   UNL     1     -41.759 -51.262  12.525  1.00  0.00     0.007 C 
ENDBRANCH   7  12
ENDBRANCH   1   7
BRANCH   4  18
HETATM   18  C   UNL     1     -43.491 -47.389   9.258  1.00  0.00     0.038 A 
HETATM   19  C   UNL     1     -43.326 -46.023   9.064  1.00  0.00     0.046 A 
HETATM   20  C   UNL     1     -44.464 -45.251   8.908  1.00  0.00     0.090 A 
HETATM   21  N   UNL     1     -45.718 -45.751   8.878  1.00  0.00    -0.375 N 
HETATM   22  C   UNL     1     -45.842 -47.086   9.032  1.00  0.00     0.090 A 
ATOM     23  HN  UNL     1     -46.531 -45.149   8.745  1.00  0.00     0.164 HD
HETATM   24  C   UNL     1     -44.772 -47.939   9.228  1.00  0.00     0.046 A 
ENDBRANCH   4  18
TORSDOF 5
ENDMDL
MODEL 5
REMARK VINA RESULT:      -6.2      2.637      3.586
REMARK  5 active torsions:
REMARK  status: ('A' for Active; 'I' for Inactive)
REMARK    1  A    between atoms: C_2  and  C_3 
REMARK    2  A    between atoms: C_2  and  N_5 
REMARK    3  A    between atoms: C_2  and  C_16 
REMARK    4  A    between atoms: C_3  and  O_4 
REMARK       I    between atoms: N_5  and  C_6 
REMARK       I    between atoms: C_6  and  N_8 
REMARK    5  A    between atoms: N_8  and  C_9 
ROOT
HETATM    1  N   UNL     1     -42.335 -51.556  12.209  1.00  0.00    -0.332 N 
HETATM    2  C   UNL     1     -42.382 -50.186  12.108  1.00  0.00     0.321 C 
HETATM    3  O   UNL     1     -43.027 -49.461  12.857  1.00  0.00    -0.247 OA
HETATM    4  N   UNL     1     -41.575 -49.741  11.077  1.00  0.00    -0.309 N 
HETATM    5  H   UNL     1     -42.256 -52.026  11.319  1.00  0.00     0.165 HD
HETATM    6  H   UNL     1     -40.716 -50.272  11.014  1.00  0.00     0.170 HD
ENDROOT
BRANCH   1   7
HETATM    7  C   UNL     1     -42.956 -52.321  13.326  1.00  0.00     0.055 C 
HETATM    8  C   UNL     1     -42.595 -51.554  14.613  1.00  0.00     0.041 C 
BRANCH   7   9
HETATM    9  C   UNL     1     -44.519 -52.258  13.175  1.00  0.00     0.195 C 
BRANCH   9  10
HETATM   10  O   UNL     1     -44.987 -52.979  12.028  1.00  0.00    -0.398 OA
HETATM   11  H   UNL     1     -44.937 -53.928  12.235  1.00  0.00     0.209 HD
ENDBRANCH   9  10
ENDBRANCH   7   9
BRANCH   7  12
HETATM   12  C   UNL     1     -42.468 -53.830  13.308  1.00  0.00     0.015 C 
HETATM   13  C   UNL     1     -42.739 -54.677  14.568  1.00  0.00     0.007 C 
HETATM   14  C   UNL     1     -41.694 -54.556  15.670  1.00  0.00     0.000 C 
HETATM   15  C   UNL     1     -40.274 -54.751  15.156  1.00  0.00     0.000 C 
HETATM   16  C   UNL     1     -39.960 -53.903  13.932  1.00  0.00     0.000 C 
HETATM   17  C   UNL     1     -41.012 -54.049  12.841  1.00  0.00     0.007 C 
ENDBRANCH   7  12
ENDBRANCH   1   7
BRANCH   4  18
HETATM   18  C   UNL     1     -41.505 -48.371  10.751  1.00  0.00     0.038 A 
HETATM   19  C   UNL     1     -40.438 -47.618  11.226  1.00  0.00     0.046 A 
HETATM   20  C   UNL     1     -40.434 -46.261  10.953  1.00  0.00     0.090 A 
HETATM   21  N   UNL     1     -41.372 -45.637  10.207  1.00  0.00    -0.375 N 
HETATM   22  C   UNL     1     -42.375 -46.404   9.729  1.00  0.00     0.090 A 
ATOM     23  HN  UNL     1     -41.324 -44.636  10.015  1.00  0.00     0.164 HD
HETATM   24  C   UNL     1     -42.488 -47.761   9.974  1.00  0.00     0.046 A 
ENDBRANCH   4  18
TORSDOF 5
ENDMDL
MODEL 6
REMARK VINA RESULT:      -6.1      3.525      5.662
REMARK  5 active torsions:
REMARK  status: ('A' for Active; 'I' for Inactive)
REMARK    1  A    between atoms: C_2  and  C_3 
REMARK    2  A    between atoms: C_2  and  N_5 
REMARK    3  A    between atoms: C_2  and  C_16 
REMARK    4  A    between atoms: C_3  and  O_4 
REMARK       I    between atoms: N_5  and  C_6 
REMARK       I    between atoms: C_6  and  N_8 
REMARK    5  A    between atoms: N_8  and  C_9 
ROOT
HETATM    1  N   UNL     1     -41.648 -51.151  12.096  1.00  0.00    -0.332 N 
HETATM    2  C   UNL     1     -42.521 -51.769  12.960  1.00  0.00     0.321 C 
HETATM    3  O   UNL     1     -42.342 -51.864  14.169  1.00  0.00    -0.247 OA
HETATM    4  N   UNL     1     -43.638 -52.228  12.287  1.00  0.00    -0.309 N 
HETATM    5  H   UNL     1     -41.613 -51.578  11.181  1.00  0.00     0.165 HD
HETATM    6  H   UNL     1     -43.935 -51.583  11.566  1.00  0.00     0.170 HD
ENDROOT
BRANCH   1   7
HETATM    7  C   UNL     1     -40.440 -50.403  12.541  1.00  0.00     0.055 C 
HETATM    8  C   UNL     1     -39.478 -51.461  13.115  1.00  0.00     0.041 C 
BRANCH   7   9
HETATM    9  C   UNL     1     -39.740 -49.776  11.282  1.00  0.00     0.195 C 
BRANCH   9  10
HETATM   10  O   UNL     1     -40.539 -49.891  10.097  1.00  0.00    -0.398 OA
HETATM   11  H   UNL     1     -41.096 -49.096  10.040  1.00  0.00     0.209 HD
ENDBRANCH   9  10
ENDBRANCH   7   9
BRANCH   7  12
HETATM   12  C   UNL     1     -40.839 -49.260  13.566  1.00  0.00     0.015 C 
HETATM   13  C   UNL     1     -41.346 -47.927  12.978  1.00  0.00     0.007 C 
HETATM   14  C   UNL     1     -40.260 -46.931  12.590  1.00  0.00     0.000 C 
HETATM   15  C   UNL     1     -39.247 -46.705  13.704  1.00  0.00     0.000 C 
HETATM   16  C   UNL     1     -38.698 -48.000  14.285  1.00  0.00     0.000 C 
HETATM   17  C   UNL     1     -39.803 -48.974  14.675  1.00  0.00     0.007 C 
ENDBRANCH   7  12
ENDBRANCH   1   7
BRANCH   4  18
HETATM   18  C   UNL     1     -44.648 -52.943  12.962  1.00  0.00     0.038 A 
HETATM   19  C   UNL     1     -45.742 -52.251  13.468  1.00  0.00     0.046 A 
HETATM   20  C   UNL     1     -46.680 -52.967  14.190  1.00  0.00     0.090 A 
HETATM   21  N   UNL     1     -46.627 -54.303  14.384  1.00  0.00    -0.375 N 
HETATM   22  C   UNL     1     -45.571 -54.951  13.848  1.00  0.00     0.090 A 
ATOM     23  HN  UNL     1     -47.349 -54.797  14.910  1.00  0.00     0.164 HD
HETATM   24  C   UNL     1     -44.563 -54.323  13.140  1.00  0.00     0.046 A 
ENDBRANCH   4  18
TORSDOF 5
ENDMDL
MODEL 7
REMARK VINA RESULT:      -6.1      3.365      5.286
REMARK  5 active torsions:
REMARK  status: ('A' for Active; 'I' for Inactive)
REMARK    1  A    between atoms: C_2  and  C_3 
REMARK    2  A    between atoms: C_2  and  N_5 
REMARK    3  A    between atoms: C_2  and  C_16 
REMARK    4  A    between atoms: C_3  and  O_4 
REMARK       I    between atoms: N_5  and  C_6 
REMARK       I    between atoms: C_6  and  N_8 
REMARK    5  A    between atoms: N_8  and  C_9 
ROOT
HETATM    1  N   UNL     1     -42.561 -51.590  12.223  1.00  0.00    -0.332 N 
HETATM    2  C   UNL     1     -42.501 -50.218  12.168  1.00  0.00     0.321 C 
HETATM    3  O   UNL     1     -43.123 -49.470  12.914  1.00  0.00    -0.247 OA
HETATM    4  N   UNL     1     -41.618 -49.803  11.188  1.00  0.00    -0.309 N 
HETATM    5  H   UNL     1     -42.477 -52.036  11.321  1.00  0.00     0.165 HD
HETATM    6  H   UNL     1     -40.799 -50.395  11.143  1.00  0.00     0.170 HD
ENDROOT
BRANCH   1   7
HETATM    7  C   UNL     1     -43.287 -52.340  13.285  1.00  0.00     0.055 C 
HETATM    8  C   UNL     1     -42.458 -53.614  13.542  1.00  0.00     0.041 C 
BRANCH   7   9
HETATM    9  C   UNL     1     -43.259 -51.497  14.611  1.00  0.00     0.195 C 
BRANCH   9  10
HETATM   10  O   UNL     1     -43.029 -52.307  15.771  1.00  0.00    -0.398 OA
HETATM   11  H   UNL     1     -43.029 -51.720  16.546  1.00  0.00     0.209 HD
ENDBRANCH   9  10
ENDBRANCH   7   9
BRANCH   7  12
HETATM   12  C   UNL     1     -44.786 -52.615  12.848  1.00  0.00     0.015 C 
HETATM   13  C   UNL     1     -45.817 -51.497  13.111  1.00  0.00     0.007 C 
HETATM   14  C   UNL     1     -46.429 -51.493  14.506  1.00  0.00     0.000 C 
HETATM   15  C   UNL     1     -46.964 -52.858  14.917  1.00  0.00     0.000 C 
HETATM   16  C   UNL     1     -45.960 -53.982  14.704  1.00  0.00     0.000 C 
HETATM   17  C   UNL     1     -45.370 -53.972  13.299  1.00  0.00     0.007 C 
ENDBRANCH   7  12
ENDBRANCH   1   7
BRANCH   4  18
HETATM   18  C   UNL     1     -41.431 -48.433  10.914  1.00  0.00     0.038 A 
HETATM   19  C   UNL     1     -42.372 -47.765  10.138  1.00  0.00     0.046 A 
HETATM   20  C   UNL     1     -42.125 -46.441   9.823  1.00  0.00     0.090 A 
HETATM   21  N   UNL     1     -41.057 -45.743  10.268  1.00  0.00    -0.375 N 
HETATM   22  C   UNL     1     -40.182 -46.411  11.050  1.00  0.00     0.090 A 
ATOM     23  HN  UNL     1     -40.919 -44.762  10.025  1.00  0.00     0.164 HD
HETATM   24  C   UNL     1     -40.320 -47.743  11.394  1.00  0.00     0.046 A 
ENDBRANCH   4  18
TORSDOF 5
ENDMDL
MODEL 8
REMARK VINA RESULT:      -6.0      2.469      4.322
REMARK  5 active torsions:
REMARK  status: ('A' for Active; 'I' for Inactive)
REMARK    1  A    between atoms: C_2  and  C_3 
REMARK    2  A    between atoms: C_2  and  N_5 
REMARK    3  A    between atoms: C_2  and  C_16 
REMARK    4  A    between atoms: C_3  and  O_4 
REMARK       I    between atoms: N_5  and  C_6 
REMARK       I    between atoms: C_6  and  N_8 
REMARK    5  A    between atoms: N_8  and  C_9 
ROOT
HETATM    1  N   UNL     1     -41.197 -51.763  12.034  1.00  0.00    -0.332 N 
HETATM    2  C   UNL     1     -41.373 -50.404  12.137  1.00  0.00     0.321 C 
HETATM    3  O   UNL     1     -41.676 -49.825  13.174  1.00  0.00    -0.247 OA
HETATM    4  N   UNL     1     -41.124 -49.783  10.927  1.00  0.00    -0.309 N 
HETATM    5  H   UNL     1     -41.481 -52.143  11.142  1.00  0.00     0.165 HD
HETATM    6  H   UNL     1     -40.345 -50.204  10.440  1.00  0.00     0.170 HD
ENDROOT
BRANCH   1   7
HETATM    7  C   UNL     1     -41.221 -52.687  13.202  1.00  0.00     0.055 C 
HETATM    8  C   UNL     1     -40.948 -54.093  12.632  1.00  0.00     0.041 C 
BRANCH   7   9
HETATM    9  C   UNL     1     -40.020 -52.334  14.152  1.00  0.00     0.195 C 
BRANCH   9  10
HETATM   10  O   UNL     1     -38.808 -53.000  13.775  1.00  0.00    -0.398 OA
HETATM   11  H   UNL     1     -38.494 -53.501  14.546  1.00  0.00     0.209 HD
ENDBRANCH   9  10
ENDBRANCH   7   9
BRANCH   7  12
HETATM   12  C   UNL     1     -42.592 -52.557  13.988  1.00  0.00     0.015 C 
HETATM   13  C   UNL     1     -42.755 -53.397  15.272  1.00  0.00     0.007 C 
HETATM   14  C   UNL     1     -43.238 -54.826  15.057  1.00  0.00     0.000 C 
HETATM   15  C   UNL     1     -44.477 -54.901  14.175  1.00  0.00     0.000 C 
HETATM   16  C   UNL     1     -44.338 -54.111  12.881  1.00  0.00     0.000 C 
HETATM   17  C   UNL     1     -43.866 -52.683  13.123  1.00  0.00     0.007 C 
ENDBRANCH   7  12
ENDBRANCH   1   7
BRANCH   4  18
HETATM   18  C   UNL     1     -41.293 -48.391  10.779  1.00  0.00     0.038 A 
HETATM   19  C   UNL     1     -42.446 -47.911  10.169  1.00  0.00     0.046 A 
HETATM   20  C   UNL     1     -42.551 -46.546   9.970  1.00  0.00     0.090 A 
HETATM   21  N   UNL     1     -41.629 -45.649  10.381  1.00  0.00    -0.375 N 
HETATM   22  C   UNL     1     -40.538 -46.144  11.004  1.00  0.00     0.090 A 
ATOM     23  HN  UNL     1     -41.751 -44.647  10.229  1.00  0.00     0.164 HD
HETATM   24  C   UNL     1     -40.323 -47.493  11.220  1.00  0.00     0.046 A 
ENDBRANCH   4  18
TORSDOF 5
ENDMDL
MODEL 9
REMARK VINA RESULT:      -5.9      3.622      5.965
REMARK  5 active torsions:
REMARK  status: ('A' for Active; 'I' for Inactive)
REMARK    1  A    between atoms: C_2  and  C_3 
REMARK    2  A    between atoms: C_2  and  N_5 
REMARK    3  A    between atoms: C_2  and  C_16 
REMARK    4  A    between atoms: C_3  and  O_4 
REMARK       I    between atoms: N_5  and  C_6 
REMARK       I    between atoms: C_6  and  N_8 
REMARK    5  A    between atoms: N_8  and  C_9 
ROOT
HETATM    1  N   UNL     1     -42.237 -50.852  12.079  1.00  0.00    -0.332 N 
HETATM    2  C   UNL     1     -42.905 -51.700  12.930  1.00  0.00     0.321 C 
HETATM    3  O   UNL     1     -42.463 -52.084  14.007  1.00  0.00    -0.247 OA
HETATM    4  N   UNL     1     -44.150 -52.024  12.424  1.00  0.00    -0.309 N 
HETATM    5  H   UNL     1     -42.412 -51.037  11.101  1.00  0.00     0.165 HD
HETATM    6  H   UNL     1     -44.591 -51.234  11.971  1.00  0.00     0.170 HD
ENDROOT
BRANCH   1   7
HETATM    7  C   UNL     1     -40.949 -50.187  12.422  1.00  0.00     0.055 C 
HETATM    8  C   UNL     1     -41.134 -49.621  13.844  1.00  0.00     0.041 C 
BRANCH   7   9
HETATM    9  C   UNL     1     -39.821 -51.279  12.502  1.00  0.00     0.195 C 
BRANCH   9  10
HETATM   10  O   UNL     1     -39.499 -51.635  13.853  1.00  0.00    -0.398 OA
HETATM   11  H   UNL     1     -39.941 -52.478  14.049  1.00  0.00     0.209 HD
ENDBRANCH   9  10
ENDBRANCH   7   9
BRANCH   7  12
HETATM   12  C   UNL     1     -40.575 -49.099  11.330  1.00  0.00     0.015 C 
HETATM   13  C   UNL     1     -39.505 -48.054  11.709  1.00  0.00     0.007 C 
HETATM   14  C   UNL     1     -40.024 -46.836  12.464  1.00  0.00     0.000 C 
HETATM   15  C   UNL     1     -41.224 -46.191  11.783  1.00  0.00     0.000 C 
HETATM   16  C   UNL     1     -42.316 -47.189  11.425  1.00  0.00     0.000 C 
HETATM   17  C   UNL     1     -41.775 -48.391  10.663  1.00  0.00     0.007 C 
ENDBRANCH   7  12
ENDBRANCH   1   7
BRANCH   4  18
HETATM   18  C   UNL     1     -44.996 -52.925  13.102  1.00  0.00     0.038 A 
HETATM   19  C   UNL     1     -46.084 -52.428  13.809  1.00  0.00     0.046 A 
HETATM   20  C   UNL     1     -46.853 -53.328  14.526  1.00  0.00     0.090 A 
HETATM   21  N   UNL     1     -46.645 -54.662  14.536  1.00  0.00    -0.375 N 
HETATM   22  C   UNL     1     -45.602 -55.117  13.809  1.00  0.00     0.090 A 
ATOM     23  HN  UNL     1     -47.245 -55.294  15.065  1.00  0.00     0.164 HD
HETATM   24  C   UNL     1     -44.753 -54.298  13.086  1.00  0.00     0.046 A 
ENDBRANCH   4  18
TORSDOF 5
ENDMDL
