MODEL 1
REMARK VINA RESULT:      -5.9      0.000      0.000
REMARK  5 active torsions:
REMARK  status: ('A' for Active; 'I' for Inactive)
REMARK    1  A    between atoms: C_5  and  N_9 
REMARK    2  A    between atoms: N_9  and  C_10 
REMARK    3  A    between atoms: C_10  and  C_11 
REMARK    4  A    between atoms: C_11  and  N_12 
REMARK    5  A    between atoms: C_11  and  C_15 
ROOT
HETATM    1  C   UNL     1     -42.774 -55.131  15.227  1.00  0.00     0.310 C 
ENDROOT
BRANCH   1   2
HETATM    2  N   UNL     1     -43.935 -54.253  15.381  1.00  0.00     0.090 N 
HETATM    3  H   UNL     1     -44.328 -54.422  16.302  1.00  0.00     0.316 HD
BRANCH   2   4
HETATM    4  C   UNL     1     -45.011 -54.479  14.406  1.00  0.00     0.221 C 
HETATM    5  C   UNL     1     -44.651 -54.080  12.966  1.00  0.00     0.036 C 
HETATM    6  C   UNL     1     -44.404 -52.577  12.823  1.00  0.00     0.007 C 
HETATM    7  C   UNL     1     -45.599 -51.738  13.312  1.00  0.00    -0.015 C 
HETATM    8  C   UNL     1     -46.773 -51.850  12.330  1.00  0.00     0.010 C 
HETATM    9  C   UNL     1     -45.966 -52.134  14.764  1.00  0.00    -0.013 C 
HETATM   10  C   UNL     1     -46.219 -53.651  14.890  1.00  0.00     0.040 C 
HETATM   11  C   UNL     1     -47.142 -51.335  15.326  1.00  0.00     0.010 C 
ENDBRANCH   2   4
ENDBRANCH   1   2
BRANCH   1  12
HETATM   12  C   UNL     1     -41.381 -54.406  15.328  1.00  0.00     0.285 C 
BRANCH  12  13
HETATM   13  N   UNL     1     -40.168 -55.192  15.681  1.00  0.00     0.090 N 
HETATM   14  C   UNL     1     -38.980 -54.385  15.945  1.00  0.00     0.310 C 
HETATM   15  C   UNL     1     -40.351 -56.197  16.721  1.00  0.00     0.310 C 
ENDBRANCH  12  13
BRANCH  12  16
HETATM   16  C   UNL     1     -41.145 -53.656  14.032  1.00  0.00     0.011 A 
HETATM   17  C   UNL     1     -40.964 -54.193  12.732  1.00  0.00     0.118 A 
HETATM   18  N   UNL     1     -40.704 -53.254  11.816  1.00  0.00    -0.310 N 
HETATM   19  N   UNL     1     -40.726 -52.111  12.521  1.00  0.00    -0.308 N 
ATOM     20  HN  UNL     1     -40.530 -53.378  10.819  1.00  0.00     0.186 HD
HETATM   21  C   UNL     1     -40.506 -50.839  11.883  1.00  0.00     0.177 C 
HETATM   22  C   UNL     1     -40.952 -52.301  13.849  1.00  0.00     0.120 A 
ENDBRANCH  12  16
ENDBRANCH   1  12
TORSDOF 5
ENDMDL
MODEL 2
REMARK VINA RESULT:      -5.6      4.402      7.279
REMARK  5 active torsions:
REMARK  status: ('A' for Active; 'I' for Inactive)
REMARK    1  A    between atoms: C_5  and  N_9 
REMARK    2  A    between atoms: N_9  and  C_10 
REMARK    3  A    between atoms: C_10  and  C_11 
REMARK    4  A    between atoms: C_11  and  N_12 
REMARK    5  A    between atoms: C_11  and  C_15 
ROOT
HETATM    1  C   UNL     1     -41.264 -48.473  10.762  1.00  0.00     0.310 C 
ENDROOT
BRANCH   1   2
HETATM    2  N   UNL     1     -41.918 -49.676  11.280  1.00  0.00     0.090 N 
HETATM    3  H   UNL     1     -42.910 -49.474  11.362  1.00  0.00     0.316 HD
BRANCH   2   4
HETATM    4  C   UNL     1     -41.456 -50.105  12.608  1.00  0.00     0.221 C 
HETATM    5  C   UNL     1     -40.821 -51.504  12.631  1.00  0.00     0.036 C 
HETATM    6  C   UNL     1     -41.821 -52.604  12.274  1.00  0.00     0.007 C 
HETATM    7  C   UNL     1     -43.065 -52.582  13.181  1.00  0.00    -0.015 C 
HETATM    8  C   UNL     1     -42.712 -53.073  14.591  1.00  0.00     0.010 C 
HETATM    9  C   UNL     1     -43.712 -51.175  13.160  1.00  0.00    -0.013 C 
HETATM   10  C   UNL     1     -42.692 -50.077  13.529  1.00  0.00     0.040 C 
HETATM   11  C   UNL     1     -44.963 -51.074  14.032  1.00  0.00     0.010 C 
ENDBRANCH   2   4
ENDBRANCH   1   2
BRANCH   1  12
HETATM   12  C   UNL     1     -42.172 -47.189  10.730  1.00  0.00     0.285 C 
BRANCH  12  13
HETATM   13  N   UNL     1     -41.572 -45.874  10.381  1.00  0.00     0.090 N 
HETATM   14  C   UNL     1     -42.261 -44.722  10.957  1.00  0.00     0.310 C 
HETATM   15  C   UNL     1     -40.132 -45.766  10.580  1.00  0.00     0.310 C 
ENDBRANCH  12  13
BRANCH  12  16
HETATM   16  C   UNL     1     -43.354 -47.469   9.824  1.00  0.00     0.011 A 
HETATM   17  C   UNL     1     -43.353 -47.649   8.417  1.00  0.00     0.118 A 
HETATM   18  N   UNL     1     -44.582 -47.808   7.915  1.00  0.00    -0.310 N 
HETATM   19  N   UNL     1     -45.376 -47.741   8.996  1.00  0.00    -0.308 N 
ATOM     20  HN  UNL     1     -44.852 -47.947   6.942  1.00  0.00     0.186 HD
HETATM   21  C   UNL     1     -46.804 -47.890   8.882  1.00  0.00     0.177 C 
HETATM   22  C   UNL     1     -44.695 -47.508  10.151  1.00  0.00     0.120 A 
ENDBRANCH  12  16
ENDBRANCH   1  12
TORSDOF 5
ENDMDL
MODEL 3
REMARK VINA RESULT:      -5.5      1.532      2.406
REMARK  5 active torsions:
REMARK  status: ('A' for Active; 'I' for Inactive)
REMARK    1  A    between atoms: C_5  and  N_9 
REMARK    2  A    between atoms: N_9  and  C_10 
REMARK    3  A    between atoms: C_10  and  C_11 
REMARK    4  A    between atoms: C_11  and  N_12 
REMARK    5  A    between atoms: C_11  and  C_15 
ROOT
HETATM    1  C   UNL     1     -41.927 -54.083  13.382  1.00  0.00     0.310 C 
ENDROOT
BRANCH   1   2
HETATM    2  N   UNL     1     -43.351 -53.930  13.686  1.00  0.00     0.090 N 
HETATM    3  H   UNL     1     -43.846 -53.849  12.803  1.00  0.00     0.316 HD
BRANCH   2   4
HETATM    4  C   UNL     1     -43.687 -52.737  14.477  1.00  0.00     0.221 C 
HETATM    5  C   UNL     1     -44.454 -53.038  15.774  1.00  0.00     0.036 C 
HETATM    6  C   UNL     1     -45.835 -53.640  15.508  1.00  0.00     0.007 C 
HETATM    7  C   UNL     1     -46.693 -52.752  14.589  1.00  0.00    -0.015 C 
HETATM    8  C   UNL     1     -47.157 -51.494  15.335  1.00  0.00     0.010 C 
HETATM    9  C   UNL     1     -45.927 -52.447  13.278  1.00  0.00    -0.013 C 
HETATM   10  C   UNL     1     -44.540 -51.834  13.563  1.00  0.00     0.040 C 
HETATM   11  C   UNL     1     -46.720 -51.576  12.305  1.00  0.00     0.010 C 
ENDBRANCH   2   4
ENDBRANCH   1   2
BRANCH   1  12
HETATM   12  C   UNL     1     -40.982 -53.064  14.120  1.00  0.00     0.285 C 
BRANCH  12  13
HETATM   13  N   UNL     1     -39.804 -53.569  14.875  1.00  0.00     0.090 N 
HETATM   14  C   UNL     1     -40.041 -53.776  16.301  1.00  0.00     0.310 C 
HETATM   15  C   UNL     1     -39.131 -54.723  14.292  1.00  0.00     0.310 C 
ENDBRANCH  12  13
BRANCH  12  16
HETATM   16  C   UNL     1     -40.536 -52.021  13.115  1.00  0.00     0.011 A 
HETATM   17  C   UNL     1     -41.130 -51.697  11.870  1.00  0.00     0.118 A 
HETATM   18  N   UNL     1     -40.441 -50.773  11.192  1.00  0.00    -0.310 N 
HETATM   19  N   UNL     1     -39.407 -50.493  12.002  1.00  0.00    -0.308 N 
ATOM     20  HN  UNL     1     -40.651 -50.376  10.276  1.00  0.00     0.186 HD
HETATM   21  C   UNL     1     -38.421 -49.510  11.637  1.00  0.00     0.177 C 
HETATM   22  C   UNL     1     -39.402 -51.233  13.144  1.00  0.00     0.120 A 
ENDBRANCH  12  16
ENDBRANCH   1  12
TORSDOF 5
ENDMDL
MODEL 4
REMARK VINA RESULT:      -5.5      2.047      3.416
REMARK  5 active torsions:
REMARK  status: ('A' for Active; 'I' for Inactive)
REMARK    1  A    between atoms: C_5  and  N_9 
REMARK    2  A    between atoms: N_9  and  C_10 
REMARK    3  A    between atoms: C_10  and  C_11 
REMARK    4  A    between atoms: C_11  and  N_12 
REMARK    5  A    between atoms: C_11  and  C_15 
ROOT
HETATM    1  C   UNL     1     -41.120 -52.685  12.031  1.00  0.00     0.310 C 
ENDROOT
BRANCH   1   2
HETATM    2  N   UNL     1     -42.580 -52.604  12.102  1.00  0.00     0.090 N 
HETATM    3  H   UNL     1     -42.874 -51.830  11.516  1.00  0.00     0.316 HD
BRANCH   2   4
HETATM    4  C   UNL     1     -43.118 -52.353  13.447  1.00  0.00     0.221 C 
HETATM    5  C   UNL     1     -43.363 -53.624  14.274  1.00  0.00     0.036 C 
HETATM    6  C   UNL     1     -44.445 -54.517  13.663  1.00  0.00     0.007 C 
HETATM    7  C   UNL     1     -45.773 -53.768  13.453  1.00  0.00    -0.015 C 
HETATM    8  C   UNL     1     -46.460 -53.503  14.799  1.00  0.00     0.010 C 
HETATM    9  C   UNL     1     -45.533 -52.486  12.618  1.00  0.00    -0.013 C 
HETATM   10  C   UNL     1     -44.445 -51.593  13.251  1.00  0.00     0.040 C 
HETATM   11  C   UNL     1     -46.810 -51.689  12.357  1.00  0.00     0.010 C 
ENDBRANCH   2   4
ENDBRANCH   1   2
BRANCH   1  12
HETATM   12  C   UNL     1     -40.358 -51.818  13.101  1.00  0.00     0.285 C 
BRANCH  12  13
HETATM   13  N   UNL     1     -39.229 -52.417  13.861  1.00  0.00     0.090 N 
HETATM   14  C   UNL     1     -38.947 -51.768  15.138  1.00  0.00     0.310 C 
HETATM   15  C   UNL     1     -39.273 -53.865  14.018  1.00  0.00     0.310 C 
ENDBRANCH  12  13
BRANCH  12  16
HETATM   16  C   UNL     1     -39.903 -50.537  12.433  1.00  0.00     0.011 A 
HETATM   17  C   UNL     1     -38.662 -50.275  11.799  1.00  0.00     0.118 A 
HETATM   18  N   UNL     1     -38.554 -49.012  11.373  1.00  0.00    -0.310 N 
HETATM   19  N   UNL     1     -39.728 -48.460  11.722  1.00  0.00    -0.308 N 
ATOM     20  HN  UNL     1     -37.767 -48.572  10.897  1.00  0.00     0.186 HD
HETATM   21  C   UNL     1     -40.024 -47.085  11.417  1.00  0.00     0.177 C 
HETATM   22  C   UNL     1     -40.551 -49.318  12.384  1.00  0.00     0.120 A 
ENDBRANCH  12  16
ENDBRANCH   1  12
TORSDOF 5
ENDMDL
MODEL 5
REMARK VINA RESULT:      -5.4      3.284      5.327
REMARK  5 active torsions:
REMARK  status: ('A' for Active; 'I' for Inactive)
REMARK    1  A    between atoms: C_5  and  N_9 
REMARK    2  A    between atoms: N_9  and  C_10 
REMARK    3  A    between atoms: C_10  and  C_11 
REMARK    4  A    between atoms: C_11  and  N_12 
REMARK    5  A    between atoms: C_11  and  C_15 
ROOT
HETATM    1  C   UNL     1     -41.512 -50.482  12.074  1.00  0.00     0.310 C 
ENDROOT
BRANCH   1   2
HETATM    2  N   UNL     1     -42.867 -50.902  12.434  1.00  0.00     0.090 N 
HETATM    3  H   UNL     1     -43.396 -50.068  12.666  1.00  0.00     0.316 HD
BRANCH   2   4
HETATM    4  C   UNL     1     -42.945 -51.798  13.596  1.00  0.00     0.221 C 
HETATM    5  C   UNL     1     -42.957 -53.293  13.239  1.00  0.00     0.036 C 
HETATM    6  C   UNL     1     -44.202 -53.693  12.447  1.00  0.00     0.007 C 
HETATM    7  C   UNL     1     -45.505 -53.323  13.178  1.00  0.00    -0.015 C 
HETATM    8  C   UNL     1     -45.725 -54.242  14.386  1.00  0.00     0.010 C 
HETATM    9  C   UNL     1     -45.502 -51.817  13.538  1.00  0.00    -0.013 C 
HETATM   10  C   UNL     1     -44.243 -51.430  14.343  1.00  0.00     0.040 C 
HETATM   11  C   UNL     1     -46.771 -51.367  14.260  1.00  0.00     0.010 C 
ENDBRANCH   2   4
ENDBRANCH   1   2
BRANCH   1  12
HETATM   12  C   UNL     1     -41.196 -48.965  12.352  1.00  0.00     0.285 C 
BRANCH  12  13
HETATM   13  N   UNL     1     -39.798 -48.473  12.237  1.00  0.00     0.090 N 
HETATM   14  C   UNL     1     -39.294 -47.796  13.428  1.00  0.00     0.310 C 
HETATM   15  C   UNL     1     -38.827 -49.444  11.747  1.00  0.00     0.310 C 
ENDBRANCH  12  13
BRANCH  12  16
HETATM   16  C   UNL     1     -42.107 -48.126  11.479  1.00  0.00     0.011 A 
HETATM   17  C   UNL     1     -43.198 -47.314  11.880  1.00  0.00     0.118 A 
HETATM   18  N   UNL     1     -43.840 -46.761  10.845  1.00  0.00    -0.310 N 
HETATM   19  N   UNL     1     -43.159 -47.207   9.777  1.00  0.00    -0.308 N 
ATOM     20  HN  UNL     1     -44.654 -46.147  10.864  1.00  0.00     0.186 HD
HETATM   21  C   UNL     1     -43.529 -46.815   8.442  1.00  0.00     0.177 C 
HETATM   22  C   UNL     1     -42.139 -48.048  10.100  1.00  0.00     0.120 A 
ENDBRANCH  12  16
ENDBRANCH   1  12
TORSDOF 5
ENDMDL
MODEL 6
REMARK VINA RESULT:      -5.4      3.208      5.195
REMARK  5 active torsions:
REMARK  status: ('A' for Active; 'I' for Inactive)
REMARK    1  A    between atoms: C_5  and  N_9 
REMARK    2  A    between atoms: N_9  and  C_10 
REMARK    3  A    between atoms: C_10  and  C_11 
REMARK    4  A    between atoms: C_11  and  N_12 
REMARK    5  A    between atoms: C_11  and  C_15 
ROOT
HETATM    1  C   UNL     1     -43.113 -49.099  12.876  1.00  0.00     0.310 C 
ENDROOT
BRANCH   1   2
HETATM    2  N   UNL     1     -44.182 -50.099  12.878  1.00  0.00     0.090 N 
HETATM    3  H   UNL     1     -45.006 -49.667  13.284  1.00  0.00     0.316 HD
BRANCH   2   4
HETATM    4  C   UNL     1     -43.896 -51.305  13.667  1.00  0.00     0.221 C 
HETATM    5  C   UNL     1     -44.141 -52.623  12.914  1.00  0.00     0.036 C 
HETATM    6  C   UNL     1     -45.614 -52.822  12.554  1.00  0.00     0.007 C 
HETATM    7  C   UNL     1     -46.534 -52.748  13.786  1.00  0.00    -0.015 C 
HETATM    8  C   UNL     1     -46.364 -53.997  14.661  1.00  0.00     0.010 C 
HETATM    9  C   UNL     1     -46.294 -51.421  14.548  1.00  0.00    -0.013 C 
HETATM   10  C   UNL     1     -44.805 -51.238  14.911  1.00  0.00     0.040 C 
HETATM   11  C   UNL     1     -47.180 -51.268  15.784  1.00  0.00     0.010 C 
ENDBRANCH   2   4
ENDBRANCH   1   2
BRANCH   1  12
HETATM   12  C   UNL     1     -42.389 -48.909  11.492  1.00  0.00     0.285 C 
BRANCH  12  13
HETATM   13  N   UNL     1     -42.247 -47.544  10.919  1.00  0.00     0.090 N 
HETATM   14  C   UNL     1     -42.915 -47.354   9.634  1.00  0.00     0.310 C 
HETATM   15  C   UNL     1     -42.554 -46.446  11.827  1.00  0.00     0.310 C 
ENDBRANCH  12  13
BRANCH  12  16
HETATM   16  C   UNL     1     -41.030 -49.572  11.576  1.00  0.00     0.011 A 
HETATM   17  C   UNL     1     -40.736 -50.938  11.819  1.00  0.00     0.118 A 
HETATM   18  N   UNL     1     -39.424 -51.179  11.901  1.00  0.00    -0.310 N 
HETATM   19  N   UNL     1     -38.868 -49.973  11.702  1.00  0.00    -0.308 N 
ATOM     20  HN  UNL     1     -38.956 -52.069  12.075  1.00  0.00     0.186 HD
HETATM   21  C   UNL     1     -37.438 -49.804  11.694  1.00  0.00     0.177 C 
HETATM   22  C   UNL     1     -39.782 -48.979  11.536  1.00  0.00     0.120 A 
ENDBRANCH  12  16
ENDBRANCH   1  12
TORSDOF 5
ENDMDL
MODEL 7
REMARK VINA RESULT:      -5.4      2.540      3.743
REMARK  5 active torsions:
REMARK  status: ('A' for Active; 'I' for Inactive)
REMARK    1  A    between atoms: C_5  and  N_9 
REMARK    2  A    between atoms: N_9  and  C_10 
REMARK    3  A    between atoms: C_10  and  C_11 
REMARK    4  A    between atoms: C_11  and  N_12 
REMARK    5  A    between atoms: C_11  and  C_15 
ROOT
HETATM    1  C   UNL     1     -41.944 -52.287  12.798  1.00  0.00     0.310 C 
ENDROOT
BRANCH   1   2
HETATM    2  N   UNL     1     -43.380 -52.260  12.519  1.00  0.00     0.090 N 
HETATM    3  H   UNL     1     -43.699 -51.303  12.641  1.00  0.00     0.316 HD
BRANCH   2   4
HETATM    4  C   UNL     1     -44.196 -53.101  13.406  1.00  0.00     0.221 C 
HETATM    5  C   UNL     1     -45.664 -53.234  12.973  1.00  0.00     0.036 C 
HETATM    6  C   UNL     1     -46.411 -51.900  13.029  1.00  0.00     0.007 C 
HETATM    7  C   UNL     1     -46.335 -51.244  14.419  1.00  0.00    -0.015 C 
HETATM    8  C   UNL     1     -47.206 -52.010  15.424  1.00  0.00     0.010 C 
HETATM    9  C   UNL     1     -44.857 -51.105  14.861  1.00  0.00    -0.013 C 
HETATM   10  C   UNL     1     -44.120 -52.460  14.806  1.00  0.00     0.040 C 
HETATM   11  C   UNL     1     -44.697 -50.451  16.233  1.00  0.00     0.010 C 
ENDBRANCH   2   4
ENDBRANCH   1   2
BRANCH   1  12
HETATM   12  C   UNL     1     -41.330 -50.904  13.231  1.00  0.00     0.285 C 
BRANCH  12  13
HETATM   13  N   UNL     1     -39.895 -50.825  13.616  1.00  0.00     0.090 N 
HETATM   14  C   UNL     1     -39.599 -49.840  14.653  1.00  0.00     0.310 C 
HETATM   15  C   UNL     1     -39.254 -52.099  13.918  1.00  0.00     0.310 C 
ENDBRANCH  12  13
BRANCH  12  16
HETATM   16  C   UNL     1     -41.621 -49.895  12.138  1.00  0.00     0.011 A 
HETATM   17  C   UNL     1     -40.862 -49.627  10.971  1.00  0.00     0.118 A 
HETATM   18  N   UNL     1     -41.362 -48.620  10.248  1.00  0.00    -0.310 N 
HETATM   19  N   UNL     1     -42.449 -48.243  10.940  1.00  0.00    -0.308 N 
ATOM     20  HN  UNL     1     -41.003 -48.231   9.376  1.00  0.00     0.186 HD
HETATM   21  C   UNL     1     -43.296 -47.176  10.475  1.00  0.00     0.177 C 
HETATM   22  C   UNL     1     -42.627 -48.950  12.090  1.00  0.00     0.120 A 
ENDBRANCH  12  16
ENDBRANCH   1  12
TORSDOF 5
ENDMDL
MODEL 8
REMARK VINA RESULT:      -5.4      3.472      6.022
REMARK  5 active torsions:
REMARK  status: ('A' for Active; 'I' for Inactive)
REMARK    1  A    between atoms: C_5  and  N_9 
REMARK    2  A    between atoms: N_9  and  C_10 
REMARK    3  A    between atoms: C_10  and  C_11 
REMARK    4  A    between atoms: C_11  and  N_12 
REMARK    5  A    between atoms: C_11  and  C_15 
ROOT
HETATM    1  C   UNL     1     -40.222 -50.008  11.068  1.00  0.00     0.310 C 
ENDROOT
BRANCH   1   2
HETATM    2  N   UNL     1     -41.099 -51.121  11.435  1.00  0.00     0.090 N 
HETATM    3  H   UNL     1     -42.008 -50.947  11.017  1.00  0.00     0.316 HD
BRANCH   2   4
HETATM    4  C   UNL     1     -41.314 -51.285  12.880  1.00  0.00     0.221 C 
HETATM    5  C   UNL     1     -40.440 -52.371  13.527  1.00  0.00     0.036 C 
HETATM    6  C   UNL     1     -40.761 -53.770  12.999  1.00  0.00     0.007 C 
HETATM    7  C   UNL     1     -42.249 -54.131  13.165  1.00  0.00    -0.015 C 
HETATM    8  C   UNL     1     -42.578 -54.387  14.642  1.00  0.00     0.010 C 
HETATM    9  C   UNL     1     -43.136 -53.042  12.512  1.00  0.00    -0.013 C 
HETATM   10  C   UNL     1     -42.804 -51.638  13.061  1.00  0.00     0.040 C 
HETATM   11  C   UNL     1     -44.631 -53.335  12.627  1.00  0.00     0.010 C 
ENDBRANCH   2   4
ENDBRANCH   1   2
BRANCH   1  12
HETATM   12  C   UNL     1     -40.085 -48.887  12.164  1.00  0.00     0.285 C 
BRANCH  12  13
HETATM   13  N   UNL     1     -38.809 -48.745  12.914  1.00  0.00     0.090 N 
HETATM   14  C   UNL     1     -38.946 -48.836  14.365  1.00  0.00     0.310 C 
HETATM   15  C   UNL     1     -37.709 -49.580  12.447  1.00  0.00     0.310 C 
ENDBRANCH  12  13
BRANCH  12  16
HETATM   16  C   UNL     1     -40.457 -47.561  11.532  1.00  0.00     0.011 A 
HETATM   17  C   UNL     1     -41.406 -47.316  10.508  1.00  0.00     0.118 A 
HETATM   18  N   UNL     1     -41.438 -46.035  10.126  1.00  0.00    -0.310 N 
HETATM   19  N   UNL     1     -40.517 -45.450  10.910  1.00  0.00    -0.308 N 
ATOM     20  HN  UNL     1     -42.023 -45.605   9.410  1.00  0.00     0.186 HD
HETATM   21  C   UNL     1     -40.255 -44.037  10.823  1.00  0.00     0.177 C 
HETATM   22  C   UNL     1     -39.883 -46.322  11.740  1.00  0.00     0.120 A 
ENDBRANCH  12  16
ENDBRANCH   1  12
TORSDOF 5
ENDMDL
MODEL 9
REMARK VINA RESULT:      -5.0      3.644      5.449
REMARK  5 active torsions:
REMARK  status: ('A' for Active; 'I' for Inactive)
REMARK    1  A    between atoms: C_5  and  N_9 
REMARK    2  A    between atoms: N_9  and  C_10 
REMARK    3  A    between atoms: C_10  and  C_11 
REMARK    4  A    between atoms: C_11  and  N_12 
REMARK    5  A    between atoms: C_11  and  C_15 
ROOT
HETATM    1  C   UNL     1     -41.810 -49.860  12.489  1.00  0.00     0.310 C 
ENDROOT
BRANCH   1   2
HETATM    2  N   UNL     1     -42.901 -50.834  12.435  1.00  0.00     0.090 N 
HETATM    3  H   UNL     1     -43.775 -50.317  12.446  1.00  0.00     0.316 HD
BRANCH   2   4
HETATM    4  C   UNL     1     -42.944 -51.773  13.565  1.00  0.00     0.221 C 
HETATM    5  C   UNL     1     -42.965 -53.254  13.152  1.00  0.00     0.036 C 
HETATM    6  C   UNL     1     -44.233 -53.626  12.382  1.00  0.00     0.007 C 
HETATM    7  C   UNL     1     -45.514 -53.286  13.165  1.00  0.00    -0.015 C 
HETATM    8  C   UNL     1     -45.697 -54.251  14.344  1.00  0.00     0.010 C 
HETATM    9  C   UNL     1     -45.501 -51.794  13.583  1.00  0.00    -0.013 C 
HETATM   10  C   UNL     1     -44.219 -51.437  14.364  1.00  0.00     0.040 C 
HETATM   11  C   UNL     1     -46.749 -51.375  14.359  1.00  0.00     0.010 C 
ENDBRANCH   2   4
ENDBRANCH   1   2
BRANCH   1  12
HETATM   12  C   UNL     1     -42.244 -48.405  12.906  1.00  0.00     0.285 C 
BRANCH  12  13
HETATM   13  N   UNL     1     -41.855 -47.877  14.241  1.00  0.00     0.090 N 
HETATM   14  C   UNL     1     -42.885 -47.079  14.899  1.00  0.00     0.310 C 
HETATM   15  C   UNL     1     -41.291 -48.854  15.164  1.00  0.00     0.310 C 
ENDBRANCH  12  13
BRANCH  12  16
HETATM   16  C   UNL     1     -41.786 -47.448  11.824  1.00  0.00     0.011 A 
HETATM   17  C   UNL     1     -42.326 -47.273  10.525  1.00  0.00     0.118 A 
HETATM   18  N   UNL     1     -41.638 -46.393   9.792  1.00  0.00    -0.310 N 
HETATM   19  N   UNL     1     -40.658 -45.990  10.619  1.00  0.00    -0.308 N 
ATOM     20  HN  UNL     1     -41.814 -46.096   8.832  1.00  0.00     0.186 HD
HETATM   21  C   UNL     1     -39.692 -45.007  10.205  1.00  0.00     0.177 C 
HETATM   22  C   UNL     1     -40.684 -46.614  11.828  1.00  0.00     0.120 A 
ENDBRANCH  12  16
ENDBRANCH   1  12
TORSDOF 5
ENDMDL
