MODEL 1
REMARK VINA RESULT:      -5.7      0.000      0.000
REMARK  4 active torsions:
REMARK  status: ('A' for Active; 'I' for Inactive)
REMARK    1  A    between atoms: C_9  and  C_10 
REMARK    2  A    between atoms: C_10  and  C_11 
REMARK       I    between atoms: C_11  and  N_13 
REMARK    3  A    between atoms: N_13  and  C_14 
REMARK    4  A    between atoms: C_17  and  O_18 
ROOT
HETATM    1  C   UNL     1     -40.895 -52.622  13.498  1.00  0.00     0.222 C 
HETATM    2  O   UNL     1     -40.199 -53.407  12.858  1.00  0.00    -0.273 OA
HETATM    3  N   UNL     1     -42.168 -52.933  13.933  1.00  0.00    -0.356 N 
HETATM    4  H   UNL     1     -42.658 -52.253  14.503  1.00  0.00     0.162 HD
ENDROOT
BRANCH   1   5
HETATM    5  C   UNL     1     -40.435 -51.211  13.828  1.00  0.00     0.145 C 
BRANCH   5   6
HETATM    6  C   UNL     1     -40.498 -50.225  12.703  1.00  0.00    -0.002 A 
HETATM    7  C   UNL     1     -39.476 -49.794  11.806  1.00  0.00     0.030 A 
HETATM    8  C   UNL     1     -38.047 -50.193  11.743  1.00  0.00     0.070 C 
HETATM    9  N   UNL     1     -39.941 -48.918  10.910  1.00  0.00    -0.303 N 
HETATM   10  N   UNL     1     -41.249 -48.812  11.184  1.00  0.00    -0.300 N 
ATOM     11  HN  UNL     1     -39.416 -48.437  10.180  1.00  0.00     0.186 HD
HETATM   12  C   UNL     1     -42.065 -47.944  10.366  1.00  0.00     0.177 C 
HETATM   13  C   UNL     1     -41.645 -49.583  12.245  1.00  0.00     0.033 A 
HETATM   14  C   UNL     1     -43.052 -49.677  12.716  1.00  0.00     0.070 C 
ENDBRANCH   5   6
ENDBRANCH   1   5
BRANCH   3  15
HETATM   15  C   UNL     1     -42.837 -54.179  13.565  1.00  0.00     0.084 C 
HETATM   16  C   UNL     1     -43.974 -53.939  12.558  1.00  0.00     0.028 C 
HETATM   17  C   UNL     1     -45.142 -53.165  13.173  1.00  0.00     0.034 C 
HETATM   18  C   UNL     1     -45.664 -53.797  14.465  1.00  0.00     0.118 C 
HETATM   19  C   UNL     1     -44.552 -54.158  15.452  1.00  0.00     0.034 C 
HETATM   20  C   UNL     1     -43.383 -54.901  14.802  1.00  0.00     0.028 C 
BRANCH  18  21
HETATM   21  O   UNL     1     -46.437 -54.956  14.168  1.00  0.00    -0.396 OA
HETATM   22  H   UNL     1     -45.958 -55.747  14.466  1.00  0.00     0.210 HD
ENDBRANCH  18  21
ENDBRANCH   3  15
TORSDOF 4
ENDMDL
MODEL 2
REMARK VINA RESULT:      -5.6      1.424      2.625
REMARK  4 active torsions:
REMARK  status: ('A' for Active; 'I' for Inactive)
REMARK    1  A    between atoms: C_9  and  C_10 
REMARK    2  A    between atoms: C_10  and  C_11 
REMARK       I    between atoms: C_11  and  N_13 
REMARK    3  A    between atoms: N_13  and  C_14 
REMARK    4  A    between atoms: C_17  and  O_18 
ROOT
HETATM    1  C   UNL     1     -42.728 -51.788  12.662  1.00  0.00     0.222 C 
HETATM    2  O   UNL     1     -42.245 -52.540  11.819  1.00  0.00    -0.273 OA
HETATM    3  N   UNL     1     -44.018 -51.921  13.135  1.00  0.00    -0.356 N 
HETATM    4  H   UNL     1     -44.324 -51.295  13.870  1.00  0.00     0.162 HD
ENDROOT
BRANCH   1   5
HETATM    5  C   UNL     1     -41.961 -50.602  13.227  1.00  0.00     0.145 C 
BRANCH   5   6
HETATM    6  C   UNL     1     -40.747 -50.185  12.457  1.00  0.00    -0.002 A 
HETATM    7  C   UNL     1     -40.597 -49.175  11.461  1.00  0.00     0.030 A 
HETATM    8  C   UNL     1     -41.615 -48.256  10.890  1.00  0.00     0.070 C 
HETATM    9  N   UNL     1     -39.334 -49.085  11.032  1.00  0.00    -0.303 N 
HETATM   10  N   UNL     1     -38.661 -49.983  11.764  1.00  0.00    -0.300 N 
ATOM     11  HN  UNL     1     -38.965 -48.468  10.309  1.00  0.00     0.186 HD
HETATM   12  C   UNL     1     -37.237 -50.123  11.562  1.00  0.00     0.177 C 
HETATM   13  C   UNL     1     -39.455 -50.668  12.647  1.00  0.00     0.033 A 
HETATM   14  C   UNL     1     -38.939 -51.682  13.603  1.00  0.00     0.070 C 
ENDBRANCH   5   6
ENDBRANCH   1   5
BRANCH   3  15
HETATM   15  C   UNL     1     -44.954 -52.898  12.584  1.00  0.00     0.084 C 
HETATM   16  C   UNL     1     -46.408 -52.568  12.959  1.00  0.00     0.028 C 
HETATM   17  C   UNL     1     -46.676 -52.736  14.456  1.00  0.00     0.034 C 
HETATM   18  C   UNL     1     -46.260 -54.110  14.987  1.00  0.00     0.118 C 
HETATM   19  C   UNL     1     -44.859 -54.529  14.542  1.00  0.00     0.034 C 
HETATM   20  C   UNL     1     -44.609 -54.318  13.047  1.00  0.00     0.028 C 
BRANCH  18  21
HETATM   21  O   UNL     1     -47.207 -55.097  14.588  1.00  0.00    -0.396 OA
HETATM   22  H   UNL     1     -46.736 -55.901  14.311  1.00  0.00     0.210 HD
ENDBRANCH  18  21
ENDBRANCH   3  15
TORSDOF 4
ENDMDL
MODEL 3
REMARK VINA RESULT:      -5.6      2.420      3.644
REMARK  4 active torsions:
REMARK  status: ('A' for Active; 'I' for Inactive)
REMARK    1  A    between atoms: C_9  and  C_10 
REMARK    2  A    between atoms: C_10  and  C_11 
REMARK       I    between atoms: C_11  and  N_13 
REMARK    3  A    between atoms: N_13  and  C_14 
REMARK    4  A    between atoms: C_17  and  O_18 
ROOT
HETATM    1  C   UNL     1     -42.911 -49.493  12.691  1.00  0.00     0.222 C 
HETATM    2  O   UNL     1     -43.140 -48.555  13.452  1.00  0.00    -0.273 OA
HETATM    3  N   UNL     1     -43.602 -50.687  12.745  1.00  0.00    -0.356 N 
HETATM    4  H   UNL     1     -43.392 -51.392  12.049  1.00  0.00     0.162 HD
ENDROOT
BRANCH   1   5
HETATM    5  C   UNL     1     -41.804 -49.443  11.650  1.00  0.00     0.145 C 
BRANCH   5   6
HETATM    6  C   UNL     1     -41.503 -48.091  11.083  1.00  0.00    -0.002 A 
HETATM    7  C   UNL     1     -42.227 -47.317  10.128  1.00  0.00     0.030 A 
HETATM    8  C   UNL     1     -43.485 -47.643   9.409  1.00  0.00     0.070 C 
HETATM    9  N   UNL     1     -41.644 -46.135   9.904  1.00  0.00    -0.303 N 
HETATM   10  N   UNL     1     -40.587 -46.114  10.728  1.00  0.00    -0.300 N 
ATOM     11  HN  UNL     1     -41.939 -45.409   9.250  1.00  0.00     0.186 HD
HETATM   12  C   UNL     1     -39.743 -44.943  10.751  1.00  0.00     0.177 C 
HETATM   13  C   UNL     1     -40.457 -47.258  11.471  1.00  0.00     0.033 A 
HETATM   14  C   UNL     1     -39.395 -47.462  12.491  1.00  0.00     0.070 C 
ENDBRANCH   5   6
ENDBRANCH   1   5
BRANCH   3  15
HETATM   15  C   UNL     1     -44.583 -50.975  13.789  1.00  0.00     0.084 C 
HETATM   16  C   UNL     1     -44.133 -52.137  14.689  1.00  0.00     0.028 C 
HETATM   17  C   UNL     1     -44.113 -53.475  13.947  1.00  0.00     0.034 C 
HETATM   18  C   UNL     1     -45.437 -53.790  13.247  1.00  0.00     0.118 C 
HETATM   19  C   UNL     1     -45.981 -52.618  12.430  1.00  0.00     0.034 C 
HETATM   20  C   UNL     1     -45.957 -51.288  13.186  1.00  0.00     0.028 C 
BRANCH  18  21
HETATM   21  O   UNL     1     -46.410 -54.203  14.203  1.00  0.00    -0.396 OA
HETATM   22  H   UNL     1     -46.807 -55.042  13.915  1.00  0.00     0.210 HD
ENDBRANCH  18  21
ENDBRANCH   3  15
TORSDOF 4
ENDMDL
MODEL 4
REMARK VINA RESULT:      -5.4      2.005      3.120
REMARK  4 active torsions:
REMARK  status: ('A' for Active; 'I' for Inactive)
REMARK    1  A    between atoms: C_9  and  C_10 
REMARK    2  A    between atoms: C_10  and  C_11 
REMARK       I    between atoms: C_11  and  N_13 
REMARK    3  A    between atoms: N_13  and  C_14 
REMARK    4  A    between atoms: C_17  and  O_18 
ROOT
HETATM    1  C   UNL     1     -42.208 -50.296  12.294  1.00  0.00     0.222 C 
HETATM    2  O   UNL     1     -41.167 -50.566  11.697  1.00  0.00    -0.273 OA
HETATM    3  N   UNL     1     -43.066 -51.263  12.779  1.00  0.00    -0.356 N 
HETATM    4  H   UNL     1     -43.875 -50.962  13.307  1.00  0.00     0.162 HD
ENDROOT
BRANCH   1   5
HETATM    5  C   UNL     1     -42.674 -48.865  12.508  1.00  0.00     0.145 C 
BRANCH   5   6
HETATM    6  C   UNL     1     -42.108 -47.848  11.567  1.00  0.00    -0.002 A 
HETATM    7  C   UNL     1     -42.662 -47.298  10.372  1.00  0.00     0.030 A 
HETATM    8  C   UNL     1     -43.959 -47.593   9.711  1.00  0.00     0.070 C 
HETATM    9  N   UNL     1     -41.854 -46.383   9.828  1.00  0.00    -0.303 N 
HETATM   10  N   UNL     1     -40.815 -46.299  10.671  1.00  0.00    -0.300 N 
ATOM     11  HN  UNL     1     -41.997 -45.862   8.962  1.00  0.00     0.186 HD
HETATM   12  C   UNL     1     -39.754 -45.363  10.381  1.00  0.00     0.177 C 
HETATM   13  C   UNL     1     -40.917 -47.148  11.741  1.00  0.00     0.033 A 
HETATM   14  C   UNL     1     -39.918 -47.211  12.841  1.00  0.00     0.070 C 
ENDBRANCH   5   6
ENDBRANCH   1   5
BRANCH   3  15
HETATM   15  C   UNL     1     -42.865 -52.687  12.519  1.00  0.00     0.084 C 
HETATM   16  C   UNL     1     -44.200 -53.432  12.364  1.00  0.00     0.028 C 
HETATM   17  C   UNL     1     -44.987 -53.495  13.676  1.00  0.00     0.034 C 
HETATM   18  C   UNL     1     -44.165 -54.055  14.839  1.00  0.00     0.118 C 
HETATM   19  C   UNL     1     -42.779 -53.420  14.960  1.00  0.00     0.034 C 
HETATM   20  C   UNL     1     -42.031 -53.340  13.627  1.00  0.00     0.028 C 
BRANCH  18  21
HETATM   21  O   UNL     1     -44.037 -55.469  14.713  1.00  0.00    -0.396 OA
HETATM   22  H   UNL     1     -44.557 -55.902  15.410  1.00  0.00     0.210 HD
ENDBRANCH  18  21
ENDBRANCH   3  15
TORSDOF 4
ENDMDL
MODEL 5
REMARK VINA RESULT:      -5.3      4.028      5.512
REMARK  4 active torsions:
REMARK  status: ('A' for Active; 'I' for Inactive)
REMARK    1  A    between atoms: C_9  and  C_10 
REMARK    2  A    between atoms: C_10  and  C_11 
REMARK       I    between atoms: C_11  and  N_13 
REMARK    3  A    between atoms: N_13  and  C_14 
REMARK    4  A    between atoms: C_17  and  O_18 
ROOT
HETATM    1  C   UNL     1     -43.577 -53.965  16.395  1.00  0.00     0.222 C 
HETATM    2  O   UNL     1     -43.896 -55.090  16.776  1.00  0.00    -0.273 OA
HETATM    3  N   UNL     1     -44.376 -53.199  15.569  1.00  0.00    -0.356 N 
HETATM    4  H   UNL     1     -44.068 -52.261  15.344  1.00  0.00     0.162 HD
ENDROOT
BRANCH   1   5
HETATM    5  C   UNL     1     -42.244 -53.333  16.759  1.00  0.00     0.145 C 
BRANCH   5   6
HETATM    6  C   UNL     1     -41.026 -54.049  16.265  1.00  0.00    -0.002 A 
HETATM    7  C   UNL     1     -40.576 -54.278  14.931  1.00  0.00     0.030 A 
HETATM    8  C   UNL     1     -41.202 -53.879  13.644  1.00  0.00     0.070 C 
HETATM    9  N   UNL     1     -39.413 -54.936  14.907  1.00  0.00    -0.303 N 
HETATM   10  N   UNL     1     -39.083 -55.095  16.196  1.00  0.00    -0.300 N 
ATOM     11  HN  UNL     1     -38.891 -55.248  14.087  1.00  0.00     0.186 HD
HETATM   12  C   UNL     1     -37.844 -55.761  16.523  1.00  0.00     0.177 C 
HETATM   13  C   UNL     1     -40.009 -54.573  17.060  1.00  0.00     0.033 A 
HETATM   14  C   UNL     1     -39.852 -54.579  18.539  1.00  0.00     0.070 C 
ENDBRANCH   5   6
ENDBRANCH   1   5
BRANCH   3  15
HETATM   15  C   UNL     1     -45.613 -53.711  14.985  1.00  0.00     0.084 C 
HETATM   16  C   UNL     1     -45.360 -54.417  13.643  1.00  0.00     0.028 C 
HETATM   17  C   UNL     1     -44.915 -53.445  12.549  1.00  0.00     0.034 C 
HETATM   18  C   UNL     1     -45.862 -52.255  12.384  1.00  0.00     0.118 C 
HETATM   19  C   UNL     1     -46.233 -51.591  13.711  1.00  0.00     0.034 C 
HETATM   20  C   UNL     1     -46.641 -52.590  14.796  1.00  0.00     0.028 C 
BRANCH  18  21
HETATM   21  O   UNL     1     -47.046 -52.661  11.703  1.00  0.00    -0.396 OA
HETATM   22  H   UNL     1     -47.020 -53.621  11.557  1.00  0.00     0.210 HD
ENDBRANCH  18  21
ENDBRANCH   3  15
TORSDOF 4
ENDMDL
MODEL 6
REMARK VINA RESULT:      -5.3      1.852      2.521
REMARK  4 active torsions:
REMARK  status: ('A' for Active; 'I' for Inactive)
REMARK    1  A    between atoms: C_9  and  C_10 
REMARK    2  A    between atoms: C_10  and  C_11 
REMARK       I    between atoms: C_11  and  N_13 
REMARK    3  A    between atoms: N_13  and  C_14 
REMARK    4  A    between atoms: C_17  and  O_18 
ROOT
HETATM    1  C   UNL     1     -41.485 -50.782  12.765  1.00  0.00     0.222 C 
HETATM    2  O   UNL     1     -40.738 -51.135  13.676  1.00  0.00    -0.273 OA
HETATM    3  N   UNL     1     -42.856 -50.932  12.819  1.00  0.00    -0.356 N 
HETATM    4  H   UNL     1     -43.408 -50.566  12.053  1.00  0.00     0.162 HD
ENDROOT
BRANCH   1   5
HETATM    5  C   UNL     1     -40.959 -50.192  11.466  1.00  0.00     0.145 C 
BRANCH   5   6
HETATM    6  C   UNL     1     -40.669 -48.723  11.488  1.00  0.00    -0.002 A 
HETATM    7  C   UNL     1     -39.604 -48.010  12.114  1.00  0.00     0.030 A 
HETATM    8  C   UNL     1     -38.481 -48.524  12.939  1.00  0.00     0.070 C 
HETATM    9  N   UNL     1     -39.677 -46.697  11.870  1.00  0.00    -0.303 N 
HETATM   10  N   UNL     1     -40.739 -46.558  11.065  1.00  0.00    -0.300 N 
ATOM     11  HN  UNL     1     -39.060 -45.964  12.220  1.00  0.00     0.186 HD
HETATM   12  C   UNL     1     -41.086 -45.239  10.588  1.00  0.00     0.177 C 
HETATM   13  C   UNL     1     -41.370 -47.743  10.791  1.00  0.00     0.033 A 
HETATM   14  C   UNL     1     -42.543 -47.862   9.885  1.00  0.00     0.070 C 
ENDBRANCH   5   6
ENDBRANCH   1   5
BRANCH   3  15
HETATM   15  C   UNL     1     -43.523 -51.630  13.916  1.00  0.00     0.084 C 
HETATM   16  C   UNL     1     -43.618 -53.142  13.654  1.00  0.00     0.028 C 
HETATM   17  C   UNL     1     -44.562 -53.473  12.496  1.00  0.00     0.034 C 
HETATM   18  C   UNL     1     -45.948 -52.845  12.655  1.00  0.00     0.118 C 
HETATM   19  C   UNL     1     -45.899 -51.363  13.031  1.00  0.00     0.034 C 
HETATM   20  C   UNL     1     -44.922 -51.058  14.168  1.00  0.00     0.028 C 
BRANCH  18  21
HETATM   21  O   UNL     1     -46.703 -53.562  13.629  1.00  0.00    -0.396 OA
HETATM   22  H   UNL     1     -47.627 -53.626  13.335  1.00  0.00     0.210 HD
ENDBRANCH  18  21
ENDBRANCH   3  15
TORSDOF 4
ENDMDL
MODEL 7
REMARK VINA RESULT:      -5.2      2.624      3.846
REMARK  4 active torsions:
REMARK  status: ('A' for Active; 'I' for Inactive)
REMARK    1  A    between atoms: C_9  and  C_10 
REMARK    2  A    between atoms: C_10  and  C_11 
REMARK       I    between atoms: C_11  and  N_13 
REMARK    3  A    between atoms: N_13  and  C_14 
REMARK    4  A    between atoms: C_17  and  O_18 
ROOT
HETATM    1  C   UNL     1     -43.065 -54.581  15.877  1.00  0.00     0.222 C 
HETATM    2  O   UNL     1     -43.121 -55.804  15.767  1.00  0.00    -0.273 OA
HETATM    3  N   UNL     1     -44.100 -53.747  15.502  1.00  0.00    -0.356 N 
HETATM    4  H   UNL     1     -44.000 -52.754  15.675  1.00  0.00     0.162 HD
ENDROOT
BRANCH   1   5
HETATM    5  C   UNL     1     -41.825 -53.867  16.391  1.00  0.00     0.145 C 
BRANCH   5   6
HETATM    6  C   UNL     1     -41.309 -52.756  15.531  1.00  0.00    -0.002 A 
HETATM    7  C   UNL     1     -41.114 -51.377  15.837  1.00  0.00     0.030 A 
HETATM    8  C   UNL     1     -41.384 -50.644  17.101  1.00  0.00     0.070 C 
HETATM    9  N   UNL     1     -40.599 -50.707  14.801  1.00  0.00    -0.303 N 
HETATM   10  N   UNL     1     -40.416 -51.636  13.851  1.00  0.00    -0.300 N 
ATOM     11  HN  UNL     1     -40.390 -49.710  14.745  1.00  0.00     0.186 HD
HETATM   12  C   UNL     1     -39.840 -51.239  12.588  1.00  0.00     0.177 C 
HETATM   13  C   UNL     1     -40.815 -52.889  14.236  1.00  0.00     0.033 A 
HETATM   14  C   UNL     1     -40.672 -54.097  13.381  1.00  0.00     0.070 C 
ENDBRANCH   5   6
ENDBRANCH   1   5
BRANCH   3  15
HETATM   15  C   UNL     1     -45.300 -54.244  14.834  1.00  0.00     0.084 C 
HETATM   16  C   UNL     1     -45.021 -54.630  13.372  1.00  0.00     0.028 C 
HETATM   17  C   UNL     1     -44.698 -53.414  12.501  1.00  0.00     0.034 C 
HETATM   18  C   UNL     1     -45.756 -52.312  12.596  1.00  0.00     0.118 C 
HETATM   19  C   UNL     1     -46.149 -51.976  14.035  1.00  0.00     0.034 C 
HETATM   20  C   UNL     1     -46.433 -53.212  14.891  1.00  0.00     0.028 C 
BRANCH  18  21
HETATM   21  O   UNL     1     -46.916 -52.681  11.854  1.00  0.00    -0.396 OA
HETATM   22  H   UNL     1     -46.715 -52.645  10.904  1.00  0.00     0.210 HD
ENDBRANCH  18  21
ENDBRANCH   3  15
TORSDOF 4
ENDMDL
MODEL 8
REMARK VINA RESULT:      -5.2      2.822      5.605
REMARK  4 active torsions:
REMARK  status: ('A' for Active; 'I' for Inactive)
REMARK    1  A    between atoms: C_9  and  C_10 
REMARK    2  A    between atoms: C_10  and  C_11 
REMARK       I    between atoms: C_11  and  N_13 
REMARK    3  A    between atoms: N_13  and  C_14 
REMARK    4  A    between atoms: C_17  and  O_18 
ROOT
HETATM    1  C   UNL     1     -42.547 -50.232  13.397  1.00  0.00     0.222 C 
HETATM    2  O   UNL     1     -42.469 -49.664  12.309  1.00  0.00    -0.273 OA
HETATM    3  N   UNL     1     -41.613 -51.150  13.832  1.00  0.00    -0.356 N 
HETATM    4  H   UNL     1     -41.718 -51.534  14.764  1.00  0.00     0.162 HD
ENDROOT
BRANCH   1   5
HETATM    5  C   UNL     1     -43.715 -50.011  14.346  1.00  0.00     0.145 C 
BRANCH   5   6
HETATM    6  C   UNL     1     -44.402 -51.248  14.833  1.00  0.00    -0.002 A 
HETATM    7  C   UNL     1     -44.219 -51.981  16.043  1.00  0.00     0.030 A 
HETATM    8  C   UNL     1     -43.278 -51.730  17.164  1.00  0.00     0.070 C 
HETATM    9  N   UNL     1     -45.056 -53.021  16.124  1.00  0.00    -0.303 N 
HETATM   10  N   UNL     1     -45.803 -52.945  15.013  1.00  0.00    -0.300 N 
ATOM     11  HN  UNL     1     -45.114 -53.717  16.866  1.00  0.00     0.186 HD
HETATM   12  C   UNL     1     -46.841 -53.926  14.801  1.00  0.00     0.177 C 
HETATM   13  C   UNL     1     -45.464 -51.893  14.203  1.00  0.00     0.033 A 
HETATM   14  C   UNL     1     -46.173 -51.564  12.938  1.00  0.00     0.070 C 
ENDBRANCH   5   6
ENDBRANCH   1   5
BRANCH   3  15
HETATM   15  C   UNL     1     -40.517 -51.611  12.983  1.00  0.00     0.084 C 
HETATM   16  C   UNL     1     -40.892 -52.883  12.208  1.00  0.00     0.028 C 
HETATM   17  C   UNL     1     -41.064 -54.096  13.126  1.00  0.00     0.034 C 
HETATM   18  C   UNL     1     -39.857 -54.331  14.037  1.00  0.00     0.118 C 
HETATM   19  C   UNL     1     -39.376 -53.063  14.743  1.00  0.00     0.034 C 
HETATM   20  C   UNL     1     -39.247 -51.860  13.806  1.00  0.00     0.028 C 
BRANCH  18  21
HETATM   21  O   UNL     1     -38.784 -54.902  13.291  1.00  0.00    -0.396 OA
HETATM   22  H   UNL     1     -38.075 -55.167  13.900  1.00  0.00     0.210 HD
ENDBRANCH  18  21
ENDBRANCH   3  15
TORSDOF 4
ENDMDL
MODEL 9
REMARK VINA RESULT:      -5.2      2.188      3.392
REMARK  4 active torsions:
REMARK  status: ('A' for Active; 'I' for Inactive)
REMARK    1  A    between atoms: C_9  and  C_10 
REMARK    2  A    between atoms: C_10  and  C_11 
REMARK       I    between atoms: C_11  and  N_13 
REMARK    3  A    between atoms: N_13  and  C_14 
REMARK    4  A    between atoms: C_17  and  O_18 
ROOT
HETATM    1  C   UNL     1     -43.139 -48.992  14.543  1.00  0.00     0.222 C 
HETATM    2  O   UNL     1     -43.045 -48.911  15.766  1.00  0.00    -0.273 OA
HETATM    3  N   UNL     1     -43.797 -50.028  13.909  1.00  0.00    -0.356 N 
HETATM    4  H   UNL     1     -43.878 -49.995  12.900  1.00  0.00     0.162 HD
ENDROOT
BRANCH   1   5
HETATM    5  C   UNL     1     -42.491 -47.982  13.610  1.00  0.00     0.145 C 
BRANCH   5   6
HETATM    6  C   UNL     1     -41.528 -48.542  12.610  1.00  0.00    -0.002 A 
HETATM    7  C   UNL     1     -41.585 -48.544  11.185  1.00  0.00     0.030 A 
HETATM    8  C   UNL     1     -42.633 -48.001  10.283  1.00  0.00     0.070 C 
HETATM    9  N   UNL     1     -40.505 -49.119  10.647  1.00  0.00    -0.303 N 
HETATM   10  N   UNL     1     -39.734 -49.444  11.694  1.00  0.00    -0.300 N 
ATOM     11  HN  UNL     1     -40.311 -49.275   9.658  1.00  0.00     0.186 HD
HETATM   12  C   UNL     1     -38.456 -50.072  11.451  1.00  0.00     0.177 C 
HETATM   13  C   UNL     1     -40.291 -49.112  12.901  1.00  0.00     0.033 A 
HETATM   14  C   UNL     1     -39.614 -49.325  14.207  1.00  0.00     0.070 C 
ENDBRANCH   5   6
ENDBRANCH   1   5
BRANCH   3  15
HETATM   15  C   UNL     1     -44.334 -51.174  14.639  1.00  0.00     0.084 C 
HETATM   16  C   UNL     1     -43.643 -52.485  14.229  1.00  0.00     0.028 C 
HETATM   17  C   UNL     1     -43.971 -52.890  12.789  1.00  0.00     0.034 C 
HETATM   18  C   UNL     1     -45.474 -52.939  12.510  1.00  0.00     0.118 C 
HETATM   19  C   UNL     1     -46.221 -51.700  13.006  1.00  0.00     0.034 C 
HETATM   20  C   UNL     1     -45.848 -51.300  14.436  1.00  0.00     0.028 C 
BRANCH  18  21
HETATM   21  O   UNL     1     -46.044 -54.108  13.091  1.00  0.00    -0.396 OA
HETATM   22  H   UNL     1     -46.684 -54.496  12.472  1.00  0.00     0.210 HD
ENDBRANCH  18  21
ENDBRANCH   3  15
TORSDOF 4
ENDMDL
