MODEL 1
REMARK VINA RESULT:      -5.5      0.000      0.000
REMARK  4 active torsions:
REMARK  status: ('A' for Active; 'I' for Inactive)
REMARK    1  A    between atoms: C_9  and  N_10 
REMARK    2  A    between atoms: N_10  and  C_11 
REMARK    3  A    between atoms: C_11  and  C_12 
REMARK    4  A    between atoms: C_12  and  C_13 
ROOT
HETATM    1  N   UNL     1     -46.401 -54.405  14.090  1.00  0.00     0.088 N 
HETATM    2  H   UNL     1     -46.812 -53.789  13.387  1.00  0.00     0.316 HD
ENDROOT
BRANCH   1   3
HETATM    3  C   UNL     1     -46.474 -53.740  15.406  1.00  0.00     0.228 C 
HETATM    4  C   UNL     1     -47.144 -52.346  15.326  1.00  0.00     0.043 C 
HETATM    5  C   UNL     1     -46.475 -51.371  14.349  1.00  0.00     0.014 C 
HETATM    6  C   UNL     1     -47.206 -51.739  16.747  1.00  0.00     0.278 C 
HETATM    7  N   UNL     1     -45.887 -51.685  17.392  1.00  0.00     0.088 N 
HETATM    8  C   UNL     1     -45.951 -50.986  18.674  1.00  0.00     0.310 C 
HETATM    9  C   UNL     1     -45.233 -53.001  17.499  1.00  0.00     0.220 C 
HETATM   10  C   UNL     1     -45.878 -53.988  18.487  1.00  0.00     0.043 C 
HETATM   11  C   UNL     1     -45.109 -53.635  16.105  1.00  0.00     0.071 C 
ENDBRANCH   1   3
BRANCH   1  12
HETATM   12  C   UNL     1     -45.027 -54.734  13.659  1.00  0.00     0.276 C 
BRANCH  12  13
HETATM   13  C   UNL     1     -44.509 -53.878  12.496  1.00  0.00     0.087 C 
BRANCH  13  14
HETATM   14  C   UNL     1     -43.056 -53.522  12.660  1.00  0.00     0.010 A 
HETATM   15  C   UNL     1     -42.287 -54.111  13.657  1.00  0.00     0.025 A 
HETATM   16  C   UNL     1     -40.959 -53.719  13.798  1.00  0.00     0.003 A 
HETATM   17  C   UNL     1     -40.437 -52.758  12.939  1.00  0.00     0.017 A 
HETATM   18  C   UNL     1     -41.266 -52.232  11.965  1.00  0.00     0.088 A 
HETATM   19  N   UNL     1     -42.556 -52.595  11.804  1.00  0.00    -0.369 N 
ATOM     20  HN  UNL     1     -43.133 -52.188  11.067  1.00  0.00     0.165 HD
ENDBRANCH  13  14
ENDBRANCH  12  13
ENDBRANCH   1  12
TORSDOF 4
ENDMDL
MODEL 2
REMARK VINA RESULT:      -5.4      2.891      6.357
REMARK  4 active torsions:
REMARK  status: ('A' for Active; 'I' for Inactive)
REMARK    1  A    between atoms: C_9  and  N_10 
REMARK    2  A    between atoms: N_10  and  C_11 
REMARK    3  A    between atoms: C_11  and  C_12 
REMARK    4  A    between atoms: C_12  and  C_13 
ROOT
HETATM    1  N   UNL     1     -41.877 -52.004  11.753  1.00  0.00     0.088 N 
HETATM    2  H   UNL     1     -41.377 -52.420  10.966  1.00  0.00     0.316 HD
ENDROOT
BRANCH   1   3
HETATM    3  C   UNL     1     -41.086 -50.873  12.274  1.00  0.00     0.228 C 
HETATM    4  C   UNL     1     -41.848 -50.069  13.358  1.00  0.00     0.043 C 
HETATM    5  C   UNL     1     -43.207 -49.519  12.906  1.00  0.00     0.014 C 
HETATM    6  C   UNL     1     -40.937 -48.929  13.868  1.00  0.00     0.278 C 
HETATM    7  N   UNL     1     -40.451 -48.070  12.780  1.00  0.00     0.088 N 
HETATM    8  C   UNL     1     -39.707 -46.925  13.300  1.00  0.00     0.310 C 
HETATM    9  C   UNL     1     -39.705 -48.804  11.742  1.00  0.00     0.220 C 
HETATM   10  C   UNL     1     -38.332 -49.351  12.170  1.00  0.00     0.043 C 
HETATM   11  C   UNL     1     -40.581 -49.930  11.171  1.00  0.00     0.071 C 
ENDBRANCH   1   3
BRANCH   1  12
HETATM   12  C   UNL     1     -42.130 -53.068  12.745  1.00  0.00     0.276 C 
BRANCH  12  13
HETATM   13  C   UNL     1     -43.504 -53.738  12.616  1.00  0.00     0.087 C 
BRANCH  13  14
HETATM   14  C   UNL     1     -44.609 -52.869  13.153  1.00  0.00     0.010 A 
HETATM   15  C   UNL     1     -44.667 -52.544  14.504  1.00  0.00     0.025 A 
HETATM   16  C   UNL     1     -45.731 -51.772  14.962  1.00  0.00     0.003 A 
HETATM   17  C   UNL     1     -46.700 -51.344  14.061  1.00  0.00     0.017 A 
HETATM   18  C   UNL     1     -46.560 -51.700  12.732  1.00  0.00     0.088 A 
HETATM   19  N   UNL     1     -45.538 -52.445  12.259  1.00  0.00    -0.369 N 
ATOM     20  HN  UNL     1     -45.467 -52.680  11.269  1.00  0.00     0.165 HD
ENDBRANCH  13  14
ENDBRANCH  12  13
ENDBRANCH   1  12
TORSDOF 4
ENDMDL
MODEL 3
REMARK VINA RESULT:      -5.4      2.463      4.375
REMARK  4 active torsions:
REMARK  status: ('A' for Active; 'I' for Inactive)
REMARK    1  A    between atoms: C_9  and  N_10 
REMARK    2  A    between atoms: N_10  and  C_11 
REMARK    3  A    between atoms: C_11  and  C_12 
REMARK    4  A    between atoms: C_12  and  C_13 
ROOT
HETATM    1  N   UNL     1     -43.717 -50.016  12.424  1.00  0.00     0.088 N 
HETATM    2  H   UNL     1     -44.255 -49.148  12.378  1.00  0.00     0.316 HD
ENDROOT
BRANCH   1   3
HETATM    3  C   UNL     1     -44.376 -50.934  13.372  1.00  0.00     0.228 C 
HETATM    4  C   UNL     1     -43.533 -52.205  13.646  1.00  0.00     0.043 C 
HETATM    5  C   UNL     1     -43.170 -53.011  12.392  1.00  0.00     0.014 C 
HETATM    6  C   UNL     1     -44.280 -53.090  14.669  1.00  0.00     0.278 C 
HETATM    7  N   UNL     1     -45.648 -53.413  14.239  1.00  0.00     0.088 N 
HETATM    8  C   UNL     1     -46.283 -54.359  15.154  1.00  0.00     0.310 C 
HETATM    9  C   UNL     1     -46.480 -52.223  13.989  1.00  0.00     0.220 C 
HETATM   10  C   UNL     1     -46.869 -51.409  15.235  1.00  0.00     0.043 C 
HETATM   11  C   UNL     1     -45.800 -51.322  12.946  1.00  0.00     0.071 C 
ENDBRANCH   1   3
BRANCH   1  12
HETATM   12  C   UNL     1     -42.328 -49.671  12.788  1.00  0.00     0.276 C 
BRANCH  12  13
HETATM   13  C   UNL     1     -41.366 -49.582  11.596  1.00  0.00     0.087 C 
BRANCH  13  14
HETATM   14  C   UNL     1     -39.990 -50.083  11.942  1.00  0.00     0.010 A 
HETATM   15  C   UNL     1     -39.776 -50.846  13.085  1.00  0.00     0.025 A 
HETATM   16  C   UNL     1     -38.479 -51.251  13.386  1.00  0.00     0.003 A 
HETATM   17  C   UNL     1     -37.438 -50.889  12.539  1.00  0.00     0.017 A 
HETATM   18  C   UNL     1     -37.739 -50.141  11.415  1.00  0.00     0.088 A 
HETATM   19  N   UNL     1     -38.986 -49.737  11.096  1.00  0.00    -0.369 N 
ATOM     20  HN  UNL     1     -39.168 -49.192  10.253  1.00  0.00     0.165 HD
ENDBRANCH  13  14
ENDBRANCH  12  13
ENDBRANCH   1  12
TORSDOF 4
ENDMDL
MODEL 4
REMARK VINA RESULT:      -5.3      3.847      6.987
REMARK  4 active torsions:
REMARK  status: ('A' for Active; 'I' for Inactive)
REMARK    1  A    between atoms: C_9  and  N_10 
REMARK    2  A    between atoms: N_10  and  C_11 
REMARK    3  A    between atoms: C_11  and  C_12 
REMARK    4  A    between atoms: C_12  and  C_13 
ROOT
HETATM    1  N   UNL     1     -40.540 -50.411  11.185  1.00  0.00     0.088 N 
HETATM    2  H   UNL     1     -39.529 -50.367  11.327  1.00  0.00     0.316 HD
ENDROOT
BRANCH   1   3
HETATM    3  C   UNL     1     -41.060 -49.038  11.043  1.00  0.00     0.228 C 
HETATM    4  C   UNL     1     -39.980 -47.964  11.327  1.00  0.00     0.043 C 
HETATM    5  C   UNL     1     -39.322 -48.073  12.709  1.00  0.00     0.014 C 
HETATM    6  C   UNL     1     -40.602 -46.564  11.126  1.00  0.00     0.278 C 
HETATM    7  N   UNL     1     -41.810 -46.364  11.937  1.00  0.00     0.088 N 
HETATM    8  C   UNL     1     -42.299 -44.990  11.832  1.00  0.00     0.310 C 
HETATM    9  C   UNL     1     -42.864 -47.359  11.675  1.00  0.00     0.220 C 
HETATM   10  C   UNL     1     -43.549 -47.258  10.301  1.00  0.00     0.043 C 
HETATM   11  C   UNL     1     -42.309 -48.775  11.899  1.00  0.00     0.071 C 
ENDBRANCH   1   3
BRANCH   1  12
HETATM   12  C   UNL     1     -41.126 -51.162  12.313  1.00  0.00     0.276 C 
BRANCH  12  13
HETATM   13  C   UNL     1     -41.152 -52.683  12.114  1.00  0.00     0.087 C 
BRANCH  13  14
HETATM   14  C   UNL     1     -42.379 -53.311  12.718  1.00  0.00     0.010 A 
HETATM   15  C   UNL     1     -42.283 -54.124  13.842  1.00  0.00     0.025 A 
HETATM   16  C   UNL     1     -43.439 -54.716  14.340  1.00  0.00     0.003 A 
HETATM   17  C   UNL     1     -44.655 -54.478  13.708  1.00  0.00     0.017 A 
HETATM   18  C   UNL     1     -44.665 -53.646  12.603  1.00  0.00     0.088 A 
HETATM   19  N   UNL     1     -43.560 -53.055  12.100  1.00  0.00    -0.369 N 
ATOM     20  HN  UNL     1     -43.611 -52.442  11.287  1.00  0.00     0.165 HD
ENDBRANCH  13  14
ENDBRANCH  12  13
ENDBRANCH   1  12
TORSDOF 4
ENDMDL
MODEL 5
REMARK VINA RESULT:      -5.2      4.255      7.138
REMARK  4 active torsions:
REMARK  status: ('A' for Active; 'I' for Inactive)
REMARK    1  A    between atoms: C_9  and  N_10 
REMARK    2  A    between atoms: N_10  and  C_11 
REMARK    3  A    between atoms: C_11  and  C_12 
REMARK    4  A    between atoms: C_12  and  C_13 
ROOT
HETATM    1  N   UNL     1     -42.104 -49.855  11.631  1.00  0.00     0.088 N 
HETATM    2  H   UNL     1     -42.062 -50.073  10.635  1.00  0.00     0.316 HD
ENDROOT
BRANCH   1   3
HETATM    3  C   UNL     1     -41.773 -48.430  11.820  1.00  0.00     0.228 C 
HETATM    4  C   UNL     1     -42.754 -47.491  11.074  1.00  0.00     0.043 C 
HETATM    5  C   UNL     1     -42.860 -47.749   9.566  1.00  0.00     0.014 C 
HETATM    6  C   UNL     1     -42.353 -46.025  11.352  1.00  0.00     0.278 C 
HETATM    7  N   UNL     1     -40.951 -45.751  11.006  1.00  0.00     0.088 N 
HETATM    8  C   UNL     1     -40.637 -44.331  11.150  1.00  0.00     0.310 C 
HETATM    9  C   UNL     1     -39.992 -46.616  11.716  1.00  0.00     0.220 C 
HETATM   10  C   UNL     1     -39.859 -46.364  13.227  1.00  0.00     0.043 C 
HETATM   11  C   UNL     1     -40.322 -48.092  11.442  1.00  0.00     0.071 C 
ENDBRANCH   1   3
BRANCH   1  12
HETATM   12  C   UNL     1     -41.197 -50.781  12.338  1.00  0.00     0.276 C 
BRANCH  12  13
HETATM   13  C   UNL     1     -41.270 -52.234  11.849  1.00  0.00     0.087 C 
BRANCH  13  14
HETATM   14  C   UNL     1     -42.319 -53.025  12.583  1.00  0.00     0.010 A 
HETATM   15  C   UNL     1     -42.000 -53.732  13.737  1.00  0.00     0.025 A 
HETATM   16  C   UNL     1     -42.994 -54.483  14.358  1.00  0.00     0.003 A 
HETATM   17  C   UNL     1     -44.274 -54.503  13.815  1.00  0.00     0.017 A 
HETATM   18  C   UNL     1     -44.511 -53.760  12.672  1.00  0.00     0.088 A 
HETATM   19  N   UNL     1     -43.568 -53.020  12.051  1.00  0.00    -0.369 N 
ATOM     20  HN  UNL     1     -43.785 -52.479  11.213  1.00  0.00     0.165 HD
ENDBRANCH  13  14
ENDBRANCH  12  13
ENDBRANCH   1  12
TORSDOF 4
ENDMDL
MODEL 6
REMARK VINA RESULT:      -5.2      3.013      5.084
REMARK  4 active torsions:
REMARK  status: ('A' for Active; 'I' for Inactive)
REMARK    1  A    between atoms: C_9  and  N_10 
REMARK    2  A    between atoms: N_10  and  C_11 
REMARK    3  A    between atoms: C_11  and  C_12 
REMARK    4  A    between atoms: C_12  and  C_13 
ROOT
HETATM    1  N   UNL     1     -42.301 -52.342  11.804  1.00  0.00     0.088 N 
HETATM    2  H   UNL     1     -42.779 -52.230  10.909  1.00  0.00     0.316 HD
ENDROOT
BRANCH   1   3
HETATM    3  C   UNL     1     -43.311 -52.427  12.876  1.00  0.00     0.228 C 
HETATM    4  C   UNL     1     -42.740 -53.043  14.178  1.00  0.00     0.043 C 
HETATM    5  C   UNL     1     -42.125 -54.437  14.007  1.00  0.00     0.014 C 
HETATM    6  C   UNL     1     -43.852 -53.063  15.251  1.00  0.00     0.278 C 
HETATM    7  N   UNL     1     -45.062 -53.758  14.792  1.00  0.00     0.088 N 
HETATM    8  C   UNL     1     -46.044 -53.882  15.868  1.00  0.00     0.310 C 
HETATM    9  C   UNL     1     -45.639 -53.182  13.565  1.00  0.00     0.220 C 
HETATM   10  C   UNL     1     -46.277 -51.791  13.718  1.00  0.00     0.043 C 
HETATM   11  C   UNL     1     -44.584 -53.173  12.448  1.00  0.00     0.071 C 
ENDBRANCH   1   3
BRANCH   1  12
HETATM   12  C   UNL     1     -41.354 -51.219  11.957  1.00  0.00     0.276 C 
BRANCH  12  13
HETATM   13  C   UNL     1     -41.934 -49.999  12.683  1.00  0.00     0.087 C 
BRANCH  13  14
HETATM   14  C   UNL     1     -42.078 -48.813  11.768  1.00  0.00     0.010 A 
HETATM   15  C   UNL     1     -40.989 -47.996  11.484  1.00  0.00     0.025 A 
HETATM   16  C   UNL     1     -41.179 -46.887  10.665  1.00  0.00     0.003 A 
HETATM   17  C   UNL     1     -42.445 -46.627  10.153  1.00  0.00     0.017 A 
HETATM   18  C   UNL     1     -43.472 -47.497  10.473  1.00  0.00     0.088 A 
HETATM   19  N   UNL     1     -43.316 -48.582  11.261  1.00  0.00    -0.369 N 
ATOM     20  HN  UNL     1     -44.098 -49.204  11.468  1.00  0.00     0.165 HD
ENDBRANCH  13  14
ENDBRANCH  12  13
ENDBRANCH   1  12
TORSDOF 4
ENDMDL
MODEL 7
REMARK VINA RESULT:      -5.2      2.165      5.658
REMARK  4 active torsions:
REMARK  status: ('A' for Active; 'I' for Inactive)
REMARK    1  A    between atoms: C_9  and  N_10 
REMARK    2  A    between atoms: N_10  and  C_11 
REMARK    3  A    between atoms: C_11  and  C_12 
REMARK    4  A    between atoms: C_12  and  C_13 
ROOT
HETATM    1  N   UNL     1     -42.236 -54.586  15.199  1.00  0.00     0.088 N 
HETATM    2  H   UNL     1     -41.732 -54.322  16.047  1.00  0.00     0.316 HD
ENDROOT
BRANCH   1   3
HETATM    3  C   UNL     1     -42.045 -53.531  14.185  1.00  0.00     0.228 C 
HETATM    4  C   UNL     1     -40.929 -53.884  13.170  1.00  0.00     0.043 C 
HETATM    5  C   UNL     1     -39.562 -54.176  13.801  1.00  0.00     0.014 C 
HETATM    6  C   UNL     1     -40.820 -52.744  12.131  1.00  0.00     0.278 C 
HETATM    7  N   UNL     1     -40.606 -51.432  12.758  1.00  0.00     0.088 N 
HETATM    8  C   UNL     1     -40.371 -50.396  11.754  1.00  0.00     0.310 C 
HETATM    9  C   UNL     1     -41.663 -51.061  13.715  1.00  0.00     0.220 C 
HETATM   10  C   UNL     1     -43.038 -50.747  13.101  1.00  0.00     0.043 C 
HETATM   11  C   UNL     1     -41.789 -52.145  14.797  1.00  0.00     0.071 C 
ENDBRANCH   1   3
BRANCH   1  12
HETATM   12  C   UNL     1     -43.648 -54.819  15.564  1.00  0.00     0.276 C 
BRANCH  12  13
HETATM   13  C   UNL     1     -44.602 -54.914  14.366  1.00  0.00     0.087 C 
BRANCH  13  14
HETATM   14  C   UNL     1     -45.348 -53.628  14.134  1.00  0.00     0.010 A 
HETATM   15  C   UNL     1     -45.616 -52.760  15.186  1.00  0.00     0.025 A 
HETATM   16  C   UNL     1     -46.345 -51.602  14.930  1.00  0.00     0.003 A 
HETATM   17  C   UNL     1     -46.779 -51.342  13.635  1.00  0.00     0.017 A 
HETATM   18  C   UNL     1     -46.457 -52.250  12.643  1.00  0.00     0.088 A 
HETATM   19  N   UNL     1     -45.750 -53.379  12.861  1.00  0.00    -0.369 N 
ATOM     20  HN  UNL     1     -45.526 -54.020  12.100  1.00  0.00     0.165 HD
ENDBRANCH  13  14
ENDBRANCH  12  13
ENDBRANCH   1  12
TORSDOF 4
ENDMDL
MODEL 8
REMARK VINA RESULT:      -4.9      2.133      3.679
REMARK  4 active torsions:
REMARK  status: ('A' for Active; 'I' for Inactive)
REMARK    1  A    between atoms: C_9  and  N_10 
REMARK    2  A    between atoms: N_10  and  C_11 
REMARK    3  A    between atoms: C_11  and  C_12 
REMARK    4  A    between atoms: C_12  and  C_13 
ROOT
HETATM    1  N   UNL     1     -43.077 -53.341  12.434  1.00  0.00     0.088 N 
HETATM    2  H   UNL     1     -43.753 -53.296  11.669  1.00  0.00     0.316 HD
ENDROOT
BRANCH   1   3
HETATM    3  C   UNL     1     -43.747 -52.939  13.685  1.00  0.00     0.228 C 
HETATM    4  C   UNL     1     -44.311 -54.151  14.469  1.00  0.00     0.043 C 
HETATM    5  C   UNL     1     -45.292 -55.023  13.675  1.00  0.00     0.014 C 
HETATM    6  C   UNL     1     -44.964 -53.642  15.774  1.00  0.00     0.278 C 
HETATM    7  N   UNL     1     -45.987 -52.616  15.527  1.00  0.00     0.088 N 
HETATM    8  C   UNL     1     -46.682 -52.252  16.760  1.00  0.00     0.310 C 
HETATM    9  C   UNL     1     -45.475 -51.442  14.799  1.00  0.00     0.220 C 
HETATM   10  C   UNL     1     -44.502 -50.544  15.583  1.00  0.00     0.043 C 
HETATM   11  C   UNL     1     -44.847 -51.887  13.470  1.00  0.00     0.071 C 
ENDBRANCH   1   3
BRANCH   1  12
HETATM   12  C   UNL     1     -41.923 -52.495  12.072  1.00  0.00     0.276 C 
BRANCH  12  13
HETATM   13  C   UNL     1     -41.072 -52.042  13.266  1.00  0.00     0.087 C 
BRANCH  13  14
HETATM   14  C   UNL     1     -39.796 -51.375  12.830  1.00  0.00     0.010 A 
HETATM   15  C   UNL     1     -38.612 -51.575  13.532  1.00  0.00     0.025 A 
HETATM   16  C   UNL     1     -37.466 -50.904  13.117  1.00  0.00     0.003 A 
HETATM   17  C   UNL     1     -37.532 -50.060  12.014  1.00  0.00     0.017 A 
HETATM   18  C   UNL     1     -38.745 -49.928  11.363  1.00  0.00     0.088 A 
HETATM   19  N   UNL     1     -39.872 -50.568  11.741  1.00  0.00    -0.369 N 
ATOM     20  HN  UNL     1     -40.746 -50.450  11.229  1.00  0.00     0.165 HD
ENDBRANCH  13  14
ENDBRANCH  12  13
ENDBRANCH   1  12
TORSDOF 4
ENDMDL
MODEL 9
REMARK VINA RESULT:      -4.9      2.266      3.824
REMARK  4 active torsions:
REMARK  status: ('A' for Active; 'I' for Inactive)
REMARK    1  A    between atoms: C_9  and  N_10 
REMARK    2  A    between atoms: N_10  and  C_11 
REMARK    3  A    between atoms: C_11  and  C_12 
REMARK    4  A    between atoms: C_12  and  C_13 
ROOT
HETATM    1  N   UNL     1     -43.007 -52.657  11.697  1.00  0.00     0.088 N 
HETATM    2  H   UNL     1     -43.438 -51.741  11.559  1.00  0.00     0.316 HD
ENDROOT
BRANCH   1   3
HETATM    3  C   UNL     1     -43.662 -53.322  12.841  1.00  0.00     0.228 C 
HETATM    4  C   UNL     1     -45.176 -53.003  12.922  1.00  0.00     0.043 C 
HETATM    5  C   UNL     1     -45.509 -51.508  13.000  1.00  0.00     0.014 C 
HETATM    6  C   UNL     1     -45.783 -53.762  14.123  1.00  0.00     0.278 C 
HETATM    7  N   UNL     1     -45.085 -53.469  15.383  1.00  0.00     0.088 N 
HETATM    8  C   UNL     1     -45.760 -54.090  16.521  1.00  0.00     0.310 C 
HETATM    9  C   UNL     1     -43.646 -53.780  15.342  1.00  0.00     0.220 C 
HETATM   10  C   UNL     1     -43.289 -55.276  15.281  1.00  0.00     0.043 C 
HETATM   11  C   UNL     1     -42.982 -53.018  14.185  1.00  0.00     0.071 C 
ENDBRANCH   1   3
BRANCH   1  12
HETATM   12  C   UNL     1     -41.555 -52.455  11.871  1.00  0.00     0.276 C 
BRANCH  12  13
HETATM   13  C   UNL     1     -41.128 -50.984  11.963  1.00  0.00     0.087 C 
BRANCH  13  14
HETATM   14  C   UNL     1     -39.782 -50.826  12.617  1.00  0.00     0.010 A 
HETATM   15  C   UNL     1     -39.671 -50.699  13.997  1.00  0.00     0.025 A 
HETATM   16  C   UNL     1     -38.408 -50.513  14.552  1.00  0.00     0.003 A 
HETATM   17  C   UNL     1     -37.297 -50.464  13.718  1.00  0.00     0.017 A 
HETATM   18  C   UNL     1     -37.493 -50.613  12.357  1.00  0.00     0.088 A 
HETATM   19  N   UNL     1     -38.705 -50.798  11.791  1.00  0.00    -0.369 N 
ATOM     20  HN  UNL     1     -38.807 -50.912  10.783  1.00  0.00     0.165 HD
ENDBRANCH  13  14
ENDBRANCH  12  13
ENDBRANCH   1  12
TORSDOF 4
ENDMDL
