MODEL 1
REMARK VINA RESULT:      -5.6      0.000      0.000
REMARK  6 active torsions:
REMARK  status: ('A' for Active; 'I' for Inactive)
REMARK    1  A    between atoms: N_5  and  C_6 
REMARK    2  A    between atoms: C_6  and  C_7 
REMARK    3  A    between atoms: C_7  and  O_8 
REMARK    4  A    between atoms: C_7  and  C_9 
REMARK    5  A    between atoms: C_9  and  O_10 
REMARK    6  A    between atoms: O_10  and  C_11 
ROOT
HETATM    1  C   UNL     1     -41.115 -52.291  11.510  1.00  0.00     0.168 C 
ENDROOT
BRANCH   1   2
HETATM    2  N   UNL     1     -41.305 -53.108  12.682  1.00  0.00    -0.295 N 
HETATM    3  C   UNL     1     -40.284 -53.452  13.596  1.00  0.00     0.329 A 
HETATM    4  N   UNL     1     -40.892 -54.263  14.580  1.00  0.00    -0.302 N 
HETATM    5  O   UNL     1     -39.109 -53.126  13.525  1.00  0.00    -0.246 OA
HETATM    6  C   UNL     1     -40.224 -54.875  15.689  1.00  0.00     0.161 C 
HETATM    7  C   UNL     1     -42.257 -54.388  14.288  1.00  0.00     0.065 A 
HETATM    8  C   UNL     1     -42.515 -53.666  13.120  1.00  0.00     0.066 A 
HETATM    9  C   UNL     1     -43.248 -55.077  14.955  1.00  0.00     0.032 A 
HETATM   10  C   UNL     1     -43.781 -53.597  12.575  1.00  0.00     0.032 A 
HETATM   11  C   UNL     1     -44.802 -54.288  13.241  1.00  0.00     0.002 A 
HETATM   12  C   UNL     1     -44.538 -55.021  14.416  1.00  0.00     0.002 A 
ENDBRANCH   1   2
BRANCH   1  13
HETATM   13  C   UNL     1     -40.790 -50.823  11.834  1.00  0.00     0.161 C 
BRANCH  13  14
HETATM   14  O   UNL     1     -40.260 -50.146  10.685  1.00  0.00    -0.392 OA
HETATM   15  H   UNL     1     -39.728 -50.776  10.167  1.00  0.00     0.210 HD
ENDBRANCH  13  14
BRANCH  13  16
HETATM   16  C   UNL     1     -42.055 -50.099  12.327  1.00  0.00     0.209 C 
BRANCH  16  17
HETATM   17  O   UNL     1     -41.892 -49.789  13.713  1.00  0.00    -0.345 OA
BRANCH  17  18
HETATM   18  C   UNL     1     -42.686 -50.445  14.611  1.00  0.00     0.107 A 
HETATM   19  C   UNL     1     -44.046 -50.424  14.286  1.00  0.00     0.040 A 
HETATM   20  C   UNL     1     -44.992 -51.027  15.119  1.00  0.00     0.003 A 
HETATM   21  C   UNL     1     -44.582 -51.662  16.290  1.00  0.00     0.003 A 
HETATM   22  C   UNL     1     -43.228 -51.699  16.619  1.00  0.00     0.045 A 
HETATM   23  C   UNL     1     -42.288 -51.095  15.781  1.00  0.00     0.149 A 
HETATM   24  F   UNL     1     -41.000 -51.157  16.148  1.00  0.00    -0.203 F 
ENDBRANCH  17  18
ENDBRANCH  16  17
ENDBRANCH  13  16
ENDBRANCH   1  13
TORSDOF 6
ENDMDL
MODEL 2
REMARK VINA RESULT:      -5.5      2.371      3.280
REMARK  6 active torsions:
REMARK  status: ('A' for Active; 'I' for Inactive)
REMARK    1  A    between atoms: N_5  and  C_6 
REMARK    2  A    between atoms: C_6  and  C_7 
REMARK    3  A    between atoms: C_7  and  O_8 
REMARK    4  A    between atoms: C_7  and  C_9 
REMARK    5  A    between atoms: C_9  and  O_10 
REMARK    6  A    between atoms: O_10  and  C_11 
ROOT
HETATM    1  C   UNL     1     -41.315 -51.999  13.537  1.00  0.00     0.168 C 
ENDROOT
BRANCH   1   2
HETATM    2  N   UNL     1     -40.911 -53.002  14.491  1.00  0.00    -0.295 N 
HETATM    3  C   UNL     1     -39.666 -53.669  14.476  1.00  0.00     0.329 A 
HETATM    4  N   UNL     1     -39.687 -54.567  15.566  1.00  0.00    -0.302 N 
HETATM    5  O   UNL     1     -38.769 -53.509  13.663  1.00  0.00    -0.246 OA
HETATM    6  C   UNL     1     -38.642 -55.482  15.916  1.00  0.00     0.161 C 
HETATM    7  C   UNL     1     -40.905 -54.431  16.245  1.00  0.00     0.065 A 
HETATM    8  C   UNL     1     -41.659 -53.456  15.587  1.00  0.00     0.066 A 
HETATM    9  C   UNL     1     -41.378 -55.091  17.360  1.00  0.00     0.032 A 
HETATM   10  C   UNL     1     -42.917 -53.095  16.024  1.00  0.00     0.032 A 
HETATM   11  C   UNL     1     -43.413 -53.753  17.157  1.00  0.00     0.002 A 
HETATM   12  C   UNL     1     -42.654 -54.741  17.816  1.00  0.00     0.002 A 
ENDBRANCH   1   2
BRANCH   1  13
HETATM   13  C   UNL     1     -41.840 -52.589  12.217  1.00  0.00     0.161 C 
BRANCH  13  14
HETATM   14  O   UNL     1     -40.766 -53.122  11.428  1.00  0.00    -0.392 OA
HETATM   15  H   UNL     1     -39.920 -52.849  11.825  1.00  0.00     0.210 HD
ENDBRANCH  13  14
BRANCH  13  16
HETATM   16  C   UNL     1     -42.870 -53.695  12.506  1.00  0.00     0.209 C 
BRANCH  16  17
HETATM   17  O   UNL     1     -44.163 -53.227  12.115  1.00  0.00    -0.345 OA
BRANCH  17  18
HETATM   18  C   UNL     1     -45.110 -53.081  13.089  1.00  0.00     0.107 A 
HETATM   19  C   UNL     1     -45.461 -51.751  13.344  1.00  0.00     0.040 A 
HETATM   20  C   UNL     1     -46.395 -51.432  14.333  1.00  0.00     0.003 A 
HETATM   21  C   UNL     1     -46.993 -52.447  15.077  1.00  0.00     0.003 A 
HETATM   22  C   UNL     1     -46.660 -53.777  14.824  1.00  0.00     0.045 A 
HETATM   23  C   UNL     1     -45.726 -54.089  13.834  1.00  0.00     0.149 A 
HETATM   24  F   UNL     1     -45.439 -55.384  13.636  1.00  0.00    -0.203 F 
ENDBRANCH  17  18
ENDBRANCH  16  17
ENDBRANCH  13  16
ENDBRANCH   1  13
TORSDOF 6
ENDMDL
MODEL 3
REMARK VINA RESULT:      -5.5      2.717      4.853
REMARK  6 active torsions:
REMARK  status: ('A' for Active; 'I' for Inactive)
REMARK    1  A    between atoms: N_5  and  C_6 
REMARK    2  A    between atoms: C_6  and  C_7 
REMARK    3  A    between atoms: C_7  and  O_8 
REMARK    4  A    between atoms: C_7  and  C_9 
REMARK    5  A    between atoms: C_9  and  O_10 
REMARK    6  A    between atoms: O_10  and  C_11 
ROOT
HETATM    1  C   UNL     1     -42.124 -53.857  16.430  1.00  0.00     0.168 C 
ENDROOT
BRANCH   1   2
HETATM    2  N   UNL     1     -42.091 -53.042  15.241  1.00  0.00    -0.295 N 
HETATM    3  C   UNL     1     -41.581 -53.464  13.993  1.00  0.00     0.329 A 
HETATM    4  N   UNL     1     -41.729 -52.366  13.116  1.00  0.00    -0.302 N 
HETATM    5  O   UNL     1     -41.092 -54.555  13.741  1.00  0.00    -0.246 OA
HETATM    6  C   UNL     1     -41.310 -52.327  11.747  1.00  0.00     0.161 C 
HETATM    7  C   UNL     1     -42.337 -51.310  13.806  1.00  0.00     0.065 A 
HETATM    8  C   UNL     1     -42.570 -51.730  15.118  1.00  0.00     0.066 A 
HETATM    9  C   UNL     1     -42.680 -50.046  13.373  1.00  0.00     0.032 A 
HETATM   10  C   UNL     1     -43.166 -50.904  16.050  1.00  0.00     0.032 A 
HETATM   11  C   UNL     1     -43.524 -49.618  15.626  1.00  0.00     0.002 A 
HETATM   12  C   UNL     1     -43.281 -49.193  14.304  1.00  0.00     0.002 A 
ENDBRANCH   1   2
BRANCH   1  13
HETATM   13  C   UNL     1     -43.272 -54.881  16.436  1.00  0.00     0.161 C 
BRANCH  13  14
HETATM   14  O   UNL     1     -42.969 -55.991  17.294  1.00  0.00    -0.392 OA
HETATM   15  H   UNL     1     -42.542 -55.654  18.102  1.00  0.00     0.210 HD
ENDBRANCH  13  14
BRANCH  13  16
HETATM   16  C   UNL     1     -44.577 -54.209  16.898  1.00  0.00     0.209 C 
BRANCH  16  17
HETATM   17  O   UNL     1     -45.592 -54.470  15.926  1.00  0.00    -0.345 OA
BRANCH  17  18
HETATM   18  C   UNL     1     -45.751 -53.569  14.911  1.00  0.00     0.107 A 
HETATM   19  C   UNL     1     -46.431 -52.406  15.287  1.00  0.00     0.040 A 
HETATM   20  C   UNL     1     -46.699 -51.399  14.356  1.00  0.00     0.003 A 
HETATM   21  C   UNL     1     -46.284 -51.547  13.034  1.00  0.00     0.003 A 
HETATM   22  C   UNL     1     -45.596 -52.696  12.650  1.00  0.00     0.045 A 
HETATM   23  C   UNL     1     -45.331 -53.699  13.585  1.00  0.00     0.149 A 
HETATM   24  F   UNL     1     -44.670 -54.785  13.161  1.00  0.00    -0.203 F 
ENDBRANCH  17  18
ENDBRANCH  16  17
ENDBRANCH  13  16
ENDBRANCH   1  13
TORSDOF 6
ENDMDL
MODEL 4
REMARK VINA RESULT:      -5.5      2.441      4.675
REMARK  6 active torsions:
REMARK  status: ('A' for Active; 'I' for Inactive)
REMARK    1  A    between atoms: N_5  and  C_6 
REMARK    2  A    between atoms: C_6  and  C_7 
REMARK    3  A    between atoms: C_7  and  O_8 
REMARK    4  A    between atoms: C_7  and  C_9 
REMARK    5  A    between atoms: C_9  and  O_10 
REMARK    6  A    between atoms: O_10  and  C_11 
ROOT
HETATM    1  C   UNL     1     -41.459 -52.381  13.858  1.00  0.00     0.168 C 
ENDROOT
BRANCH   1   2
HETATM    2  N   UNL     1     -40.840 -51.320  13.104  1.00  0.00    -0.295 N 
HETATM    3  C   UNL     1     -39.473 -51.280  12.748  1.00  0.00     0.329 A 
HETATM    4  N   UNL     1     -39.288 -50.076  12.033  1.00  0.00    -0.302 N 
HETATM    5  O   UNL     1     -38.626 -52.114  13.030  1.00  0.00    -0.246 OA
HETATM    6  C   UNL     1     -38.044 -49.598  11.507  1.00  0.00     0.161 C 
HETATM    7  C   UNL     1     -40.517 -49.412  11.932  1.00  0.00     0.065 A 
HETATM    8  C   UNL     1     -41.480 -50.185  12.585  1.00  0.00     0.066 A 
HETATM    9  C   UNL     1     -40.831 -48.211  11.330  1.00  0.00     0.032 A 
HETATM   10  C   UNL     1     -42.801 -49.792  12.656  1.00  0.00     0.032 A 
HETATM   11  C   UNL     1     -43.139 -48.576  12.048  1.00  0.00     0.002 A 
HETATM   12  C   UNL     1     -42.165 -47.794  11.394  1.00  0.00     0.002 A 
ENDBRANCH   1   2
BRANCH   1  13
HETATM   13  C   UNL     1     -41.977 -53.532  12.979  1.00  0.00     0.161 C 
BRANCH  13  14
HETATM   14  O   UNL     1     -40.890 -54.291  12.429  1.00  0.00    -0.392 OA
HETATM   15  H   UNL     1     -40.734 -55.070  12.992  1.00  0.00     0.210 HD
ENDBRANCH  13  14
BRANCH  13  16
HETATM   16  C   UNL     1     -42.889 -54.457  13.805  1.00  0.00     0.209 C 
BRANCH  16  17
HETATM   17  O   UNL     1     -44.198 -54.437  13.230  1.00  0.00    -0.345 OA
BRANCH  17  18
HETATM   18  C   UNL     1     -45.073 -53.484  13.669  1.00  0.00     0.107 A 
HETATM   19  C   UNL     1     -45.451 -52.565  12.685  1.00  0.00     0.040 A 
HETATM   20  C   UNL     1     -46.318 -51.510  12.983  1.00  0.00     0.003 A 
HETATM   21  C   UNL     1     -46.819 -51.367  14.275  1.00  0.00     0.003 A 
HETATM   22  C   UNL     1     -46.459 -52.282  15.261  1.00  0.00     0.045 A 
HETATM   23  C   UNL     1     -45.592 -53.334  14.957  1.00  0.00     0.149 A 
HETATM   24  F   UNL     1     -45.275 -54.183  15.945  1.00  0.00    -0.203 F 
ENDBRANCH  17  18
ENDBRANCH  16  17
ENDBRANCH  13  16
ENDBRANCH   1  13
TORSDOF 6
ENDMDL
MODEL 5
REMARK VINA RESULT:      -5.4      3.063      5.160
REMARK  6 active torsions:
REMARK  status: ('A' for Active; 'I' for Inactive)
REMARK    1  A    between atoms: N_5  and  C_6 
REMARK    2  A    between atoms: C_6  and  C_7 
REMARK    3  A    between atoms: C_7  and  O_8 
REMARK    4  A    between atoms: C_7  and  C_9 
REMARK    5  A    between atoms: C_9  and  O_10 
REMARK    6  A    between atoms: O_10  and  C_11 
ROOT
HETATM    1  C   UNL     1     -43.020 -53.282  17.206  1.00  0.00     0.168 C 
ENDROOT
BRANCH   1   2
HETATM    2  N   UNL     1     -42.881 -52.483  16.014  1.00  0.00    -0.295 N 
HETATM    3  C   UNL     1     -43.343 -51.154  15.879  1.00  0.00     0.329 A 
HETATM    4  N   UNL     1     -43.016 -50.755  14.564  1.00  0.00    -0.302 N 
HETATM    5  O   UNL     1     -43.928 -50.501  16.730  1.00  0.00    -0.246 OA
HETATM    6  C   UNL     1     -43.330 -49.489  13.972  1.00  0.00     0.161 C 
HETATM    7  C   UNL     1     -42.347 -51.805  13.922  1.00  0.00     0.065 A 
HETATM    8  C   UNL     1     -42.254 -52.871  14.821  1.00  0.00     0.066 A 
HETATM    9  C   UNL     1     -41.840 -51.884  12.642  1.00  0.00     0.032 A 
HETATM   10  C   UNL     1     -41.640 -54.058  14.478  1.00  0.00     0.032 A 
HETATM   11  C   UNL     1     -41.116 -54.155  13.182  1.00  0.00     0.002 A 
HETATM   12  C   UNL     1     -41.217 -53.082  12.274  1.00  0.00     0.002 A 
ENDBRANCH   1   2
BRANCH   1  13
HETATM   13  C   UNL     1     -43.948 -54.495  17.023  1.00  0.00     0.161 C 
BRANCH  13  14
HETATM   14  O   UNL     1     -43.689 -55.498  18.016  1.00  0.00    -0.392 OA
HETATM   15  H   UNL     1     -44.408 -55.481  18.673  1.00  0.00     0.210 HD
ENDBRANCH  13  14
BRANCH  13  16
HETATM   16  C   UNL     1     -45.419 -54.050  17.106  1.00  0.00     0.209 C 
BRANCH  16  17
HETATM   17  O   UNL     1     -46.082 -54.445  15.902  1.00  0.00    -0.345 OA
BRANCH  17  18
HETATM   18  C   UNL     1     -46.067 -53.573  14.850  1.00  0.00     0.107 A 
HETATM   19  C   UNL     1     -46.691 -52.350  15.119  1.00  0.00     0.040 A 
HETATM   20  C   UNL     1     -46.785 -51.361  14.137  1.00  0.00     0.003 A 
HETATM   21  C   UNL     1     -46.250 -51.587  12.870  1.00  0.00     0.003 A 
HETATM   22  C   UNL     1     -45.616 -52.796  12.594  1.00  0.00     0.045 A 
HETATM   23  C   UNL     1     -45.525 -53.780  13.580  1.00  0.00     0.149 A 
HETATM   24  F   UNL     1     -44.909 -54.927  13.259  1.00  0.00    -0.203 F 
ENDBRANCH  17  18
ENDBRANCH  16  17
ENDBRANCH  13  16
ENDBRANCH   1  13
TORSDOF 6
ENDMDL
MODEL 6
REMARK VINA RESULT:      -5.3      2.505      4.345
REMARK  6 active torsions:
REMARK  status: ('A' for Active; 'I' for Inactive)
REMARK    1  A    between atoms: N_5  and  C_6 
REMARK    2  A    between atoms: C_6  and  C_7 
REMARK    3  A    between atoms: C_7  and  O_8 
REMARK    4  A    between atoms: C_7  and  C_9 
REMARK    5  A    between atoms: C_9  and  O_10 
REMARK    6  A    between atoms: O_10  and  C_11 
ROOT
HETATM    1  C   UNL     1     -40.956 -51.960  13.456  1.00  0.00     0.168 C 
ENDROOT
BRANCH   1   2
HETATM    2  N   UNL     1     -41.727 -50.889  14.038  1.00  0.00    -0.295 N 
HETATM    3  C   UNL     1     -41.735 -49.558  13.567  1.00  0.00     0.329 A 
HETATM    4  N   UNL     1     -42.604 -48.843  14.420  1.00  0.00    -0.302 N 
HETATM    5  O   UNL     1     -41.094 -49.120  12.623  1.00  0.00    -0.246 OA
HETATM    6  C   UNL     1     -42.889 -47.441  14.340  1.00  0.00     0.161 C 
HETATM    7  C   UNL     1     -43.134 -49.723  15.373  1.00  0.00     0.065 A 
HETATM    8  C   UNL     1     -42.600 -50.991  15.131  1.00  0.00     0.066 A 
HETATM    9  C   UNL     1     -44.018 -49.488  16.405  1.00  0.00     0.032 A 
HETATM   10  C   UNL     1     -42.936 -52.080  15.909  1.00  0.00     0.032 A 
HETATM   11  C   UNL     1     -43.835 -51.861  16.961  1.00  0.00     0.002 A 
HETATM   12  C   UNL     1     -44.368 -50.579  17.207  1.00  0.00     0.002 A 
ENDBRANCH   1   2
BRANCH   1  13
HETATM   13  C   UNL     1     -41.623 -52.591  12.222  1.00  0.00     0.161 C 
BRANCH  13  14
HETATM   14  O   UNL     1     -40.657 -53.260  11.399  1.00  0.00    -0.392 OA
HETATM   15  H   UNL     1     -39.898 -53.519  11.952  1.00  0.00     0.210 HD
ENDBRANCH  13  14
BRANCH  13  16
HETATM   16  C   UNL     1     -42.709 -53.590  12.662  1.00  0.00     0.209 C 
BRANCH  16  17
HETATM   17  O   UNL     1     -43.974 -53.127  12.183  1.00  0.00    -0.345 OA
BRANCH  17  18
HETATM   18  C   UNL     1     -44.991 -53.002  13.087  1.00  0.00     0.107 A 
HETATM   19  C   UNL     1     -45.465 -51.694  13.230  1.00  0.00     0.040 A 
HETATM   20  C   UNL     1     -46.484 -51.395  14.138  1.00  0.00     0.003 A 
HETATM   21  C   UNL     1     -47.045 -52.410  14.911  1.00  0.00     0.003 A 
HETATM   22  C   UNL     1     -46.589 -53.719  14.769  1.00  0.00     0.045 A 
HETATM   23  C   UNL     1     -45.570 -54.011  13.861  1.00  0.00     0.149 A 
HETATM   24  F   UNL     1     -45.167 -55.286  13.768  1.00  0.00    -0.203 F 
ENDBRANCH  17  18
ENDBRANCH  16  17
ENDBRANCH  13  16
ENDBRANCH   1  13
TORSDOF 6
ENDMDL
MODEL 7
REMARK VINA RESULT:      -5.3      2.422      4.406
REMARK  6 active torsions:
REMARK  status: ('A' for Active; 'I' for Inactive)
REMARK    1  A    between atoms: N_5  and  C_6 
REMARK    2  A    between atoms: C_6  and  C_7 
REMARK    3  A    between atoms: C_7  and  O_8 
REMARK    4  A    between atoms: C_7  and  C_9 
REMARK    5  A    between atoms: C_9  and  O_10 
REMARK    6  A    between atoms: O_10  and  C_11 
ROOT
HETATM    1  C   UNL     1     -40.917 -52.663  12.041  1.00  0.00     0.168 C 
ENDROOT
BRANCH   1   2
HETATM    2  N   UNL     1     -40.475 -51.404  12.589  1.00  0.00    -0.295 N 
HETATM    3  C   UNL     1     -39.141 -51.110  12.949  1.00  0.00     0.329 A 
HETATM    4  N   UNL     1     -39.150 -49.788  13.448  1.00  0.00    -0.302 N 
HETATM    5  O   UNL     1     -38.184 -51.865  12.864  1.00  0.00    -0.246 OA
HETATM    6  C   UNL     1     -38.017 -49.082  13.967  1.00  0.00     0.161 C 
HETATM    7  C   UNL     1     -40.453 -49.280  13.369  1.00  0.00     0.065 A 
HETATM    8  C   UNL     1     -41.272 -50.275  12.828  1.00  0.00     0.066 A 
HETATM    9  C   UNL     1     -40.949 -48.046  13.734  1.00  0.00     0.032 A 
HETATM   10  C   UNL     1     -42.621 -50.073  12.623  1.00  0.00     0.032 A 
HETATM   11  C   UNL     1     -43.142 -48.824  12.986  1.00  0.00     0.002 A 
HETATM   12  C   UNL     1     -42.317 -47.823  13.537  1.00  0.00     0.002 A 
ENDBRANCH   1   2
BRANCH   1  13
HETATM   13  C   UNL     1     -40.968 -53.796  13.080  1.00  0.00     0.161 C 
BRANCH  13  14
HETATM   14  O   UNL     1     -39.671 -54.381  13.270  1.00  0.00    -0.392 OA
HETATM   15  H   UNL     1     -38.993 -53.709  13.079  1.00  0.00     0.210 HD
ENDBRANCH  13  14
BRANCH  13  16
HETATM   16  C   UNL     1     -41.496 -53.258  14.422  1.00  0.00     0.209 C 
BRANCH  16  17
HETATM   17  O   UNL     1     -42.797 -53.808  14.652  1.00  0.00    -0.345 OA
BRANCH  17  18
HETATM   18  C   UNL     1     -43.878 -53.074  14.252  1.00  0.00     0.107 A 
HETATM   19  C   UNL     1     -44.275 -52.100  15.174  1.00  0.00     0.040 A 
HETATM   20  C   UNL     1     -45.383 -51.287  14.926  1.00  0.00     0.003 A 
HETATM   21  C   UNL     1     -46.107 -51.439  13.745  1.00  0.00     0.003 A 
HETATM   22  C   UNL     1     -45.714 -52.399  12.813  1.00  0.00     0.045 A 
HETATM   23  C   UNL     1     -44.606 -53.208  13.067  1.00  0.00     0.149 A 
HETATM   24  F   UNL     1     -44.276 -54.118  12.139  1.00  0.00    -0.203 F 
ENDBRANCH  17  18
ENDBRANCH  16  17
ENDBRANCH  13  16
ENDBRANCH   1  13
TORSDOF 6
ENDMDL
MODEL 8
REMARK VINA RESULT:      -5.2      2.773      5.333
REMARK  6 active torsions:
REMARK  status: ('A' for Active; 'I' for Inactive)
REMARK    1  A    between atoms: N_5  and  C_6 
REMARK    2  A    between atoms: C_6  and  C_7 
REMARK    3  A    between atoms: C_7  and  O_8 
REMARK    4  A    between atoms: C_7  and  C_9 
REMARK    5  A    between atoms: C_9  and  O_10 
REMARK    6  A    between atoms: O_10  and  C_11 
ROOT
HETATM    1  C   UNL     1     -41.451 -52.469  13.830  1.00  0.00     0.168 C 
ENDROOT
BRANCH   1   2
HETATM    2  N   UNL     1     -41.097 -51.254  13.139  1.00  0.00    -0.295 N 
HETATM    3  C   UNL     1     -42.020 -50.271  12.720  1.00  0.00     0.329 A 
HETATM    4  N   UNL     1     -41.261 -49.265  12.081  1.00  0.00    -0.302 N 
HETATM    5  O   UNL     1     -43.232 -50.306  12.866  1.00  0.00    -0.246 OA
HETATM    6  C   UNL     1     -41.789 -48.085  11.464  1.00  0.00     0.161 C 
HETATM    7  C   UNL     1     -39.906 -49.615  12.132  1.00  0.00     0.065 A 
HETATM    8  C   UNL     1     -39.802 -50.840  12.795  1.00  0.00     0.066 A 
HETATM    9  C   UNL     1     -38.798 -48.952  11.645  1.00  0.00     0.032 A 
HETATM   10  C   UNL     1     -38.582 -51.450  13.006  1.00  0.00     0.032 A 
HETATM   11  C   UNL     1     -37.446 -50.790  12.521  1.00  0.00     0.002 A 
HETATM   12  C   UNL     1     -37.553 -49.557  11.846  1.00  0.00     0.002 A 
ENDBRANCH   1   2
BRANCH   1  13
HETATM   13  C   UNL     1     -41.998 -53.564  12.898  1.00  0.00     0.161 C 
BRANCH  13  14
HETATM   14  O   UNL     1     -40.953 -54.450  12.472  1.00  0.00    -0.392 OA
HETATM   15  H   UNL     1     -40.129 -54.206  12.931  1.00  0.00     0.210 HD
ENDBRANCH  13  14
BRANCH  13  16
HETATM   16  C   UNL     1     -43.098 -54.367  13.616  1.00  0.00     0.209 C 
BRANCH  16  17
HETATM   17  O   UNL     1     -44.350 -54.089  12.984  1.00  0.00    -0.345 OA
BRANCH  17  18
HETATM   18  C   UNL     1     -45.168 -53.164  13.569  1.00  0.00     0.107 A 
HETATM   19  C   UNL     1     -44.976 -53.028  14.948  1.00  0.00     0.040 A 
HETATM   20  C   UNL     1     -45.755 -52.143  15.697  1.00  0.00     0.003 A 
HETATM   21  C   UNL     1     -46.737 -51.379  15.070  1.00  0.00     0.003 A 
HETATM   22  C   UNL     1     -46.930 -51.497  13.695  1.00  0.00     0.045 A 
HETATM   23  C   UNL     1     -46.148 -52.383  12.951  1.00  0.00     0.149 A 
HETATM   24  F   UNL     1     -46.380 -52.460  11.633  1.00  0.00    -0.203 F 
ENDBRANCH  17  18
ENDBRANCH  16  17
ENDBRANCH  13  16
ENDBRANCH   1  13
TORSDOF 6
ENDMDL
MODEL 9
REMARK VINA RESULT:      -5.1      2.756      4.146
REMARK  6 active torsions:
REMARK  status: ('A' for Active; 'I' for Inactive)
REMARK    1  A    between atoms: N_5  and  C_6 
REMARK    2  A    between atoms: C_6  and  C_7 
REMARK    3  A    between atoms: C_7  and  O_8 
REMARK    4  A    between atoms: C_7  and  C_9 
REMARK    5  A    between atoms: C_9  and  O_10 
REMARK    6  A    between atoms: O_10  and  C_11 
ROOT
HETATM    1  C   UNL     1     -40.941 -52.188  11.690  1.00  0.00     0.168 C 
ENDROOT
BRANCH   1   2
HETATM    2  N   UNL     1     -41.178 -53.070  12.805  1.00  0.00    -0.295 N 
HETATM    3  C   UNL     1     -40.182 -53.515  13.703  1.00  0.00     0.329 A 
HETATM    4  N   UNL     1     -40.835 -54.362  14.626  1.00  0.00    -0.302 N 
HETATM    5  O   UNL     1     -38.994 -53.235  13.663  1.00  0.00    -0.246 OA
HETATM    6  C   UNL     1     -40.204 -55.072  15.699  1.00  0.00     0.161 C 
HETATM    7  C   UNL     1     -42.199 -54.411  14.315  1.00  0.00     0.065 A 
HETATM    8  C   UNL     1     -42.415 -53.605  13.195  1.00  0.00     0.066 A 
HETATM    9  C   UNL     1     -43.226 -55.100  14.927  1.00  0.00     0.032 A 
HETATM   10  C   UNL     1     -43.671 -53.447  12.645  1.00  0.00     0.032 A 
HETATM   11  C   UNL     1     -44.726 -54.137  13.256  1.00  0.00     0.002 A 
HETATM   12  C   UNL     1     -44.506 -54.955  14.382  1.00  0.00     0.002 A 
ENDBRANCH   1   2
BRANCH   1  13
HETATM   13  C   UNL     1     -40.462 -50.788  12.110  1.00  0.00     0.161 C 
BRANCH  13  14
HETATM   14  O   UNL     1     -39.278 -50.410  11.392  1.00  0.00    -0.392 OA
HETATM   15  H   UNL     1     -38.551 -50.291  12.028  1.00  0.00     0.210 HD
ENDBRANCH  13  14
BRANCH  13  16
HETATM   16  C   UNL     1     -41.573 -49.753  11.860  1.00  0.00     0.209 C 
BRANCH  16  17
HETATM   17  O   UNL     1     -41.201 -48.948  10.738  1.00  0.00    -0.345 OA
BRANCH  17  18
HETATM   18  C   UNL     1     -41.325 -47.592  10.857  1.00  0.00     0.107 A 
HETATM   19  C   UNL     1     -40.117 -46.934  11.113  1.00  0.00     0.040 A 
HETATM   20  C   UNL     1     -40.079 -45.548  11.290  1.00  0.00     0.003 A 
HETATM   21  C   UNL     1     -41.255 -44.805  11.210  1.00  0.00     0.003 A 
HETATM   22  C   UNL     1     -42.463 -45.449  10.945  1.00  0.00     0.045 A 
HETATM   23  C   UNL     1     -42.494 -46.833  10.769  1.00  0.00     0.149 A 
HETATM   24  F   UNL     1     -43.683 -47.402  10.521  1.00  0.00    -0.203 F 
ENDBRANCH  17  18
ENDBRANCH  16  17
ENDBRANCH  13  16
ENDBRANCH   1  13
TORSDOF 6
ENDMDL
