MODEL 1
REMARK VINA RESULT:      -6.9      0.000      0.000
REMARK  6 active torsions:
REMARK  status: ('A' for Active; 'I' for Inactive)
REMARK    1  A    between atoms: C_2  and  C_4 
REMARK    2  A    between atoms: C_7  and  C_10 
REMARK       I    between atoms: C_10  and  N_12 
REMARK    3  A    between atoms: N_12  and  C_13 
REMARK    4  A    between atoms: C_13  and  C_14 
REMARK    5  A    between atoms: C_14  and  O_15 
REMARK    6  A    between atoms: C_14  and  C_16 
ROOT
HETATM    1  C   UNL     1     -41.502 -50.074  11.790  1.00  0.00     0.221 C 
HETATM    2  O   UNL     1     -40.301 -50.194  11.581  1.00  0.00    -0.273 OA
HETATM    3  N   UNL     1     -42.259 -49.071  11.231  1.00  0.00    -0.358 N 
HETATM    4  H   UNL     1     -43.187 -48.885  11.600  1.00  0.00     0.162 HD
ENDROOT
BRANCH   3   5
HETATM    5  C   UNL     1     -41.664 -48.024  10.418  1.00  0.00     0.159 C 
BRANCH   5   6
HETATM    6  C   UNL     1     -42.709 -46.960  10.045  1.00  0.00     0.170 C 
BRANCH   6   7
HETATM    7  O   UNL     1     -42.058 -45.944   9.267  1.00  0.00    -0.389 OA
HETATM    8  H   UNL     1     -41.254 -46.336   8.882  1.00  0.00     0.210 HD
ENDBRANCH   6   7
BRANCH   6   9
HETATM    9  C   UNL     1     -43.905 -47.482   9.286  1.00  0.00    -0.013 A 
HETATM   10  C   UNL     1     -45.182 -47.611   9.841  1.00  0.00     0.012 A 
HETATM   11  C   UNL     1     -46.227 -48.115   9.070  1.00  0.00     0.018 A 
HETATM   12  C   UNL     1     -45.962 -48.489   7.765  1.00  0.00     0.087 A 
HETATM   13  N   UNL     1     -44.743 -48.395   7.195  1.00  0.00    -0.375 N 
HETATM   14  C   UNL     1     -43.747 -47.901   7.964  1.00  0.00     0.097 A 
ATOM     15  HN  UNL     1     -44.581 -48.683   6.230  1.00  0.00     0.164 HD
ENDBRANCH   6   9
ENDBRANCH   5   6
ENDBRANCH   3   5
BRANCH   1  16
HETATM   16  C   UNL     1     -42.297 -51.000  12.703  1.00  0.00     0.078 C 
HETATM   17  C   UNL     1     -43.709 -50.459  12.946  1.00  0.00     0.014 C 
HETATM   18  C   UNL     1     -44.502 -51.375  13.875  1.00  0.00     0.006 C 
HETATM   19  C   UNL     1     -44.561 -52.825  13.360  1.00  0.00    -0.011 C 
HETATM   20  C   UNL     1     -43.147 -53.353  13.055  1.00  0.00     0.006 C 
HETATM   21  C   UNL     1     -42.376 -52.416  12.126  1.00  0.00     0.014 C 
BRANCH  19  22
HETATM   22  C   UNL     1     -45.380 -53.738  14.317  1.00  0.00    -0.019 C 
HETATM   23  C   UNL     1     -45.480 -55.198  13.864  1.00  0.00     0.010 C 
HETATM   24  C   UNL     1     -46.787 -53.185  14.570  1.00  0.00     0.010 C 
ENDBRANCH  19  22
ENDBRANCH   1  16
TORSDOF 6
ENDMDL
MODEL 2
REMARK VINA RESULT:      -6.4      3.224      4.510
REMARK  6 active torsions:
REMARK  status: ('A' for Active; 'I' for Inactive)
REMARK    1  A    between atoms: C_2  and  C_4 
REMARK    2  A    between atoms: C_7  and  C_10 
REMARK       I    between atoms: C_10  and  N_12 
REMARK    3  A    between atoms: N_12  and  C_13 
REMARK    4  A    between atoms: C_13  and  C_14 
REMARK    5  A    between atoms: C_14  and  O_15 
REMARK    6  A    between atoms: C_14  and  C_16 
ROOT
HETATM    1  C   UNL     1     -40.503 -52.417  13.515  1.00  0.00     0.221 C 
HETATM    2  O   UNL     1     -39.884 -53.332  12.985  1.00  0.00    -0.273 OA
HETATM    3  N   UNL     1     -39.889 -51.288  14.005  1.00  0.00    -0.358 N 
HETATM    4  H   UNL     1     -40.407 -50.669  14.621  1.00  0.00     0.162 HD
ENDROOT
BRANCH   3   5
HETATM    5  C   UNL     1     -38.443 -51.142  14.008  1.00  0.00     0.159 C 
BRANCH   5   6
HETATM    6  C   UNL     1     -37.967 -50.391  12.754  1.00  0.00     0.170 C 
BRANCH   6   7
HETATM    7  O   UNL     1     -37.596 -51.361  11.763  1.00  0.00    -0.389 OA
HETATM    8  H   UNL     1     -37.879 -52.235  12.084  1.00  0.00     0.210 HD
ENDBRANCH   6   7
BRANCH   6   9
HETATM    9  C   UNL     1     -38.975 -49.433  12.166  1.00  0.00    -0.013 A 
HETATM   10  C   UNL     1     -39.156 -48.122  12.616  1.00  0.00     0.012 A 
HETATM   11  C   UNL     1     -40.120 -47.310  12.023  1.00  0.00     0.018 A 
HETATM   12  C   UNL     1     -40.886 -47.839  11.000  1.00  0.00     0.087 A 
HETATM   13  N   UNL     1     -40.754 -49.101  10.544  1.00  0.00    -0.375 N 
HETATM   14  C   UNL     1     -39.811 -49.868  11.136  1.00  0.00     0.097 A 
ATOM     15  HN  UNL     1     -41.339 -49.461   9.790  1.00  0.00     0.164 HD
ENDBRANCH   6   9
ENDBRANCH   5   6
ENDBRANCH   3   5
BRANCH   1  16
HETATM   16  C   UNL     1     -42.014 -52.424  13.715  1.00  0.00     0.078 C 
HETATM   17  C   UNL     1     -42.636 -51.095  13.274  1.00  0.00     0.014 C 
HETATM   18  C   UNL     1     -44.147 -51.091  13.489  1.00  0.00     0.006 C 
HETATM   19  C   UNL     1     -44.843 -52.271  12.786  1.00  0.00    -0.011 C 
HETATM   20  C   UNL     1     -44.181 -53.605  13.177  1.00  0.00     0.006 C 
HETATM   21  C   UNL     1     -42.670 -53.580  12.954  1.00  0.00     0.014 C 
BRANCH  19  22
HETATM   22  C   UNL     1     -46.382 -52.243  13.011  1.00  0.00    -0.019 C 
HETATM   23  C   UNL     1     -47.183 -51.702  11.822  1.00  0.00     0.010 C 
HETATM   24  C   UNL     1     -46.760 -51.465  14.276  1.00  0.00     0.010 C 
ENDBRANCH  19  22
ENDBRANCH   1  16
TORSDOF 6
ENDMDL
MODEL 3
REMARK VINA RESULT:      -6.1      3.825      5.214
REMARK  6 active torsions:
REMARK  status: ('A' for Active; 'I' for Inactive)
REMARK    1  A    between atoms: C_2  and  C_4 
REMARK    2  A    between atoms: C_7  and  C_10 
REMARK       I    between atoms: C_10  and  N_12 
REMARK    3  A    between atoms: N_12  and  C_13 
REMARK    4  A    between atoms: C_13  and  C_14 
REMARK    5  A    between atoms: C_14  and  O_15 
REMARK    6  A    between atoms: C_14  and  C_16 
ROOT
HETATM    1  C   UNL     1     -40.413 -52.983  13.266  1.00  0.00     0.221 C 
HETATM    2  O   UNL     1     -39.831 -54.061  13.239  1.00  0.00    -0.273 OA
HETATM    3  N   UNL     1     -39.765 -51.793  13.504  1.00  0.00    -0.358 N 
HETATM    4  H   UNL     1     -40.311 -50.968  13.730  1.00  0.00     0.162 HD
ENDROOT
BRANCH   3   5
HETATM    5  C   UNL     1     -38.350 -51.743  13.830  1.00  0.00     0.159 C 
BRANCH   5   6
HETATM    6  C   UNL     1     -37.616 -50.735  12.930  1.00  0.00     0.170 C 
BRANCH   6   7
HETATM    7  O   UNL     1     -37.449 -51.329  11.634  1.00  0.00    -0.389 OA
HETATM    8  H   UNL     1     -36.966 -50.693  11.078  1.00  0.00     0.210 HD
ENDBRANCH   6   7
BRANCH   6   9
HETATM    9  C   UNL     1     -38.301 -49.397  12.784  1.00  0.00    -0.013 A 
HETATM   10  C   UNL     1     -38.387 -48.452  13.811  1.00  0.00     0.012 A 
HETATM   11  C   UNL     1     -39.050 -47.247  13.592  1.00  0.00     0.018 A 
HETATM   12  C   UNL     1     -39.619 -47.025  12.351  1.00  0.00     0.087 A 
HETATM   13  N   UNL     1     -39.571 -47.914  11.338  1.00  0.00    -0.375 N 
HETATM   14  C   UNL     1     -38.921 -49.075  11.576  1.00  0.00     0.097 A 
ATOM     15  HN  UNL     1     -40.005 -47.720  10.436  1.00  0.00     0.164 HD
ENDBRANCH   6   9
ENDBRANCH   5   6
ENDBRANCH   3   5
BRANCH   1  16
HETATM   16  C   UNL     1     -41.915 -52.829  13.061  1.00  0.00     0.078 C 
HETATM   17  C   UNL     1     -42.688 -53.927  13.797  1.00  0.00     0.014 C 
HETATM   18  C   UNL     1     -44.193 -53.787  13.579  1.00  0.00     0.006 C 
HETATM   19  C   UNL     1     -44.717 -52.395  13.981  1.00  0.00    -0.011 C 
HETATM   20  C   UNL     1     -43.901 -51.286  13.292  1.00  0.00     0.006 C 
HETATM   21  C   UNL     1     -42.400 -51.453  13.524  1.00  0.00     0.014 C 
BRANCH  19  22
HETATM   22  C   UNL     1     -46.253 -52.278  13.759  1.00  0.00    -0.019 C 
HETATM   23  C   UNL     1     -46.650 -51.714  12.391  1.00  0.00     0.010 C 
HETATM   24  C   UNL     1     -46.930 -51.460  14.864  1.00  0.00     0.010 C 
ENDBRANCH  19  22
ENDBRANCH   1  16
TORSDOF 6
ENDMDL
MODEL 4
REMARK VINA RESULT:      -5.9      1.912      2.610
REMARK  6 active torsions:
REMARK  status: ('A' for Active; 'I' for Inactive)
REMARK    1  A    between atoms: C_2  and  C_4 
REMARK    2  A    between atoms: C_7  and  C_10 
REMARK       I    between atoms: C_10  and  N_12 
REMARK    3  A    between atoms: N_12  and  C_13 
REMARK    4  A    between atoms: C_13  and  C_14 
REMARK    5  A    between atoms: C_14  and  O_15 
REMARK    6  A    between atoms: C_14  and  C_16 
ROOT
HETATM    1  C   UNL     1     -41.582 -48.262  12.511  1.00  0.00     0.221 C 
HETATM    2  O   UNL     1     -40.713 -47.402  12.590  1.00  0.00    -0.273 OA
HETATM    3  N   UNL     1     -42.826 -48.017  11.977  1.00  0.00    -0.358 N 
HETATM    4  H   UNL     1     -43.573 -48.687  12.130  1.00  0.00     0.162 HD
ENDROOT
BRANCH   3   5
HETATM    5  C   UNL     1     -43.227 -46.688  11.548  1.00  0.00     0.159 C 
BRANCH   5   6
HETATM    6  C   UNL     1     -43.105 -46.545  10.022  1.00  0.00     0.170 C 
BRANCH   6   7
HETATM    7  O   UNL     1     -41.811 -47.026   9.628  1.00  0.00    -0.389 OA
HETATM    8  H   UNL     1     -41.678 -47.894  10.048  1.00  0.00     0.210 HD
ENDBRANCH   6   7
BRANCH   6   9
HETATM    9  C   UNL     1     -44.169 -47.265   9.229  1.00  0.00    -0.013 A 
HETATM   10  C   UNL     1     -45.477 -47.463   9.684  1.00  0.00     0.012 A 
HETATM   11  C   UNL     1     -46.392 -48.151   8.890  1.00  0.00     0.018 A 
HETATM   12  C   UNL     1     -45.969 -48.632   7.664  1.00  0.00     0.087 A 
HETATM   13  N   UNL     1     -44.715 -48.475   7.193  1.00  0.00    -0.375 N 
HETATM   14  C   UNL     1     -43.847 -47.803   7.982  1.00  0.00     0.097 A 
ATOM     15  HN  UNL     1     -44.435 -48.846   6.285  1.00  0.00     0.164 HD
ENDBRANCH   6   9
ENDBRANCH   5   6
ENDBRANCH   3   5
BRANCH   1  16
HETATM   16  C   UNL     1     -41.404 -49.691  13.008  1.00  0.00     0.078 C 
HETATM   17  C   UNL     1     -42.693 -50.501  12.837  1.00  0.00     0.014 C 
HETATM   18  C   UNL     1     -42.523 -51.928  13.351  1.00  0.00     0.006 C 
HETATM   19  C   UNL     1     -41.338 -52.655  12.688  1.00  0.00    -0.011 C 
HETATM   20  C   UNL     1     -40.052 -51.815  12.802  1.00  0.00     0.006 C 
HETATM   21  C   UNL     1     -40.252 -50.392  12.284  1.00  0.00     0.014 C 
BRANCH  19  22
HETATM   22  C   UNL     1     -41.189 -54.109  13.220  1.00  0.00    -0.019 C 
HETATM   23  C   UNL     1     -42.241 -54.510  14.259  1.00  0.00     0.010 C 
HETATM   24  C   UNL     1     -39.789 -54.371  13.784  1.00  0.00     0.010 C 
ENDBRANCH  19  22
ENDBRANCH   1  16
TORSDOF 6
ENDMDL
MODEL 5
REMARK VINA RESULT:      -5.7      3.915      5.712
REMARK  6 active torsions:
REMARK  status: ('A' for Active; 'I' for Inactive)
REMARK    1  A    between atoms: C_2  and  C_4 
REMARK    2  A    between atoms: C_7  and  C_10 
REMARK       I    between atoms: C_10  and  N_12 
REMARK    3  A    between atoms: N_12  and  C_13 
REMARK    4  A    between atoms: C_13  and  C_14 
REMARK    5  A    between atoms: C_14  and  O_15 
REMARK    6  A    between atoms: C_14  and  C_16 
ROOT
HETATM    1  C   UNL     1     -44.929 -52.068  13.104  1.00  0.00     0.221 C 
HETATM    2  O   UNL     1     -45.566 -52.771  12.328  1.00  0.00    -0.273 OA
HETATM    3  N   UNL     1     -43.570 -51.886  12.998  1.00  0.00    -0.358 N 
HETATM    4  H   UNL     1     -43.061 -51.480  13.778  1.00  0.00     0.162 HD
ENDROOT
BRANCH   3   5
HETATM    5  C   UNL     1     -42.777 -52.590  12.005  1.00  0.00     0.159 C 
BRANCH   5   6
HETATM    6  C   UNL     1     -41.282 -52.538  12.360  1.00  0.00     0.170 C 
BRANCH   6   7
HETATM    7  O   UNL     1     -40.565 -53.331  11.403  1.00  0.00    -0.389 OA
HETATM    8  H   UNL     1     -41.159 -53.495  10.649  1.00  0.00     0.210 HD
ENDBRANCH   6   7
BRANCH   6   9
HETATM    9  C   UNL     1     -40.688 -51.151  12.407  1.00  0.00    -0.013 A 
HETATM   10  C   UNL     1     -40.206 -50.551  13.574  1.00  0.00     0.012 A 
HETATM   11  C   UNL     1     -39.686 -49.259  13.529  1.00  0.00     0.018 A 
HETATM   12  C   UNL     1     -39.672 -48.598  12.314  1.00  0.00     0.087 A 
HETATM   13  N   UNL     1     -40.139 -49.134  11.167  1.00  0.00    -0.375 N 
HETATM   14  C   UNL     1     -40.638 -50.388  11.239  1.00  0.00     0.097 A 
ATOM     15  HN  UNL     1     -40.117 -48.617  10.288  1.00  0.00     0.164 HD
ENDBRANCH   6   9
ENDBRANCH   5   6
ENDBRANCH   3   5
BRANCH   1  16
HETATM   16  C   UNL     1     -45.553 -51.332  14.283  1.00  0.00     0.078 C 
HETATM   17  C   UNL     1     -46.670 -52.161  14.924  1.00  0.00     0.014 C 
HETATM   18  C   UNL     1     -47.310 -51.419  16.095  1.00  0.00     0.006 C 
HETATM   19  C   UNL     1     -46.277 -50.995  17.156  1.00  0.00    -0.011 C 
HETATM   20  C   UNL     1     -45.119 -50.215  16.507  1.00  0.00     0.006 C 
HETATM   21  C   UNL     1     -44.500 -50.980  15.338  1.00  0.00     0.014 C 
BRANCH  19  22
HETATM   22  C   UNL     1     -46.952 -50.249  18.343  1.00  0.00    -0.019 C 
HETATM   23  C   UNL     1     -48.398 -49.818  18.076  1.00  0.00     0.010 C 
HETATM   24  C   UNL     1     -46.134 -49.035  18.794  1.00  0.00     0.010 C 
ENDBRANCH  19  22
ENDBRANCH   1  16
TORSDOF 6
ENDMDL
MODEL 6
REMARK VINA RESULT:      -5.7      3.393      4.365
REMARK  6 active torsions:
REMARK  status: ('A' for Active; 'I' for Inactive)
REMARK    1  A    between atoms: C_2  and  C_4 
REMARK    2  A    between atoms: C_7  and  C_10 
REMARK       I    between atoms: C_10  and  N_12 
REMARK    3  A    between atoms: N_12  and  C_13 
REMARK    4  A    between atoms: C_13  and  C_14 
REMARK    5  A    between atoms: C_14  and  O_15 
REMARK    6  A    between atoms: C_14  and  C_16 
ROOT
HETATM    1  C   UNL     1     -41.414 -51.646  12.157  1.00  0.00     0.221 C 
HETATM    2  O   UNL     1     -40.506 -52.448  11.972  1.00  0.00    -0.273 OA
HETATM    3  N   UNL     1     -41.404 -50.374  11.634  1.00  0.00    -0.358 N 
HETATM    4  H   UNL     1     -42.060 -49.686  11.989  1.00  0.00     0.162 HD
ENDROOT
BRANCH   3   5
HETATM    5  C   UNL     1     -40.264 -49.860  10.894  1.00  0.00     0.159 C 
BRANCH   5   6
HETATM    6  C   UNL     1     -39.209 -49.278  11.849  1.00  0.00     0.170 C 
BRANCH   6   7
HETATM    7  O   UNL     1     -37.923 -49.392  11.222  1.00  0.00    -0.389 OA
HETATM    8  H   UNL     1     -37.651 -48.501  10.940  1.00  0.00     0.210 HD
ENDBRANCH   6   7
BRANCH   6   9
HETATM    9  C   UNL     1     -39.442 -47.843  12.256  1.00  0.00    -0.013 A 
HETATM   10  C   UNL     1     -39.052 -47.311  13.488  1.00  0.00     0.012 A 
HETATM   11  C   UNL     1     -39.319 -45.976  13.786  1.00  0.00     0.018 A 
HETATM   12  C   UNL     1     -39.982 -45.212  12.842  1.00  0.00     0.087 A 
HETATM   13  N   UNL     1     -40.388 -45.688  11.648  1.00  0.00    -0.375 N 
HETATM   14  C   UNL     1     -40.116 -46.986  11.383  1.00  0.00     0.097 A 
ATOM     15  HN  UNL     1     -40.879 -45.098  10.976  1.00  0.00     0.164 HD
ENDBRANCH   6   9
ENDBRANCH   5   6
ENDBRANCH   3   5
BRANCH   1  16
HETATM   16  C   UNL     1     -42.648 -51.948  12.999  1.00  0.00     0.078 C 
HETATM   17  C   UNL     1     -43.466 -50.679  13.257  1.00  0.00     0.014 C 
HETATM   18  C   UNL     1     -44.693 -50.975  14.115  1.00  0.00     0.006 C 
HETATM   19  C   UNL     1     -45.583 -52.076  13.508  1.00  0.00    -0.011 C 
HETATM   20  C   UNL     1     -44.753 -53.332  13.189  1.00  0.00     0.006 C 
HETATM   21  C   UNL     1     -43.530 -53.007  12.331  1.00  0.00     0.014 C 
BRANCH  19  22
HETATM   22  C   UNL     1     -46.831 -52.354  14.394  1.00  0.00    -0.019 C 
HETATM   23  C   UNL     1     -47.021 -51.361  15.545  1.00  0.00     0.010 C 
HETATM   24  C   UNL     1     -46.832 -53.783  14.948  1.00  0.00     0.010 C 
ENDBRANCH  19  22
ENDBRANCH   1  16
TORSDOF 6
ENDMDL
MODEL 7
REMARK VINA RESULT:      -5.7      2.288      3.236
REMARK  6 active torsions:
REMARK  status: ('A' for Active; 'I' for Inactive)
REMARK    1  A    between atoms: C_2  and  C_4 
REMARK    2  A    between atoms: C_7  and  C_10 
REMARK       I    between atoms: C_10  and  N_12 
REMARK    3  A    between atoms: N_12  and  C_13 
REMARK    4  A    between atoms: C_13  and  C_14 
REMARK    5  A    between atoms: C_14  and  O_15 
REMARK    6  A    between atoms: C_14  and  C_16 
ROOT
HETATM    1  C   UNL     1     -40.974 -50.944  13.584  1.00  0.00     0.221 C 
HETATM    2  O   UNL     1     -40.096 -51.729  13.242  1.00  0.00    -0.273 OA
HETATM    3  N   UNL     1     -40.795 -49.581  13.585  1.00  0.00    -0.358 N 
HETATM    4  H   UNL     1     -41.462 -48.993  14.075  1.00  0.00     0.162 HD
ENDROOT
BRANCH   3   5
HETATM    5  C   UNL     1     -39.513 -48.976  13.265  1.00  0.00     0.159 C 
BRANCH   5   6
HETATM    6  C   UNL     1     -39.450 -48.582  11.780  1.00  0.00     0.170 C 
BRANCH   6   7
HETATM    7  O   UNL     1     -39.190 -49.766  11.011  1.00  0.00    -0.389 OA
HETATM    8  H   UNL     1     -38.252 -49.749  10.750  1.00  0.00     0.210 HD
ENDBRANCH   6   7
BRANCH   6   9
HETATM    9  C   UNL     1     -40.688 -47.901  11.250  1.00  0.00    -0.013 A 
HETATM   10  C   UNL     1     -41.025 -46.573  11.527  1.00  0.00     0.012 A 
HETATM   11  C   UNL     1     -42.197 -46.029  11.006  1.00  0.00     0.018 A 
HETATM   12  C   UNL     1     -43.007 -46.836  10.228  1.00  0.00     0.087 A 
HETATM   13  N   UNL     1     -42.728 -48.125   9.948  1.00  0.00    -0.375 N 
HETATM   14  C   UNL     1     -41.585 -48.628  10.465  1.00  0.00     0.097 A 
ATOM     15  HN  UNL     1     -43.350 -48.694   9.373  1.00  0.00     0.164 HD
ENDBRANCH   6   9
ENDBRANCH   5   6
ENDBRANCH   3   5
BRANCH   1  16
HETATM   16  C   UNL     1     -42.354 -51.378  14.063  1.00  0.00     0.078 C 
HETATM   17  C   UNL     1     -43.077 -50.231  14.775  1.00  0.00     0.014 C 
HETATM   18  C   UNL     1     -44.453 -50.667  15.273  1.00  0.00     0.006 C 
HETATM   19  C   UNL     1     -45.331 -51.241  14.145  1.00  0.00    -0.011 C 
HETATM   20  C   UNL     1     -44.584 -52.353  13.386  1.00  0.00     0.006 C 
HETATM   21  C   UNL     1     -43.210 -51.890  12.902  1.00  0.00     0.014 C 
BRANCH  19  22
HETATM   22  C   UNL     1     -46.730 -51.670  14.674  1.00  0.00    -0.019 C 
HETATM   23  C   UNL     1     -47.022 -51.231  16.113  1.00  0.00     0.010 C 
HETATM   24  C   UNL     1     -46.949 -53.182  14.549  1.00  0.00     0.010 C 
ENDBRANCH  19  22
ENDBRANCH   1  16
TORSDOF 6
ENDMDL
MODEL 8
REMARK VINA RESULT:      -5.7      3.018      6.651
REMARK  6 active torsions:
REMARK  status: ('A' for Active; 'I' for Inactive)
REMARK    1  A    between atoms: C_2  and  C_4 
REMARK    2  A    between atoms: C_7  and  C_10 
REMARK       I    between atoms: C_10  and  N_12 
REMARK    3  A    between atoms: N_12  and  C_13 
REMARK    4  A    between atoms: C_13  and  C_14 
REMARK    5  A    between atoms: C_14  and  O_15 
REMARK    6  A    between atoms: C_14  and  C_16 
ROOT
HETATM    1  C   UNL     1     -41.155 -52.071  13.132  1.00  0.00     0.221 C 
HETATM    2  O   UNL     1     -40.399 -52.826  12.532  1.00  0.00    -0.273 OA
HETATM    3  N   UNL     1     -41.980 -52.496  14.147  1.00  0.00    -0.358 N 
HETATM    4  H   UNL     1     -42.734 -51.892  14.460  1.00  0.00     0.162 HD
ENDROOT
BRANCH   3   5
HETATM    5  C   UNL     1     -42.077 -53.897  14.521  1.00  0.00     0.159 C 
BRANCH   5   6
HETATM    6  C   UNL     1     -43.484 -54.445  14.229  1.00  0.00     0.170 C 
BRANCH   6   7
HETATM    7  O   UNL     1     -43.940 -55.154  15.390  1.00  0.00    -0.389 OA
HETATM    8  H   UNL     1     -43.155 -55.491  15.858  1.00  0.00     0.210 HD
ENDBRANCH   6   7
BRANCH   6   9
HETATM    9  C   UNL     1     -44.506 -53.401  13.846  1.00  0.00    -0.013 A 
HETATM   10  C   UNL     1     -45.162 -52.580  14.769  1.00  0.00     0.012 A 
HETATM   11  C   UNL     1     -46.102 -51.652  14.328  1.00  0.00     0.018 A 
HETATM   12  C   UNL     1     -46.368 -51.578  12.973  1.00  0.00     0.087 A 
HETATM   13  N   UNL     1     -45.770 -52.359  12.051  1.00  0.00    -0.375 N 
HETATM   14  C   UNL     1     -44.861 -53.251  12.504  1.00  0.00     0.097 A 
ATOM     15  HN  UNL     1     -45.992 -52.282  11.058  1.00  0.00     0.164 HD
ENDBRANCH   6   9
ENDBRANCH   5   6
ENDBRANCH   3   5
BRANCH   1  16
HETATM   16  C   UNL     1     -41.289 -50.586  12.819  1.00  0.00     0.078 C 
HETATM   17  C   UNL     1     -40.636 -50.243  11.476  1.00  0.00     0.014 C 
HETATM   18  C   UNL     1     -40.753 -48.753  11.167  1.00  0.00     0.006 C 
HETATM   19  C   UNL     1     -42.212 -48.259  11.199  1.00  0.00    -0.011 C 
HETATM   20  C   UNL     1     -42.892 -48.656  12.521  1.00  0.00     0.006 C 
HETATM   21  C   UNL     1     -42.757 -50.152  12.806  1.00  0.00     0.014 C 
BRANCH  19  22
HETATM   22  C   UNL     1     -42.307 -46.741  10.873  1.00  0.00    -0.019 C 
HETATM   23  C   UNL     1     -43.170 -46.412   9.650  1.00  0.00     0.010 C 
HETATM   24  C   UNL     1     -40.924 -46.103  10.707  1.00  0.00     0.010 C 
ENDBRANCH  19  22
ENDBRANCH   1  16
TORSDOF 6
ENDMDL
MODEL 9
REMARK VINA RESULT:      -5.6      3.608      7.514
REMARK  6 active torsions:
REMARK  status: ('A' for Active; 'I' for Inactive)
REMARK    1  A    between atoms: C_2  and  C_4 
REMARK    2  A    between atoms: C_7  and  C_10 
REMARK       I    between atoms: C_10  and  N_12 
REMARK    3  A    between atoms: N_12  and  C_13 
REMARK    4  A    between atoms: C_13  and  C_14 
REMARK    5  A    between atoms: C_14  and  O_15 
REMARK    6  A    between atoms: C_14  and  C_16 
ROOT
HETATM    1  C   UNL     1     -39.278 -50.504  12.471  1.00  0.00     0.221 C 
HETATM    2  O   UNL     1     -38.274 -51.153  12.203  1.00  0.00    -0.273 OA
HETATM    3  N   UNL     1     -40.274 -50.978  13.294  1.00  0.00    -0.358 N 
HETATM    4  H   UNL     1     -41.171 -50.503  13.311  1.00  0.00     0.162 HD
ENDROOT
BRANCH   3   5
HETATM    5  C   UNL     1     -40.245 -52.326  13.833  1.00  0.00     0.159 C 
BRANCH   5   6
HETATM    6  C   UNL     1     -40.891 -53.321  12.855  1.00  0.00     0.170 C 
BRANCH   6   7
HETATM    7  O   UNL     1     -40.009 -54.445  12.709  1.00  0.00    -0.389 OA
HETATM    8  H   UNL     1     -39.100 -54.101  12.647  1.00  0.00     0.210 HD
ENDBRANCH   6   7
BRANCH   6   9
HETATM    9  C   UNL     1     -42.262 -53.809  13.257  1.00  0.00    -0.013 A 
HETATM   10  C   UNL     1     -43.435 -53.484  12.570  1.00  0.00     0.012 A 
HETATM   11  C   UNL     1     -44.661 -53.968  13.020  1.00  0.00     0.018 A 
HETATM   12  C   UNL     1     -44.680 -54.758  14.155  1.00  0.00     0.087 A 
HETATM   13  N   UNL     1     -43.576 -55.084  14.856  1.00  0.00    -0.375 N 
HETATM   14  C   UNL     1     -42.398 -54.602  14.398  1.00  0.00     0.097 A 
ATOM     15  HN  UNL     1     -43.625 -55.666  15.692  1.00  0.00     0.164 HD
ENDBRANCH   6   9
ENDBRANCH   5   6
ENDBRANCH   3   5
BRANCH   1  16
HETATM   16  C   UNL     1     -39.556 -49.112  11.917  1.00  0.00     0.078 C 
HETATM   17  C   UNL     1     -40.924 -49.054  11.229  1.00  0.00     0.014 C 
HETATM   18  C   UNL     1     -41.198 -47.666  10.656  1.00  0.00     0.006 C 
HETATM   19  C   UNL     1     -41.083 -46.559  11.720  1.00  0.00    -0.011 C 
HETATM   20  C   UNL     1     -39.735 -46.651  12.458  1.00  0.00     0.006 C 
HETATM   21  C   UNL     1     -39.485 -48.051  13.018  1.00  0.00     0.014 C 
BRANCH  19  22
HETATM   22  C   UNL     1     -41.375 -45.155  11.117  1.00  0.00    -0.019 C 
HETATM   23  C   UNL     1     -40.121 -44.349  10.760  1.00  0.00     0.010 C 
HETATM   24  C   UNL     1     -42.277 -44.316  12.028  1.00  0.00     0.010 C 
ENDBRANCH  19  22
ENDBRANCH   1  16
TORSDOF 6
ENDMDL
