MODEL 1
REMARK VINA RESULT:      -6.5      0.000      0.000
REMARK  3 active torsions:
REMARK  status: ('A' for Active; 'I' for Inactive)
REMARK    1  A    between atoms: C_5  and  N_6 
REMARK       I    between atoms: N_6  and  C_7 
REMARK       I    between atoms: C_7  and  N_9 
REMARK    2  A    between atoms: N_9  and  C_10 
REMARK    3  A    between atoms: N_13  and  C_16 
ROOT
HETATM    1  N   UNL     1     -43.118 -52.671  12.732  1.00  0.00    -0.295 N 
HETATM    2  C   UNL     1     -42.154 -51.903  12.138  1.00  0.00     0.322 C 
HETATM    3  O   UNL     1     -41.190 -52.443  11.598  1.00  0.00    -0.247 OA
HETATM    4  N   UNL     1     -42.318 -50.553  12.214  1.00  0.00    -0.338 N 
HETATM    5  H   UNL     1     -42.940 -53.663  12.658  1.00  0.00     0.172 HD
HETATM    6  H   UNL     1     -43.175 -50.253  12.674  1.00  0.00     0.164 HD
ENDROOT
BRANCH   4   7
HETATM    7  C   UNL     1     -41.308 -49.570  11.861  1.00  0.00     0.089 C 
HETATM    8  C   UNL     1     -40.738 -48.913  13.129  1.00  0.00     0.055 C 
HETATM    9  C   UNL     1     -41.405 -47.586  13.492  1.00  0.00     0.275 C 
HETATM   10  N   UNL     1     -41.454 -46.625  12.371  1.00  0.00     0.093 N 
HETATM   11  C   UNL     1     -42.307 -47.238  11.339  1.00  0.00     0.275 C 
HETATM   12  C   UNL     1     -41.809 -48.581  10.798  1.00  0.00     0.055 C 
BRANCH  10  13
HETATM   13  C   UNL     1     -40.107 -46.175  11.923  1.00  0.00     0.223 C 
HETATM   14  C   UNL     1     -39.329 -45.479  13.070  1.00  0.00     0.036 C 
HETATM   15  C   UNL     1     -39.869 -44.086  13.406  1.00  0.00     0.002 C 
HETATM   16  C   UNL     1     -39.844 -43.180  12.181  1.00  0.00     0.000 C 
HETATM   17  C   UNL     1     -40.594 -43.809  11.013  1.00  0.00     0.002 C 
HETATM   18  C   UNL     1     -40.079 -45.213  10.707  1.00  0.00     0.036 C 
ENDBRANCH  10  13
ENDBRANCH   4   7
BRANCH   1  19
HETATM   19  C   UNL     1     -44.205 -52.245  13.511  1.00  0.00     0.108 A 
HETATM   20  C   UNL     1     -45.417 -51.990  12.888  1.00  0.00     0.049 A 
HETATM   21  C   UNL     1     -46.513 -51.634  13.677  1.00  0.00     0.012 A 
HETATM   22  C   UNL     1     -46.371 -51.546  15.061  1.00  0.00    -0.046 A 
HETATM   23  C   UNL     1     -47.506 -51.209  15.973  1.00  0.00     0.049 C 
HETATM   24  C   UNL     1     -45.112 -51.786  15.587  1.00  0.00     0.096 A 
HETATM   25  N   UNL     1     -44.036 -52.123  14.847  1.00  0.00    -0.352 N 
ATOM     26  HN  UNL     1     -43.127 -52.280  15.281  1.00  0.00     0.166 HD
ENDBRANCH   1  19
TORSDOF 3
ENDMDL
MODEL 2
REMARK VINA RESULT:      -6.3      1.141      1.559
REMARK  3 active torsions:
REMARK  status: ('A' for Active; 'I' for Inactive)
REMARK    1  A    between atoms: C_5  and  N_6 
REMARK       I    between atoms: N_6  and  C_7 
REMARK       I    between atoms: C_7  and  N_9 
REMARK    2  A    between atoms: N_9  and  C_10 
REMARK    3  A    between atoms: N_13  and  C_16 
ROOT
HETATM    1  N   UNL     1     -41.450 -52.252  12.973  1.00  0.00    -0.295 N 
HETATM    2  C   UNL     1     -40.609 -51.330  12.411  1.00  0.00     0.322 C 
HETATM    3  O   UNL     1     -39.420 -51.604  12.256  1.00  0.00    -0.247 OA
HETATM    4  N   UNL     1     -41.156 -50.128  12.080  1.00  0.00    -0.338 N 
HETATM    5  H   UNL     1     -40.991 -53.119  13.211  1.00  0.00     0.172 HD
HETATM    6  H   UNL     1     -42.157 -50.055  12.248  1.00  0.00     0.164 HD
ENDROOT
BRANCH   4   7
HETATM    7  C   UNL     1     -40.402 -48.947  11.695  1.00  0.00     0.089 C 
HETATM    8  C   UNL     1     -39.784 -48.282  12.936  1.00  0.00     0.055 C 
HETATM    9  C   UNL     1     -40.621 -47.136  13.506  1.00  0.00     0.275 C 
HETATM   10  N   UNL     1     -41.004 -46.127  12.497  1.00  0.00     0.093 N 
HETATM   11  C   UNL     1     -41.871 -46.820  11.530  1.00  0.00     0.275 C 
HETATM   12  C   UNL     1     -41.223 -48.002  10.804  1.00  0.00     0.055 C 
BRANCH  10  13
HETATM   13  C   UNL     1     -39.839 -45.397  11.924  1.00  0.00     0.223 C 
HETATM   14  C   UNL     1     -39.108 -44.557  13.003  1.00  0.00     0.036 C 
HETATM   15  C   UNL     1     -39.892 -43.313  13.433  1.00  0.00     0.002 C 
HETATM   16  C   UNL     1     -40.193 -42.416  12.238  1.00  0.00     0.000 C 
HETATM   17  C   UNL     1     -40.913 -43.185  11.137  1.00  0.00     0.002 C 
HETATM   18  C   UNL     1     -40.147 -44.445  10.740  1.00  0.00     0.036 C 
ENDBRANCH  10  13
ENDBRANCH   4   7
BRANCH   1  19
HETATM   19  C   UNL     1     -42.789 -52.079  13.358  1.00  0.00     0.108 A 
HETATM   20  C   UNL     1     -43.064 -51.504  14.588  1.00  0.00     0.049 A 
HETATM   21  C   UNL     1     -44.397 -51.271  14.936  1.00  0.00     0.012 A 
HETATM   22  C   UNL     1     -45.415 -51.615  14.047  1.00  0.00    -0.046 A 
HETATM   23  C   UNL     1     -46.859 -51.362  14.331  1.00  0.00     0.049 C 
HETATM   24  C   UNL     1     -45.042 -52.217  12.856  1.00  0.00     0.096 A 
HETATM   25  N   UNL     1     -43.763 -52.460  12.501  1.00  0.00    -0.352 N 
ATOM     26  HN  UNL     1     -43.540 -52.915  11.616  1.00  0.00     0.166 HD
ENDBRANCH   1  19
TORSDOF 3
ENDMDL
MODEL 3
REMARK VINA RESULT:      -6.2      1.669      7.637
REMARK  3 active torsions:
REMARK  status: ('A' for Active; 'I' for Inactive)
REMARK    1  A    between atoms: C_5  and  N_6 
REMARK       I    between atoms: N_6  and  C_7 
REMARK       I    between atoms: C_7  and  N_9 
REMARK    2  A    between atoms: N_9  and  C_10 
REMARK    3  A    between atoms: N_13  and  C_16 
ROOT
HETATM    1  N   UNL     1     -40.437 -50.885  11.146  1.00  0.00    -0.295 N 
HETATM    2  C   UNL     1     -41.053 -51.780  11.978  1.00  0.00     0.322 C 
HETATM    3  O   UNL     1     -40.945 -52.986  11.763  1.00  0.00    -0.247 OA
HETATM    4  N   UNL     1     -41.787 -51.258  12.999  1.00  0.00    -0.338 N 
HETATM    5  H   UNL     1     -39.918 -51.325  10.399  1.00  0.00     0.172 HD
HETATM    6  H   UNL     1     -41.766 -50.243  13.062  1.00  0.00     0.164 HD
ENDROOT
BRANCH   4   7
HETATM    7  C   UNL     1     -42.697 -52.014  13.842  1.00  0.00     0.089 C 
HETATM    8  C   UNL     1     -44.129 -51.931  13.289  1.00  0.00     0.055 C 
HETATM    9  C   UNL     1     -44.983 -50.842  13.942  1.00  0.00     0.275 C 
HETATM   10  N   UNL     1     -44.984 -50.900  15.418  1.00  0.00     0.093 N 
HETATM   11  C   UNL     1     -43.599 -50.638  15.843  1.00  0.00     0.275 C 
HETATM   12  C   UNL     1     -42.560 -51.636  15.325  1.00  0.00     0.055 C 
BRANCH  10  13
HETATM   13  C   UNL     1     -45.609 -52.140  15.957  1.00  0.00     0.223 C 
HETATM   14  C   UNL     1     -47.129 -52.190  15.649  1.00  0.00     0.036 C 
HETATM   15  C   UNL     1     -47.948 -51.208  16.491  1.00  0.00     0.002 C 
HETATM   16  C   UNL     1     -47.745 -51.461  17.979  1.00  0.00     0.000 C 
HETATM   17  C   UNL     1     -46.267 -51.425  18.349  1.00  0.00     0.002 C 
HETATM   18  C   UNL     1     -45.448 -52.377  17.481  1.00  0.00     0.036 C 
ENDBRANCH  10  13
ENDBRANCH   4   7
BRANCH   1  19
HETATM   19  C   UNL     1     -40.556 -49.486  11.141  1.00  0.00     0.108 A 
HETATM   20  C   UNL     1     -39.622 -48.733  11.835  1.00  0.00     0.049 A 
HETATM   21  C   UNL     1     -39.704 -47.340  11.770  1.00  0.00     0.012 A 
HETATM   22  C   UNL     1     -40.710 -46.739  11.013  1.00  0.00    -0.046 A 
HETATM   23  C   UNL     1     -40.838 -45.259  10.864  1.00  0.00     0.049 C 
HETATM   24  C   UNL     1     -41.616 -47.577  10.383  1.00  0.00     0.096 A 
HETATM   25  N   UNL     1     -41.564 -48.924  10.437  1.00  0.00    -0.352 N 
ATOM     26  HN  UNL     1     -42.261 -49.497   9.964  1.00  0.00     0.166 HD
ENDBRANCH   1  19
TORSDOF 3
ENDMDL
MODEL 4
REMARK VINA RESULT:      -6.1      2.887      8.039
REMARK  3 active torsions:
REMARK  status: ('A' for Active; 'I' for Inactive)
REMARK    1  A    between atoms: C_5  and  N_6 
REMARK       I    between atoms: N_6  and  C_7 
REMARK       I    between atoms: C_7  and  N_9 
REMARK    2  A    between atoms: N_9  and  C_10 
REMARK    3  A    between atoms: N_13  and  C_16 
ROOT
HETATM    1  N   UNL     1     -42.789 -52.996  11.881  1.00  0.00    -0.295 N 
HETATM    2  C   UNL     1     -43.821 -53.450  12.657  1.00  0.00     0.322 C 
HETATM    3  O   UNL     1     -44.613 -54.271  12.198  1.00  0.00    -0.247 OA
HETATM    4  N   UNL     1     -43.919 -52.925  13.909  1.00  0.00    -0.338 N 
HETATM    5  H   UNL     1     -42.771 -53.407  10.959  1.00  0.00     0.172 HD
HETATM    6  H   UNL     1     -43.178 -52.272  14.157  1.00  0.00     0.164 HD
ENDROOT
BRANCH   4   7
HETATM    7  C   UNL     1     -45.057 -53.092  14.796  1.00  0.00     0.089 C 
HETATM    8  C   UNL     1     -45.978 -51.864  14.717  1.00  0.00     0.055 C 
HETATM    9  C   UNL     1     -45.722 -50.826  15.811  1.00  0.00     0.275 C 
HETATM   10  N   UNL     1     -45.710 -51.396  17.173  1.00  0.00     0.093 N 
HETATM   11  C   UNL     1     -44.570 -52.326  17.222  1.00  0.00     0.275 C 
HETATM   12  C   UNL     1     -44.630 -53.482  16.220  1.00  0.00     0.055 C 
BRANCH  10  13
HETATM   13  C   UNL     1     -47.027 -51.955  17.589  1.00  0.00     0.223 C 
HETATM   14  C   UNL     1     -48.175 -50.937  17.355  1.00  0.00     0.036 C 
HETATM   15  C   UNL     1     -48.163 -49.775  18.352  1.00  0.00     0.002 C 
HETATM   16  C   UNL     1     -48.247 -50.283  19.786  1.00  0.00     0.000 C 
HETATM   17  C   UNL     1     -47.143 -51.291  20.081  1.00  0.00     0.002 C 
HETATM   18  C   UNL     1     -47.133 -52.427  19.061  1.00  0.00     0.036 C 
ENDBRANCH  10  13
ENDBRANCH   4   7
BRANCH   1  19
HETATM   19  C   UNL     1     -41.876 -51.969  12.171  1.00  0.00     0.108 A 
HETATM   20  C   UNL     1     -40.629 -52.304  12.674  1.00  0.00     0.049 A 
HETATM   21  C   UNL     1     -39.701 -51.284  12.895  1.00  0.00     0.012 A 
HETATM   22  C   UNL     1     -40.040 -49.963  12.605  1.00  0.00    -0.046 A 
HETATM   23  C   UNL     1     -39.088 -48.825  12.778  1.00  0.00     0.049 C 
HETATM   24  C   UNL     1     -41.322 -49.725  12.138  1.00  0.00     0.096 A 
HETATM   25  N   UNL     1     -42.240 -50.690  11.924  1.00  0.00    -0.352 N 
ATOM     26  HN  UNL     1     -43.175 -50.463  11.589  1.00  0.00     0.166 HD
ENDBRANCH   1  19
TORSDOF 3
ENDMDL
MODEL 5
REMARK VINA RESULT:      -5.9      2.702      8.095
REMARK  3 active torsions:
REMARK  status: ('A' for Active; 'I' for Inactive)
REMARK    1  A    between atoms: C_5  and  N_6 
REMARK       I    between atoms: N_6  and  C_7 
REMARK       I    between atoms: C_7  and  N_9 
REMARK    2  A    between atoms: N_9  and  C_10 
REMARK    3  A    between atoms: N_13  and  C_16 
ROOT
HETATM    1  N   UNL     1     -37.494 -49.434  12.832  1.00  0.00    -0.295 N 
HETATM    2  C   UNL     1     -37.965 -50.719  12.799  1.00  0.00     0.322 C 
HETATM    3  O   UNL     1     -37.363 -51.572  12.149  1.00  0.00    -0.247 OA
HETATM    4  N   UNL     1     -39.115 -50.964  13.485  1.00  0.00    -0.338 N 
HETATM    5  H   UNL     1     -36.647 -49.305  12.297  1.00  0.00     0.172 HD
HETATM    6  H   UNL     1     -39.487 -50.165  13.992  1.00  0.00     0.164 HD
ENDROOT
BRANCH   4   7
HETATM    7  C   UNL     1     -39.899 -52.184  13.388  1.00  0.00     0.089 C 
HETATM    8  C   UNL     1     -41.016 -52.018  12.344  1.00  0.00     0.055 C 
HETATM    9  C   UNL     1     -42.365 -51.612  12.940  1.00  0.00     0.275 C 
HETATM   10  N   UNL     1     -42.802 -52.477  14.054  1.00  0.00     0.093 N 
HETATM   11  C   UNL     1     -41.812 -52.297  15.130  1.00  0.00     0.275 C 
HETATM   12  C   UNL     1     -40.375 -52.676  14.763  1.00  0.00     0.055 C 
BRANCH  10  13
HETATM   13  C   UNL     1     -43.064 -53.883  13.638  1.00  0.00     0.223 C 
HETATM   14  C   UNL     1     -44.197 -53.960  12.581  1.00  0.00     0.036 C 
HETATM   15  C   UNL     1     -45.587 -53.695  13.166  1.00  0.00     0.002 C 
HETATM   16  C   UNL     1     -45.904 -54.672  14.291  1.00  0.00     0.000 C 
HETATM   17  C   UNL     1     -44.824 -54.645  15.367  1.00  0.00     0.002 C 
HETATM   18  C   UNL     1     -43.436 -54.872  14.774  1.00  0.00     0.036 C 
ENDBRANCH  10  13
ENDBRANCH   4   7
BRANCH   1  19
HETATM   19  C   UNL     1     -38.107 -48.303  13.393  1.00  0.00     0.108 A 
HETATM   20  C   UNL     1     -37.666 -47.844  14.625  1.00  0.00     0.049 A 
HETATM   21  C   UNL     1     -38.231 -46.679  15.146  1.00  0.00     0.012 A 
HETATM   22  C   UNL     1     -39.215 -46.003  14.425  1.00  0.00    -0.046 A 
HETATM   23  C   UNL     1     -39.838 -44.731  14.898  1.00  0.00     0.049 C 
HETATM   24  C   UNL     1     -39.614 -46.559  13.220  1.00  0.00     0.096 A 
HETATM   25  N   UNL     1     -39.090 -47.687  12.699  1.00  0.00    -0.352 N 
ATOM     26  HN  UNL     1     -39.424 -48.063  11.812  1.00  0.00     0.166 HD
ENDBRANCH   1  19
TORSDOF 3
ENDMDL
MODEL 6
REMARK VINA RESULT:      -5.8      2.668      7.835
REMARK  3 active torsions:
REMARK  status: ('A' for Active; 'I' for Inactive)
REMARK    1  A    between atoms: C_5  and  N_6 
REMARK       I    between atoms: N_6  and  C_7 
REMARK       I    between atoms: C_7  and  N_9 
REMARK    2  A    between atoms: N_9  and  C_10 
REMARK    3  A    between atoms: N_13  and  C_16 
ROOT
HETATM    1  N   UNL     1     -39.542 -47.415  12.389  1.00  0.00    -0.295 N 
HETATM    2  C   UNL     1     -40.510 -48.187  11.805  1.00  0.00     0.322 C 
HETATM    3  O   UNL     1     -41.003 -47.838  10.733  1.00  0.00    -0.247 OA
HETATM    4  N   UNL     1     -40.892 -49.303  12.484  1.00  0.00    -0.338 N 
HETATM    5  H   UNL     1     -39.306 -46.595  11.851  1.00  0.00     0.172 HD
HETATM    6  H   UNL     1     -40.381 -49.473  13.347  1.00  0.00     0.164 HD
ENDROOT
BRANCH   4   7
HETATM    7  C   UNL     1     -42.050 -50.119  12.161  1.00  0.00     0.089 C 
HETATM    8  C   UNL     1     -43.284 -49.620  12.930  1.00  0.00     0.055 C 
HETATM    9  C   UNL     1     -43.550 -50.376  14.232  1.00  0.00     0.275 C 
HETATM   10  N   UNL     1     -43.584 -51.844  14.066  1.00  0.00     0.093 N 
HETATM   11  C   UNL     1     -42.233 -52.242  13.635  1.00  0.00     0.275 C 
HETATM   12  C   UNL     1     -41.762 -51.620  12.317  1.00  0.00     0.055 C 
BRANCH  10  13
HETATM   13  C   UNL     1     -44.708 -52.313  13.208  1.00  0.00     0.223 C 
HETATM   14  C   UNL     1     -46.084 -51.942  13.821  1.00  0.00     0.036 C 
HETATM   15  C   UNL     1     -46.444 -52.785  15.048  1.00  0.00     0.002 C 
HETATM   16  C   UNL     1     -46.447 -54.270  14.709  1.00  0.00     0.000 C 
HETATM   17  C   UNL     1     -45.118 -54.701  14.100  1.00  0.00     0.002 C 
HETATM   18  C   UNL     1     -44.743 -53.832  12.901  1.00  0.00     0.036 C 
ENDBRANCH  10  13
ENDBRANCH   4   7
BRANCH   1  19
HETATM   19  C   UNL     1     -38.966 -47.567  13.660  1.00  0.00     0.108 A 
HETATM   20  C   UNL     1     -37.791 -48.293  13.781  1.00  0.00     0.049 A 
HETATM   21  C   UNL     1     -37.186 -48.382  15.036  1.00  0.00     0.012 A 
HETATM   22  C   UNL     1     -37.765 -47.743  16.132  1.00  0.00    -0.046 A 
HETATM   23  C   UNL     1     -37.156 -47.761  17.496  1.00  0.00     0.049 C 
HETATM   24  C   UNL     1     -38.957 -47.071  15.918  1.00  0.00     0.096 A 
HETATM   25  N   UNL     1     -39.566 -46.977  14.718  1.00  0.00    -0.352 N 
ATOM     26  HN  UNL     1     -40.449 -46.478  14.613  1.00  0.00     0.166 HD
ENDBRANCH   1  19
TORSDOF 3
ENDMDL
MODEL 7
REMARK VINA RESULT:      -5.7      3.799      5.465
REMARK  3 active torsions:
REMARK  status: ('A' for Active; 'I' for Inactive)
REMARK    1  A    between atoms: C_5  and  N_6 
REMARK       I    between atoms: N_6  and  C_7 
REMARK       I    between atoms: C_7  and  N_9 
REMARK    2  A    between atoms: N_9  and  C_10 
REMARK    3  A    between atoms: N_13  and  C_16 
ROOT
HETATM    1  N   UNL     1     -41.456 -49.261  10.523  1.00  0.00    -0.295 N 
HETATM    2  C   UNL     1     -41.867 -47.989  10.227  1.00  0.00     0.322 C 
HETATM    3  O   UNL     1     -42.739 -47.814   9.378  1.00  0.00    -0.247 OA
HETATM    4  N   UNL     1     -41.244 -46.977  10.890  1.00  0.00    -0.338 N 
HETATM    5  H   UNL     1     -41.940 -49.971   9.994  1.00  0.00     0.172 HD
HETATM    6  H   UNL     1     -40.557 -47.278  11.579  1.00  0.00     0.164 HD
ENDROOT
BRANCH   4   7
HETATM    7  C   UNL     1     -41.362 -45.567  10.560  1.00  0.00     0.089 C 
HETATM    8  C   UNL     1     -40.069 -44.823  10.930  1.00  0.00     0.055 C 
HETATM    9  C   UNL     1     -40.113 -44.148  12.301  1.00  0.00     0.275 C 
HETATM   10  N   UNL     1     -41.296 -43.286  12.496  1.00  0.00     0.093 N 
HETATM   11  C   UNL     1     -42.468 -44.177  12.445  1.00  0.00     0.275 C 
HETATM   12  C   UNL     1     -42.645 -44.944  11.132  1.00  0.00     0.055 C 
BRANCH  10  13
HETATM   13  C   UNL     1     -41.328 -42.113  11.579  1.00  0.00     0.223 C 
HETATM   14  C   UNL     1     -40.409 -40.971  12.086  1.00  0.00     0.036 C 
HETATM   15  C   UNL     1     -40.971 -40.243  13.311  1.00  0.00     0.002 C 
HETATM   16  C   UNL     1     -42.350 -39.665  13.018  1.00  0.00     0.000 C 
HETATM   17  C   UNL     1     -43.305 -40.740  12.513  1.00  0.00     0.002 C 
HETATM   18  C   UNL     1     -42.723 -41.489  11.317  1.00  0.00     0.036 C 
ENDBRANCH  10  13
ENDBRANCH   4   7
BRANCH   1  19
HETATM   19  C   UNL     1     -40.390 -49.655  11.348  1.00  0.00     0.108 A 
HETATM   20  C   UNL     1     -40.655 -50.007  12.661  1.00  0.00     0.049 A 
HETATM   21  C   UNL     1     -39.602 -50.465  13.457  1.00  0.00     0.012 A 
HETATM   22  C   UNL     1     -38.318 -50.561  12.920  1.00  0.00    -0.046 A 
HETATM   23  C   UNL     1     -37.151 -51.077  13.695  1.00  0.00     0.049 C 
HETATM   24  C   UNL     1     -38.147 -50.152  11.607  1.00  0.00     0.096 A 
HETATM   25  N   UNL     1     -39.145 -49.699  10.821  1.00  0.00    -0.352 N 
ATOM     26  HN  UNL     1     -38.967 -49.401   9.862  1.00  0.00     0.166 HD
ENDBRANCH   1  19
TORSDOF 3
ENDMDL
MODEL 8
REMARK VINA RESULT:      -5.7      2.729      3.775
REMARK  3 active torsions:
REMARK  status: ('A' for Active; 'I' for Inactive)
REMARK    1  A    between atoms: C_5  and  N_6 
REMARK       I    between atoms: N_6  and  C_7 
REMARK       I    between atoms: C_7  and  N_9 
REMARK    2  A    between atoms: N_9  and  C_10 
REMARK    3  A    between atoms: N_13  and  C_16 
ROOT
HETATM    1  N   UNL     1     -45.913 -53.516  13.930  1.00  0.00    -0.295 N 
HETATM    2  C   UNL     1     -44.860 -53.157  13.132  1.00  0.00     0.322 C 
HETATM    3  O   UNL     1     -44.587 -53.835  12.143  1.00  0.00    -0.247 OA
HETATM    4  N   UNL     1     -44.152 -52.060  13.515  1.00  0.00    -0.338 N 
HETATM    5  H   UNL     1     -46.394 -54.343  13.608  1.00  0.00     0.172 HD
HETATM    6  H   UNL     1     -44.510 -51.589  14.343  1.00  0.00     0.164 HD
ENDROOT
BRANCH   4   7
HETATM    7  C   UNL     1     -42.877 -51.652  12.949  1.00  0.00     0.089 C 
HETATM    8  C   UNL     1     -41.719 -52.315  13.713  1.00  0.00     0.055 C 
HETATM    9  C   UNL     1     -41.118 -51.437  14.811  1.00  0.00     0.275 C 
HETATM   10  N   UNL     1     -40.744 -50.086  14.347  1.00  0.00     0.093 N 
HETATM   11  C   UNL     1     -41.997 -49.427  13.942  1.00  0.00     0.275 C 
HETATM   12  C   UNL     1     -42.765 -50.125  12.816  1.00  0.00     0.055 C 
BRANCH  10  13
HETATM   13  C   UNL     1     -39.653 -50.093  13.333  1.00  0.00     0.223 C 
HETATM   14  C   UNL     1     -38.314 -50.585  13.943  1.00  0.00     0.036 C 
HETATM   15  C   UNL     1     -37.666 -49.561  14.880  1.00  0.00     0.002 C 
HETATM   16  C   UNL     1     -37.418 -48.242  14.161  1.00  0.00     0.000 C 
HETATM   17  C   UNL     1     -38.699 -47.703  13.536  1.00  0.00     0.002 C 
HETATM   18  C   UNL     1     -39.363 -48.740  12.633  1.00  0.00     0.036 C 
ENDBRANCH  10  13
ENDBRANCH   4   7
BRANCH   1  19
HETATM   19  C   UNL     1     -46.292 -52.962  15.163  1.00  0.00     0.108 A 
HETATM   20  C   UNL     1     -47.100 -51.836  15.171  1.00  0.00     0.049 A 
HETATM   21  C   UNL     1     -47.531 -51.330  16.399  1.00  0.00     0.012 A 
HETATM   22  C   UNL     1     -47.147 -51.961  17.582  1.00  0.00    -0.046 A 
HETATM   23  C   UNL     1     -47.599 -51.502  18.929  1.00  0.00     0.049 C 
HETATM   24  C   UNL     1     -46.309 -53.059  17.472  1.00  0.00     0.096 A 
HETATM   25  N   UNL     1     -45.873 -53.562  16.300  1.00  0.00    -0.352 N 
ATOM     26  HN  UNL     1     -45.248 -54.368  16.272  1.00  0.00     0.166 HD
ENDBRANCH   1  19
TORSDOF 3
ENDMDL
MODEL 9
REMARK VINA RESULT:      -5.6      4.849      8.028
REMARK  3 active torsions:
REMARK  status: ('A' for Active; 'I' for Inactive)
REMARK    1  A    between atoms: C_5  and  N_6 
REMARK       I    between atoms: N_6  and  C_7 
REMARK       I    between atoms: C_7  and  N_9 
REMARK    2  A    between atoms: N_9  and  C_10 
REMARK    3  A    between atoms: N_13  and  C_16 
ROOT
HETATM    1  N   UNL     1     -43.420 -50.799  13.522  1.00  0.00    -0.295 N 
HETATM    2  C   UNL     1     -42.322 -51.616  13.540  1.00  0.00     0.322 C 
HETATM    3  O   UNL     1     -41.460 -51.496  12.670  1.00  0.00    -0.247 OA
HETATM    4  N   UNL     1     -42.273 -52.550  14.529  1.00  0.00    -0.338 N 
HETATM    5  H   UNL     1     -43.412 -50.135  12.762  1.00  0.00     0.172 HD
HETATM    6  H   UNL     1     -43.048 -52.515  15.187  1.00  0.00     0.164 HD
ENDROOT
BRANCH   4   7
HETATM    7  C   UNL     1     -41.327 -53.652  14.588  1.00  0.00     0.089 C 
HETATM    8  C   UNL     1     -41.991 -54.890  15.211  1.00  0.00     0.055 C 
HETATM    9  C   UNL     1     -41.731 -55.044  16.710  1.00  0.00     0.275 C 
HETATM   10  N   UNL     1     -40.301 -54.969  17.071  1.00  0.00     0.093 N 
HETATM   11  C   UNL     1     -39.858 -53.609  16.721  1.00  0.00     0.275 C 
HETATM   12  C   UNL     1     -39.999 -53.240  15.242  1.00  0.00     0.055 C 
BRANCH  10  13
HETATM   13  C   UNL     1     -39.492 -56.085  16.507  1.00  0.00     0.223 C 
HETATM   14  C   UNL     1     -39.895 -57.448  17.128  1.00  0.00     0.036 C 
HETATM   15  C   UNL     1     -39.424 -57.614  18.576  1.00  0.00     0.002 C 
HETATM   16  C   UNL     1     -37.912 -57.458  18.681  1.00  0.00     0.000 C 
HETATM   17  C   UNL     1     -37.450 -56.134  18.086  1.00  0.00     0.002 C 
HETATM   18  C   UNL     1     -37.954 -55.955  16.656  1.00  0.00     0.036 C 
ENDBRANCH  10  13
ENDBRANCH   4   7
BRANCH   1  19
HETATM   19  C   UNL     1     -44.565 -50.872  14.332  1.00  0.00     0.108 A 
HETATM   20  C   UNL     1     -45.744 -51.351  13.783  1.00  0.00     0.049 A 
HETATM   21  C   UNL     1     -46.860 -51.487  14.611  1.00  0.00     0.012 A 
HETATM   22  C   UNL     1     -46.769 -51.144  15.960  1.00  0.00    -0.046 A 
HETATM   23  C   UNL     1     -47.907 -51.298  16.915  1.00  0.00     0.049 C 
HETATM   24  C   UNL     1     -45.558 -50.642  16.407  1.00  0.00     0.096 A 
HETATM   25  N   UNL     1     -44.467 -50.493  15.626  1.00  0.00    -0.352 N 
ATOM     26  HN  UNL     1     -43.600 -50.109  16.000  1.00  0.00     0.166 HD
ENDBRANCH   1  19
TORSDOF 3
ENDMDL
