MODEL 1
REMARK VINA RESULT:      -5.7      0.000      0.000
REMARK  6 active torsions:
REMARK  status: ('A' for Active; 'I' for Inactive)
REMARK    1  A    between atoms: O_1  and  C_2 
REMARK    2  A    between atoms: C_2  and  C_3 
REMARK    3  A    between atoms: C_3  and  C_4 
REMARK    4  A    between atoms: C_4  and  N_5 
REMARK    5  A    between atoms: C_4  and  C_16 
REMARK       I    between atoms: N_5  and  C_6 
REMARK       I    between atoms: C_6  and  N_8 
REMARK    6  A    between atoms: N_8  and  C_9 
ROOT
HETATM    1  N   UNL     1     -41.482 -51.864  13.984  1.00  0.00    -0.338 N 
HETATM    2  C   UNL     1     -41.075 -51.172  15.078  1.00  0.00     0.322 C 
HETATM    3  O   UNL     1     -41.621 -51.235  16.177  1.00  0.00    -0.247 OA
HETATM    4  N   UNL     1     -39.989 -50.363  14.923  1.00  0.00    -0.295 N 
HETATM    5  H   UNL     1     -40.976 -51.630  13.131  1.00  0.00     0.164 HD
HETATM    6  H   UNL     1     -39.750 -49.860  15.764  1.00  0.00     0.172 HD
ENDROOT
BRANCH   1   7
HETATM    7  C   UNL     1     -42.654 -52.731  13.879  1.00  0.00     0.092 C 
BRANCH   7   8
HETATM    8  C   UNL     1     -42.195 -54.096  13.319  1.00  0.00     0.051 C 
BRANCH   8   9
HETATM    9  C   UNL     1     -40.725 -54.154  12.919  1.00  0.00     0.166 C 
BRANCH   9  10
HETATM   10  O   UNL     1     -40.587 -53.521  11.648  1.00  0.00    -0.401 OA
HETATM   11  H   UNL     1     -40.059 -52.717  11.786  1.00  0.00     0.209 HD
ENDBRANCH   9  10
ENDBRANCH   8   9
ENDBRANCH   7   8
BRANCH   7  12
HETATM   12  C   UNL     1     -43.738 -52.084  12.948  1.00  0.00     0.008 C 
HETATM   13  C   UNL     1     -44.383 -50.806  13.522  1.00  0.00     0.007 C 
HETATM   14  C   UNL     1     -45.290 -51.092  14.716  1.00  0.00     0.000 C 
HETATM   15  C   UNL     1     -46.384 -52.094  14.369  1.00  0.00     0.000 C 
HETATM   16  C   UNL     1     -45.839 -53.352  13.698  1.00  0.00     0.000 C 
HETATM   17  C   UNL     1     -44.884 -53.037  12.546  1.00  0.00     0.007 C 
ENDBRANCH   7  12
ENDBRANCH   1   7
BRANCH   4  18
HETATM   18  C   UNL     1     -39.177 -50.192  13.796  1.00  0.00     0.108 A 
HETATM   19  C   UNL     1     -38.110 -51.062  13.621  1.00  0.00     0.049 A 
HETATM   20  C   UNL     1     -37.313 -50.928  12.484  1.00  0.00     0.005 A 
HETATM   21  C   UNL     1     -37.602 -49.932  11.560  1.00  0.00     0.017 A 
HETATM   22  C   UNL     1     -38.673 -49.103  11.818  1.00  0.00     0.089 A 
HETATM   23  N   UNL     1     -39.463 -49.211  12.909  1.00  0.00    -0.352 N 
ATOM     24  HN  UNL     1     -40.247 -48.576  13.059  1.00  0.00     0.166 HD
ENDBRANCH   4  18
TORSDOF 6
ENDMDL
MODEL 2
REMARK VINA RESULT:      -5.6      1.925      2.768
REMARK  6 active torsions:
REMARK  status: ('A' for Active; 'I' for Inactive)
REMARK    1  A    between atoms: O_1  and  C_2 
REMARK    2  A    between atoms: C_2  and  C_3 
REMARK    3  A    between atoms: C_3  and  C_4 
REMARK    4  A    between atoms: C_4  and  N_5 
REMARK    5  A    between atoms: C_4  and  C_16 
REMARK       I    between atoms: N_5  and  C_6 
REMARK       I    between atoms: C_6  and  N_8 
REMARK    6  A    between atoms: N_8  and  C_9 
ROOT
HETATM    1  N   UNL     1     -42.836 -52.399  13.487  1.00  0.00    -0.338 N 
HETATM    2  C   UNL     1     -41.822 -53.301  13.436  1.00  0.00     0.322 C 
HETATM    3  O   UNL     1     -41.944 -54.493  13.713  1.00  0.00    -0.247 OA
HETATM    4  N   UNL     1     -40.602 -52.832  13.049  1.00  0.00    -0.295 N 
HETATM    5  H   UNL     1     -42.546 -51.438  13.313  1.00  0.00     0.164 HD
HETATM    6  H   UNL     1     -39.888 -53.544  13.051  1.00  0.00     0.172 HD
ENDROOT
BRANCH   1   7
HETATM    7  C   UNL     1     -44.204 -52.640  13.939  1.00  0.00     0.092 C 
BRANCH   7   8
HETATM    8  C   UNL     1     -44.864 -53.642  12.966  1.00  0.00     0.051 C 
BRANCH   8   9
HETATM    9  C   UNL     1     -45.406 -54.904  13.629  1.00  0.00     0.166 C 
BRANCH   9  10
HETATM   10  O   UNL     1     -44.522 -55.260  14.690  1.00  0.00    -0.401 OA
HETATM   11  H   UNL     1     -44.509 -54.514  15.313  1.00  0.00     0.209 HD
ENDBRANCH   9  10
ENDBRANCH   8   9
ENDBRANCH   7   8
BRANCH   7  12
HETATM   12  C   UNL     1     -45.013 -51.298  13.989  1.00  0.00     0.008 C 
HETATM   13  C   UNL     1     -44.632 -50.373  15.164  1.00  0.00     0.007 C 
HETATM   14  C   UNL     1     -45.079 -50.927  16.515  1.00  0.00     0.000 C 
HETATM   15  C   UNL     1     -46.578 -51.191  16.551  1.00  0.00     0.000 C 
HETATM   16  C   UNL     1     -47.059 -52.018  15.361  1.00  0.00     0.000 C 
HETATM   17  C   UNL     1     -46.546 -51.479  14.026  1.00  0.00     0.007 C 
ENDBRANCH   7  12
ENDBRANCH   1   7
BRANCH   4  18
HETATM   18  C   UNL     1     -40.253 -51.546  12.623  1.00  0.00     0.108 A 
HETATM   19  C   UNL     1     -39.447 -50.778  13.452  1.00  0.00     0.049 A 
HETATM   20  C   UNL     1     -39.061 -49.507  13.026  1.00  0.00     0.005 A 
HETATM   21  C   UNL     1     -39.491 -49.041  11.790  1.00  0.00     0.017 A 
HETATM   22  C   UNL     1     -40.300 -49.863  11.035  1.00  0.00     0.089 A 
HETATM   23  N   UNL     1     -40.687 -51.099  11.422  1.00  0.00    -0.352 N 
ATOM     24  HN  UNL     1     -41.286 -51.675  10.829  1.00  0.00     0.166 HD
ENDBRANCH   4  18
TORSDOF 6
ENDMDL
MODEL 3
REMARK VINA RESULT:      -5.4      2.612      3.989
REMARK  6 active torsions:
REMARK  status: ('A' for Active; 'I' for Inactive)
REMARK    1  A    between atoms: O_1  and  C_2 
REMARK    2  A    between atoms: C_2  and  C_3 
REMARK    3  A    between atoms: C_3  and  C_4 
REMARK    4  A    between atoms: C_4  and  N_5 
REMARK    5  A    between atoms: C_4  and  C_16 
REMARK       I    between atoms: N_5  and  C_6 
REMARK       I    between atoms: C_6  and  N_8 
REMARK    6  A    between atoms: N_8  and  C_9 
ROOT
HETATM    1  N   UNL     1     -42.350 -51.394  12.437  1.00  0.00    -0.338 N 
HETATM    2  C   UNL     1     -41.216 -51.738  11.774  1.00  0.00     0.322 C 
HETATM    3  O   UNL     1     -40.804 -52.890  11.663  1.00  0.00    -0.247 OA
HETATM    4  N   UNL     1     -40.508 -50.722  11.203  1.00  0.00    -0.295 N 
HETATM    5  H   UNL     1     -42.500 -50.389  12.511  1.00  0.00     0.164 HD
HETATM    6  H   UNL     1     -39.667 -51.038  10.745  1.00  0.00     0.172 HD
ENDROOT
BRANCH   1   7
HETATM    7  C   UNL     1     -43.232 -52.284  13.188  1.00  0.00     0.092 C 
BRANCH   7   8
HETATM    8  C   UNL     1     -44.686 -51.799  12.994  1.00  0.00     0.051 C 
BRANCH   8   9
HETATM    9  C   UNL     1     -45.681 -52.904  12.656  1.00  0.00     0.166 C 
BRANCH   9  10
HETATM   10  O   UNL     1     -46.464 -52.469  11.546  1.00  0.00    -0.401 OA
HETATM   11  H   UNL     1     -45.957 -52.673  10.742  1.00  0.00     0.209 HD
ENDBRANCH   9  10
ENDBRANCH   8   9
ENDBRANCH   7   8
BRANCH   7  12
HETATM   12  C   UNL     1     -42.845 -52.291  14.708  1.00  0.00     0.008 C 
HETATM   13  C   UNL     1     -41.468 -52.918  15.008  1.00  0.00     0.007 C 
HETATM   14  C   UNL     1     -41.451 -54.429  14.791  1.00  0.00     0.000 C 
HETATM   15  C   UNL     1     -42.514 -55.132  15.625  1.00  0.00     0.000 C 
HETATM   16  C   UNL     1     -43.897 -54.506  15.465  1.00  0.00     0.000 C 
HETATM   17  C   UNL     1     -43.875 -52.986  15.625  1.00  0.00     0.007 C 
ENDBRANCH   7  12
ENDBRANCH   1   7
BRANCH   4  18
HETATM   18  C   UNL     1     -40.823 -49.360  11.142  1.00  0.00     0.108 A 
HETATM   19  C   UNL     1     -40.070 -48.479  11.906  1.00  0.00     0.049 A 
HETATM   20  C   UNL     1     -40.349 -47.115  11.829  1.00  0.00     0.005 A 
HETATM   21  C   UNL     1     -41.369 -46.672  10.997  1.00  0.00     0.017 A 
HETATM   22  C   UNL     1     -42.076 -47.615  10.282  1.00  0.00     0.089 A 
HETATM   23  N   UNL     1     -41.827 -48.942  10.336  1.00  0.00    -0.352 N 
ATOM     24  HN  UNL     1     -42.375 -49.606   9.789  1.00  0.00     0.166 HD
ENDBRANCH   4  18
TORSDOF 6
ENDMDL
MODEL 4
REMARK VINA RESULT:      -5.4      3.295      5.794
REMARK  6 active torsions:
REMARK  status: ('A' for Active; 'I' for Inactive)
REMARK    1  A    between atoms: O_1  and  C_2 
REMARK    2  A    between atoms: C_2  and  C_3 
REMARK    3  A    between atoms: C_3  and  C_4 
REMARK    4  A    between atoms: C_4  and  N_5 
REMARK    5  A    between atoms: C_4  and  C_16 
REMARK       I    between atoms: N_5  and  C_6 
REMARK       I    between atoms: C_6  and  N_8 
REMARK    6  A    between atoms: N_8  and  C_9 
ROOT
HETATM    1  N   UNL     1     -41.335 -49.825  12.601  1.00  0.00    -0.338 N 
HETATM    2  C   UNL     1     -40.595 -50.455  11.653  1.00  0.00     0.322 C 
HETATM    3  O   UNL     1     -39.717 -49.909  10.988  1.00  0.00    -0.247 OA
HETATM    4  N   UNL     1     -40.861 -51.776  11.445  1.00  0.00    -0.295 N 
HETATM    5  H   UNL     1     -42.080 -50.398  12.995  1.00  0.00     0.164 HD
HETATM    6  H   UNL     1     -40.294 -52.180  10.715  1.00  0.00     0.172 HD
ENDROOT
BRANCH   1   7
HETATM    7  C   UNL     1     -41.290 -48.408  12.952  1.00  0.00     0.092 C 
BRANCH   7   8
HETATM    8  C   UNL     1     -40.819 -48.289  14.419  1.00  0.00     0.051 C 
BRANCH   8   9
HETATM    9  C   UNL     1     -39.331 -48.002  14.584  1.00  0.00     0.166 C 
BRANCH   9  10
HETATM   10  O   UNL     1     -38.705 -48.166  13.312  1.00  0.00    -0.401 OA
HETATM   11  H   UNL     1     -39.408 -48.368  12.673  1.00  0.00     0.209 HD
ENDBRANCH   9  10
ENDBRANCH   8   9
ENDBRANCH   7   8
BRANCH   7  12
HETATM   12  C   UNL     1     -42.700 -47.747  12.765  1.00  0.00     0.008 C 
HETATM   13  C   UNL     1     -43.368 -48.055  11.409  1.00  0.00     0.007 C 
HETATM   14  C   UNL     1     -42.668 -47.365  10.241  1.00  0.00     0.000 C 
HETATM   15  C   UNL     1     -42.598 -45.856  10.434  1.00  0.00     0.000 C 
HETATM   16  C   UNL     1     -42.041 -45.463  11.800  1.00  0.00     0.000 C 
HETATM   17  C   UNL     1     -42.716 -46.214  12.947  1.00  0.00     0.007 C 
ENDBRANCH   7  12
ENDBRANCH   1   7
BRANCH   4  18
HETATM   18  C   UNL     1     -41.755 -52.608  12.128  1.00  0.00     0.108 A 
HETATM   19  C   UNL     1     -41.266 -53.370  13.180  1.00  0.00     0.049 A 
HETATM   20  C   UNL     1     -42.152 -54.177  13.893  1.00  0.00     0.005 A 
HETATM   21  C   UNL     1     -43.494 -54.201  13.535  1.00  0.00     0.017 A 
HETATM   22  C   UNL     1     -43.893 -53.423  12.469  1.00  0.00     0.089 A 
HETATM   23  N   UNL     1     -43.057 -52.631  11.762  1.00  0.00    -0.352 N 
ATOM     24  HN  UNL     1     -43.396 -52.070  10.981  1.00  0.00     0.166 HD
ENDBRANCH   4  18
TORSDOF 6
ENDMDL
MODEL 5
REMARK VINA RESULT:      -5.4      2.080      6.103
REMARK  6 active torsions:
REMARK  status: ('A' for Active; 'I' for Inactive)
REMARK    1  A    between atoms: O_1  and  C_2 
REMARK    2  A    between atoms: C_2  and  C_3 
REMARK    3  A    between atoms: C_3  and  C_4 
REMARK    4  A    between atoms: C_4  and  N_5 
REMARK    5  A    between atoms: C_4  and  C_16 
REMARK       I    between atoms: N_5  and  C_6 
REMARK       I    between atoms: C_6  and  N_8 
REMARK    6  A    between atoms: N_8  and  C_9 
ROOT
HETATM    1  N   UNL     1     -41.651 -52.613  13.801  1.00  0.00    -0.338 N 
HETATM    2  C   UNL     1     -41.901 -52.702  12.469  1.00  0.00     0.322 C 
HETATM    3  O   UNL     1     -41.029 -52.778  11.607  1.00  0.00    -0.247 OA
HETATM    4  N   UNL     1     -43.211 -52.706  12.090  1.00  0.00    -0.295 N 
HETATM    5  H   UNL     1     -42.483 -52.467  14.371  1.00  0.00     0.164 HD
HETATM    6  H   UNL     1     -43.330 -52.753  11.090  1.00  0.00     0.172 HD
ENDROOT
BRANCH   1   7
HETATM    7  C   UNL     1     -40.343 -52.516  14.444  1.00  0.00     0.092 C 
BRANCH   7   8
HETATM    8  C   UNL     1     -40.122 -53.795  15.282  1.00  0.00     0.051 C 
BRANCH   8   9
HETATM    9  C   UNL     1     -39.132 -54.784  14.677  1.00  0.00     0.166 C 
BRANCH   9  10
HETATM   10  O   UNL     1     -38.945 -54.440  13.305  1.00  0.00    -0.401 OA
HETATM   11  H   UNL     1     -39.746 -53.968  13.018  1.00  0.00     0.209 HD
ENDBRANCH   9  10
ENDBRANCH   8   9
ENDBRANCH   7   8
BRANCH   7  12
HETATM   12  C   UNL     1     -40.266 -51.237  15.349  1.00  0.00     0.008 C 
HETATM   13  C   UNL     1     -40.650 -49.928  14.627  1.00  0.00     0.007 C 
HETATM   14  C   UNL     1     -39.612 -49.503  13.591  1.00  0.00     0.000 C 
HETATM   15  C   UNL     1     -38.228 -49.349  14.207  1.00  0.00     0.000 C 
HETATM   16  C   UNL     1     -37.810 -50.565  15.029  1.00  0.00     0.000 C 
HETATM   17  C   UNL     1     -38.892 -51.008  16.014  1.00  0.00     0.007 C 
ENDBRANCH   7  12
ENDBRANCH   1   7
BRANCH   4  18
HETATM   18  C   UNL     1     -44.356 -52.701  12.895  1.00  0.00     0.108 A 
HETATM   19  C   UNL     1     -44.946 -51.479  13.186  1.00  0.00     0.049 A 
HETATM   20  C   UNL     1     -46.108 -51.460  13.957  1.00  0.00     0.005 A 
HETATM   21  C   UNL     1     -46.644 -52.658  14.414  1.00  0.00     0.017 A 
HETATM   22  C   UNL     1     -45.988 -53.826  14.089  1.00  0.00     0.089 A 
HETATM   23  N   UNL     1     -44.862 -53.873  13.343  1.00  0.00    -0.352 N 
ATOM     24  HN  UNL     1     -44.410 -54.762  13.125  1.00  0.00     0.166 HD
ENDBRANCH   4  18
TORSDOF 6
ENDMDL
MODEL 6
REMARK VINA RESULT:      -5.3      2.673      6.146
REMARK  6 active torsions:
REMARK  status: ('A' for Active; 'I' for Inactive)
REMARK    1  A    between atoms: O_1  and  C_2 
REMARK    2  A    between atoms: C_2  and  C_3 
REMARK    3  A    between atoms: C_3  and  C_4 
REMARK    4  A    between atoms: C_4  and  N_5 
REMARK    5  A    between atoms: C_4  and  C_16 
REMARK       I    between atoms: N_5  and  C_6 
REMARK       I    between atoms: C_6  and  N_8 
REMARK    6  A    between atoms: N_8  and  C_9 
ROOT
HETATM    1  N   UNL     1     -42.212 -50.740  12.483  1.00  0.00    -0.338 N 
HETATM    2  C   UNL     1     -42.117 -52.033  12.081  1.00  0.00     0.322 C 
HETATM    3  O   UNL     1     -41.112 -52.527  11.576  1.00  0.00    -0.247 OA
HETATM    4  N   UNL     1     -43.221 -52.814  12.262  1.00  0.00    -0.295 N 
HETATM    5  H   UNL     1     -43.143 -50.469  12.797  1.00  0.00     0.164 HD
HETATM    6  H   UNL     1     -43.095 -53.756  11.925  1.00  0.00     0.172 HD
ENDROOT
BRANCH   1   7
HETATM    7  C   UNL     1     -41.201 -49.696  12.328  1.00  0.00     0.092 C 
BRANCH   7   8
HETATM    8  C   UNL     1     -40.014 -50.034  13.258  1.00  0.00     0.051 C 
BRANCH   8   9
HETATM    9  C   UNL     1     -38.657 -50.061  12.566  1.00  0.00     0.166 C 
BRANCH   9  10
HETATM   10  O   UNL     1     -38.610 -51.215  11.728  1.00  0.00    -0.401 OA
HETATM   11  H   UNL     1     -37.674 -51.383  11.527  1.00  0.00     0.209 HD
ENDBRANCH   9  10
ENDBRANCH   8   9
ENDBRANCH   7   8
BRANCH   7  12
HETATM   12  C   UNL     1     -41.801 -48.290  12.679  1.00  0.00     0.008 C 
HETATM   13  C   UNL     1     -43.114 -47.960  11.940  1.00  0.00     0.007 C 
HETATM   14  C   UNL     1     -42.902 -47.721  10.447  1.00  0.00     0.000 C 
HETATM   15  C   UNL     1     -41.890 -46.612  10.190  1.00  0.00     0.000 C 
HETATM   16  C   UNL     1     -40.592 -46.808  10.968  1.00  0.00     0.000 C 
HETATM   17  C   UNL     1     -40.834 -47.109  12.447  1.00  0.00     0.007 C 
ENDBRANCH   7  12
ENDBRANCH   1   7
BRANCH   4  18
HETATM   18  C   UNL     1     -44.435 -52.486  12.875  1.00  0.00     0.108 A 
HETATM   19  C   UNL     1     -44.498 -52.516  14.261  1.00  0.00     0.049 A 
HETATM   20  C   UNL     1     -45.691 -52.157  14.888  1.00  0.00     0.005 A 
HETATM   21  C   UNL     1     -46.783 -51.782  14.115  1.00  0.00     0.017 A 
HETATM   22  C   UNL     1     -46.639 -51.791  12.744  1.00  0.00     0.089 A 
HETATM   23  N   UNL     1     -45.495 -52.133  12.111  1.00  0.00    -0.352 N 
ATOM     24  HN  UNL     1     -45.432 -52.124  11.092  1.00  0.00     0.166 HD
ENDBRANCH   4  18
TORSDOF 6
ENDMDL
MODEL 7
REMARK VINA RESULT:      -5.2      3.105      4.859
REMARK  6 active torsions:
REMARK  status: ('A' for Active; 'I' for Inactive)
REMARK    1  A    between atoms: O_1  and  C_2 
REMARK    2  A    between atoms: C_2  and  C_3 
REMARK    3  A    between atoms: C_3  and  C_4 
REMARK    4  A    between atoms: C_4  and  N_5 
REMARK    5  A    between atoms: C_4  and  C_16 
REMARK       I    between atoms: N_5  and  C_6 
REMARK       I    between atoms: C_6  and  N_8 
REMARK    6  A    between atoms: N_8  and  C_9 
ROOT
HETATM    1  N   UNL     1     -44.998 -52.966  14.654  1.00  0.00    -0.338 N 
HETATM    2  C   UNL     1     -44.837 -54.290  14.400  1.00  0.00     0.322 C 
HETATM    3  O   UNL     1     -45.686 -55.146  14.634  1.00  0.00    -0.247 OA
HETATM    4  N   UNL     1     -43.648 -54.668  13.848  1.00  0.00    -0.295 N 
HETATM    5  H   UNL     1     -44.164 -52.406  14.484  1.00  0.00     0.164 HD
HETATM    6  H   UNL     1     -43.582 -55.665  13.703  1.00  0.00     0.172 HD
ENDROOT
BRANCH   1   7
HETATM    7  C   UNL     1     -46.141 -52.330  15.304  1.00  0.00     0.092 C 
BRANCH   7   8
HETATM    8  C   UNL     1     -46.795 -51.364  14.291  1.00  0.00     0.051 C 
BRANCH   8   9
HETATM    9  C   UNL     1     -46.421 -51.624  12.837  1.00  0.00     0.166 C 
BRANCH   9  10
HETATM   10  O   UNL     1     -45.132 -51.057  12.604  1.00  0.00    -0.401 OA
HETATM   11  H   UNL     1     -44.810 -50.721  13.457  1.00  0.00     0.209 HD
ENDBRANCH   9  10
ENDBRANCH   8   9
ENDBRANCH   7   8
BRANCH   7  12
HETATM   12  C   UNL     1     -45.685 -51.560  16.593  1.00  0.00     0.008 C 
HETATM   13  C   UNL     1     -45.193 -52.474  17.734  1.00  0.00     0.007 C 
HETATM   14  C   UNL     1     -46.324 -53.277  18.371  1.00  0.00     0.000 C 
HETATM   15  C   UNL     1     -47.435 -52.375  18.893  1.00  0.00     0.000 C 
HETATM   16  C   UNL     1     -47.912 -51.366  17.853  1.00  0.00     0.000 C 
HETATM   17  C   UNL     1     -46.757 -50.620  17.186  1.00  0.00     0.007 C 
ENDBRANCH   7  12
ENDBRANCH   1   7
BRANCH   4  18
HETATM   18  C   UNL     1     -42.579 -53.866  13.436  1.00  0.00     0.108 A 
HETATM   19  C   UNL     1     -41.403 -53.914  14.173  1.00  0.00     0.049 A 
HETATM   20  C   UNL     1     -40.316 -53.147  13.754  1.00  0.00     0.005 A 
HETATM   21  C   UNL     1     -40.434 -52.357  12.618  1.00  0.00     0.017 A 
HETATM   22  C   UNL     1     -41.642 -52.358  11.952  1.00  0.00     0.089 A 
HETATM   23  N   UNL     1     -42.710 -53.092  12.334  1.00  0.00    -0.352 N 
ATOM     24  HN  UNL     1     -43.585 -53.064  11.810  1.00  0.00     0.166 HD
ENDBRANCH   4  18
TORSDOF 6
ENDMDL
MODEL 8
REMARK VINA RESULT:      -4.9      1.922      2.810
REMARK  6 active torsions:
REMARK  status: ('A' for Active; 'I' for Inactive)
REMARK    1  A    between atoms: O_1  and  C_2 
REMARK    2  A    between atoms: C_2  and  C_3 
REMARK    3  A    between atoms: C_3  and  C_4 
REMARK    4  A    between atoms: C_4  and  N_5 
REMARK    5  A    between atoms: C_4  and  C_16 
REMARK       I    between atoms: N_5  and  C_6 
REMARK       I    between atoms: C_6  and  N_8 
REMARK    6  A    between atoms: N_8  and  C_9 
ROOT
HETATM    1  N   UNL     1     -42.118 -52.157  13.132  1.00  0.00    -0.338 N 
HETATM    2  C   UNL     1     -41.055 -52.554  12.387  1.00  0.00     0.322 C 
HETATM    3  O   UNL     1     -40.723 -53.727  12.230  1.00  0.00    -0.247 OA
HETATM    4  N   UNL     1     -40.327 -51.572  11.785  1.00  0.00    -0.295 N 
HETATM    5  H   UNL     1     -42.201 -51.146  13.233  1.00  0.00     0.164 HD
HETATM    6  H   UNL     1     -39.540 -51.929  11.264  1.00  0.00     0.172 HD
ENDROOT
BRANCH   1   7
HETATM    7  C   UNL     1     -43.000 -53.007  13.929  1.00  0.00     0.092 C 
BRANCH   7   8
HETATM    8  C   UNL     1     -42.145 -54.128  14.562  1.00  0.00     0.051 C 
BRANCH   8   9
HETATM    9  C   UNL     1     -41.658 -53.830  15.975  1.00  0.00     0.166 C 
BRANCH   9  10
HETATM   10  O   UNL     1     -40.902 -52.621  15.937  1.00  0.00    -0.401 OA
HETATM   11  H   UNL     1     -40.036 -52.839  15.551  1.00  0.00     0.209 HD
ENDBRANCH   9  10
ENDBRANCH   8   9
ENDBRANCH   7   8
BRANCH   7  12
HETATM   12  C   UNL     1     -44.139 -53.612  13.036  1.00  0.00     0.008 C 
HETATM   13  C   UNL     1     -45.180 -52.580  12.554  1.00  0.00     0.007 C 
HETATM   14  C   UNL     1     -46.065 -52.067  13.687  1.00  0.00     0.000 C 
HETATM   15  C   UNL     1     -46.780 -53.204  14.406  1.00  0.00     0.000 C 
HETATM   16  C   UNL     1     -45.832 -54.323  14.828  1.00  0.00     0.000 C 
HETATM   17  C   UNL     1     -44.914 -54.775  13.693  1.00  0.00     0.007 C 
ENDBRANCH   7  12
ENDBRANCH   1   7
BRANCH   4  18
HETATM   18  C   UNL     1     -40.561 -50.193  11.768  1.00  0.00     0.108 A 
HETATM   19  C   UNL     1     -39.851 -49.397  12.655  1.00  0.00     0.049 A 
HETATM   20  C   UNL     1     -40.047 -48.016  12.626  1.00  0.00     0.005 A 
HETATM   21  C   UNL     1     -40.945 -47.473  11.716  1.00  0.00     0.017 A 
HETATM   22  C   UNL     1     -41.618 -48.336  10.878  1.00  0.00     0.089 A 
HETATM   23  N   UNL     1     -41.447 -49.677  10.884  1.00  0.00    -0.352 N 
ATOM     24  HN  UNL     1     -41.966 -50.279  10.244  1.00  0.00     0.166 HD
ENDBRANCH   4  18
TORSDOF 6
ENDMDL
MODEL 9
REMARK VINA RESULT:      -4.9      2.136      3.320
REMARK  6 active torsions:
REMARK  status: ('A' for Active; 'I' for Inactive)
REMARK    1  A    between atoms: O_1  and  C_2 
REMARK    2  A    between atoms: C_2  and  C_3 
REMARK    3  A    between atoms: C_3  and  C_4 
REMARK    4  A    between atoms: C_4  and  N_5 
REMARK    5  A    between atoms: C_4  and  C_16 
REMARK       I    between atoms: N_5  and  C_6 
REMARK       I    between atoms: C_6  and  N_8 
REMARK    6  A    between atoms: N_8  and  C_9 
ROOT
HETATM    1  N   UNL     1     -41.097 -50.614  13.238  1.00  0.00    -0.338 N 
HETATM    2  C   UNL     1     -40.155 -51.502  12.829  1.00  0.00     0.322 C 
HETATM    3  O   UNL     1     -40.377 -52.444  12.072  1.00  0.00    -0.247 OA
HETATM    4  N   UNL     1     -38.889 -51.313  13.300  1.00  0.00    -0.295 N 
HETATM    5  H   UNL     1     -40.767 -49.948  13.935  1.00  0.00     0.164 HD
HETATM    6  H   UNL     1     -38.242 -52.016  12.977  1.00  0.00     0.172 HD
ENDROOT
BRANCH   1   7
HETATM    7  C   UNL     1     -42.526 -50.647  12.934  1.00  0.00     0.092 C 
BRANCH   7   8
HETATM    8  C   UNL     1     -43.051 -49.194  12.927  1.00  0.00     0.051 C 
BRANCH   8   9
HETATM    9  C   UNL     1     -42.672 -48.391  11.688  1.00  0.00     0.166 C 
BRANCH   9  10
HETATM   10  O   UNL     1     -41.953 -49.251  10.805  1.00  0.00    -0.401 OA
HETATM   11  H   UNL     1     -42.607 -49.827  10.374  1.00  0.00     0.209 HD
ENDBRANCH   9  10
ENDBRANCH   8   9
ENDBRANCH   7   8
BRANCH   7  12
HETATM   12  C   UNL     1     -43.296 -51.512  13.991  1.00  0.00     0.008 C 
HETATM   13  C   UNL     1     -43.336 -53.020  13.667  1.00  0.00     0.007 C 
HETATM   14  C   UNL     1     -44.222 -53.338  12.465  1.00  0.00     0.000 C 
HETATM   15  C   UNL     1     -45.644 -52.829  12.659  1.00  0.00     0.000 C 
HETATM   16  C   UNL     1     -45.692 -51.364  13.084  1.00  0.00     0.000 C 
HETATM   17  C   UNL     1     -44.750 -51.059  14.249  1.00  0.00     0.007 C 
ENDBRANCH   7  12
ENDBRANCH   1   7
BRANCH   4  18
HETATM   18  C   UNL     1     -38.399 -50.279  14.104  1.00  0.00     0.108 A 
HETATM   19  C   UNL     1     -37.891 -49.149  13.480  1.00  0.00     0.049 A 
HETATM   20  C   UNL     1     -37.431 -48.094  14.268  1.00  0.00     0.005 A 
HETATM   21  C   UNL     1     -37.490 -48.200  15.652  1.00  0.00     0.017 A 
HETATM   22  C   UNL     1     -37.997 -49.362  16.191  1.00  0.00     0.089 A 
HETATM   23  N   UNL     1     -38.451 -50.399  15.451  1.00  0.00    -0.352 N 
ATOM     24  HN  UNL     1     -38.821 -51.241  15.893  1.00  0.00     0.166 HD
ENDBRANCH   4  18
TORSDOF 6
ENDMDL
