MODEL 1
REMARK VINA RESULT:      -5.9      0.000      0.000
REMARK  4 active torsions:
REMARK  status: ('A' for Active; 'I' for Inactive)
REMARK       I    between atoms: C_2  and  N_3 
REMARK       I    between atoms: C_2  and  N_16 
REMARK    1  A    between atoms: N_3  and  C_4 
REMARK    2  A    between atoms: C_4  and  C_5 
REMARK    3  A    between atoms: C_5  and  N_10 
REMARK    4  A    between atoms: N_16  and  C_17 
ROOT
HETATM    1  O   UNL     1     -42.621 -52.427  12.654  1.00  0.00    -0.247 OA
HETATM    2  C   UNL     1     -42.825 -51.275  13.020  1.00  0.00     0.320 C 
HETATM    3  N   UNL     1     -44.044 -50.893  13.544  1.00  0.00    -0.340 N 
HETATM    4  N   UNL     1     -41.918 -50.240  13.006  1.00  0.00    -0.308 N 
HETATM    5  H   UNL     1     -44.215 -49.923  13.755  1.00  0.00     0.164 HD
HETATM    6  H   UNL     1     -42.264 -49.328  13.268  1.00  0.00     0.170 HD
ENDROOT
BRANCH   3   7
HETATM    7  C   UNL     1     -45.131 -51.854  13.731  1.00  0.00     0.167 C 
BRANCH   7   8
HETATM    8  C   UNL     1     -45.669 -52.003  15.199  1.00  0.00     0.184 C 
HETATM    9  C   UNL     1     -47.114 -51.403  15.234  1.00  0.00     0.054 C 
HETATM   10  C   UNL     1     -47.511 -50.985  16.645  1.00  0.00     0.076 C 
HETATM   11  S   UNL     1     -45.988 -50.704  17.568  1.00  0.00    -0.166 SA
HETATM   12  C   UNL     1     -44.898 -51.038  16.156  1.00  0.00     0.117 C 
BRANCH   8  13
HETATM   13  N   UNL     1     -45.682 -53.417  15.716  1.00  0.00     0.104 N 
HETATM   14  C   UNL     1     -44.411 -53.976  16.242  1.00  0.00     0.299 C 
HETATM   15  C   UNL     1     -43.498 -54.661  15.207  1.00  0.00     0.198 C 
HETATM   16  O   UNL     1     -44.200 -55.655  14.451  1.00  0.00    -0.388 OA
HETATM   17  C   UNL     1     -45.375 -55.113  13.843  1.00  0.00     0.198 C 
HETATM   18  C   UNL     1     -46.306 -54.469  14.886  1.00  0.00     0.299 C 
ENDBRANCH   8  13
ENDBRANCH   7   8
ENDBRANCH   3   7
BRANCH   4  19
HETATM   19  C   UNL     1     -40.553 -50.317  12.655  1.00  0.00     0.051 A 
HETATM   20  C   UNL     1     -39.550 -50.809  13.486  1.00  0.00     0.032 A 
HETATM   21  C   UNL     1     -38.224 -50.836  13.046  1.00  0.00     0.019 A 
HETATM   22  C   UNL     1     -37.941 -50.367  11.776  1.00  0.00     0.088 A 
HETATM   23  N   UNL     1     -38.878 -49.883  10.935  1.00  0.00    -0.373 N 
HETATM   24  C   UNL     1     -40.152 -49.874  11.390  1.00  0.00     0.117 A 
ATOM     25  HN  UNL     1     -38.639 -49.542  10.004  1.00  0.00     0.164 HD
ENDBRANCH   4  19
TORSDOF 4
ENDMDL
MODEL 2
REMARK VINA RESULT:      -5.9      3.434      7.739
REMARK  4 active torsions:
REMARK  status: ('A' for Active; 'I' for Inactive)
REMARK       I    between atoms: C_2  and  N_3 
REMARK       I    between atoms: C_2  and  N_16 
REMARK    1  A    between atoms: N_3  and  C_4 
REMARK    2  A    between atoms: C_4  and  C_5 
REMARK    3  A    between atoms: C_5  and  N_10 
REMARK    4  A    between atoms: N_16  and  C_17 
ROOT
HETATM    1  O   UNL     1     -43.794 -50.449  14.391  1.00  0.00    -0.247 OA
HETATM    2  C   UNL     1     -44.052 -50.544  13.196  1.00  0.00     0.320 C 
HETATM    3  N   UNL     1     -43.582 -49.622  12.284  1.00  0.00    -0.340 N 
HETATM    4  N   UNL     1     -44.780 -51.546  12.595  1.00  0.00    -0.308 N 
HETATM    5  H   UNL     1     -43.881 -49.672  11.323  1.00  0.00     0.164 HD
HETATM    6  H   UNL     1     -44.972 -51.440  11.610  1.00  0.00     0.170 HD
ENDROOT
BRANCH   3   7
HETATM    7  C   UNL     1     -42.715 -48.516  12.691  1.00  0.00     0.167 C 
BRANCH   7   8
HETATM    8  C   UNL     1     -41.258 -48.535  12.104  1.00  0.00     0.184 C 
HETATM    9  C   UNL     1     -40.859 -50.032  11.886  1.00  0.00     0.054 C 
HETATM   10  C   UNL     1     -39.345 -50.208  11.861  1.00  0.00     0.076 C 
HETATM   11  S   UNL     1     -38.631 -48.810  12.749  1.00  0.00    -0.166 SA
HETATM   12  C   UNL     1     -40.233 -48.085  13.193  1.00  0.00     0.117 C 
BRANCH   8  13
HETATM   13  N   UNL     1     -41.095 -47.761  10.822  1.00  0.00     0.104 N 
HETATM   14  C   UNL     1     -40.593 -46.367  10.911  1.00  0.00     0.299 C 
HETATM   15  C   UNL     1     -41.666 -45.278  11.102  1.00  0.00     0.198 C 
HETATM   16  O   UNL     1     -42.701 -45.369  10.116  1.00  0.00    -0.388 OA
HETATM   17  C   UNL     1     -43.276 -46.677  10.084  1.00  0.00     0.198 C 
HETATM   18  C   UNL     1     -42.207 -47.760   9.849  1.00  0.00     0.299 C 
ENDBRANCH   8  13
ENDBRANCH   7   8
ENDBRANCH   3   7
BRANCH   4  19
HETATM   19  C   UNL     1     -45.294 -52.705  13.214  1.00  0.00     0.051 A 
HETATM   20  C   UNL     1     -44.670 -53.951  13.203  1.00  0.00     0.032 A 
HETATM   21  C   UNL     1     -45.267 -55.041  13.841  1.00  0.00     0.019 A 
HETATM   22  C   UNL     1     -46.480 -54.850  14.478  1.00  0.00     0.088 A 
HETATM   23  N   UNL     1     -47.121 -53.663  14.518  1.00  0.00    -0.373 N 
HETATM   24  C   UNL     1     -46.514 -52.628  13.893  1.00  0.00     0.117 A 
ATOM     25  HN  UNL     1     -48.016 -53.553  14.994  1.00  0.00     0.164 HD
ENDBRANCH   4  19
TORSDOF 4
ENDMDL
MODEL 3
REMARK VINA RESULT:      -5.9      2.750      7.122
REMARK  4 active torsions:
REMARK  status: ('A' for Active; 'I' for Inactive)
REMARK       I    between atoms: C_2  and  N_3 
REMARK       I    between atoms: C_2  and  N_16 
REMARK    1  A    between atoms: N_3  and  C_4 
REMARK    2  A    between atoms: C_4  and  C_5 
REMARK    3  A    between atoms: C_5  and  N_10 
REMARK    4  A    between atoms: N_16  and  C_17 
ROOT
HETATM    1  O   UNL     1     -42.403 -51.557  13.576  1.00  0.00    -0.247 OA
HETATM    2  C   UNL     1     -43.080 -50.842  12.846  1.00  0.00     0.320 C 
HETATM    3  N   UNL     1     -42.495 -49.979  11.942  1.00  0.00    -0.340 N 
HETATM    4  N   UNL     1     -44.454 -50.809  12.783  1.00  0.00    -0.308 N 
HETATM    5  H   UNL     1     -43.071 -49.339  11.418  1.00  0.00     0.164 HD
HETATM    6  H   UNL     1     -44.865 -50.107  12.184  1.00  0.00     0.170 HD
ENDROOT
BRANCH   3   7
HETATM    7  C   UNL     1     -41.043 -49.911  11.778  1.00  0.00     0.167 C 
BRANCH   7   8
HETATM    8  C   UNL     1     -40.327 -48.711  12.495  1.00  0.00     0.184 C 
HETATM    9  C   UNL     1     -41.372 -48.043  13.450  1.00  0.00     0.054 C 
HETATM   10  C   UNL     1     -41.000 -46.597  13.760  1.00  0.00     0.076 C 
HETATM   11  S   UNL     1     -39.939 -46.020  12.422  1.00  0.00    -0.166 SA
HETATM   12  C   UNL     1     -40.047 -47.563  11.474  1.00  0.00     0.117 C 
BRANCH   8  13
HETATM   13  N   UNL     1     -39.091 -49.094  13.265  1.00  0.00     0.104 N 
HETATM   14  C   UNL     1     -37.815 -49.212  12.516  1.00  0.00     0.299 C 
HETATM   15  C   UNL     1     -37.521 -50.595  11.903  1.00  0.00     0.198 C 
HETATM   16  O   UNL     1     -37.623 -51.642  12.875  1.00  0.00    -0.388 OA
HETATM   17  C   UNL     1     -38.889 -51.616  13.537  1.00  0.00     0.198 C 
HETATM   18  C   UNL     1     -39.160 -50.248  14.187  1.00  0.00     0.299 C 
ENDBRANCH   8  13
ENDBRANCH   7   8
ENDBRANCH   3   7
BRANCH   4  19
HETATM   19  C   UNL     1     -45.353 -51.648  13.475  1.00  0.00     0.051 A 
HETATM   20  C   UNL     1     -46.086 -51.267  14.597  1.00  0.00     0.032 A 
HETATM   21  C   UNL     1     -46.947 -52.177  15.216  1.00  0.00     0.019 A 
HETATM   22  C   UNL     1     -47.051 -53.451  14.687  1.00  0.00     0.088 A 
HETATM   23  N   UNL     1     -46.363 -53.865  13.603  1.00  0.00    -0.373 N 
HETATM   24  C   UNL     1     -45.542 -52.959  13.025  1.00  0.00     0.117 A 
ATOM     25  HN  UNL     1     -46.459 -54.812  13.236  1.00  0.00     0.164 HD
ENDBRANCH   4  19
TORSDOF 4
ENDMDL
MODEL 4
REMARK VINA RESULT:      -5.8      2.733      7.353
REMARK  4 active torsions:
REMARK  status: ('A' for Active; 'I' for Inactive)
REMARK       I    between atoms: C_2  and  N_3 
REMARK       I    between atoms: C_2  and  N_16 
REMARK    1  A    between atoms: N_3  and  C_4 
REMARK    2  A    between atoms: C_4  and  C_5 
REMARK    3  A    between atoms: C_5  and  N_10 
REMARK    4  A    between atoms: N_16  and  C_17 
ROOT
HETATM    1  O   UNL     1     -42.259 -52.245  13.956  1.00  0.00    -0.247 OA
HETATM    2  C   UNL     1     -42.797 -51.954  12.893  1.00  0.00     0.320 C 
HETATM    3  N   UNL     1     -42.139 -51.210  11.936  1.00  0.00    -0.340 N 
HETATM    4  N   UNL     1     -44.057 -52.330  12.486  1.00  0.00    -0.308 N 
HETATM    5  H   UNL     1     -42.633 -50.909  11.110  1.00  0.00     0.164 HD
HETATM    6  H   UNL     1     -44.387 -51.943  11.614  1.00  0.00     0.170 HD
ENDROOT
BRANCH   3   7
HETATM    7  C   UNL     1     -40.755 -50.774  12.122  1.00  0.00     0.167 C 
BRANCH   7   8
HETATM    8  C   UNL     1     -40.504 -49.227  12.022  1.00  0.00     0.184 C 
HETATM    9  C   UNL     1     -41.404 -48.534  13.099  1.00  0.00     0.054 C 
HETATM   10  C   UNL     1     -41.674 -47.076  12.746  1.00  0.00     0.076 C 
HETATM   11  S   UNL     1     -41.454 -46.908  10.964  1.00  0.00    -0.166 SA
HETATM   12  C   UNL     1     -41.106 -48.668  10.694  1.00  0.00     0.117 C 
BRANCH   8  13
HETATM   13  N   UNL     1     -39.067 -48.817  12.206  1.00  0.00     0.104 N 
HETATM   14  C   UNL     1     -38.020 -49.646  11.555  1.00  0.00     0.299 C 
HETATM   15  C   UNL     1     -37.493 -50.834  12.383  1.00  0.00     0.198 C 
HETATM   16  O   UNL     1     -37.063 -50.427  13.687  1.00  0.00    -0.388 OA
HETATM   17  C   UNL     1     -38.094 -49.718  14.378  1.00  0.00     0.198 C 
HETATM   18  C   UNL     1     -38.587 -48.506  13.568  1.00  0.00     0.299 C 
ENDBRANCH   8  13
ENDBRANCH   7   8
ENDBRANCH   3   7
BRANCH   4  19
HETATM   19  C   UNL     1     -44.943 -53.193  13.165  1.00  0.00     0.051 A 
HETATM   20  C   UNL     1     -44.742 -54.562  13.329  1.00  0.00     0.032 A 
HETATM   21  C   UNL     1     -45.685 -55.333  14.013  1.00  0.00     0.019 A 
HETATM   22  C   UNL     1     -46.809 -54.706  14.518  1.00  0.00     0.088 A 
HETATM   23  N   UNL     1     -47.046 -53.384  14.386  1.00  0.00    -0.373 N 
HETATM   24  C   UNL     1     -46.112 -52.666  13.722  1.00  0.00     0.117 A 
ATOM     25  HN  UNL     1     -47.886 -52.949  14.768  1.00  0.00     0.164 HD
ENDBRANCH   4  19
TORSDOF 4
ENDMDL
MODEL 5
REMARK VINA RESULT:      -5.7      3.329      7.402
REMARK  4 active torsions:
REMARK  status: ('A' for Active; 'I' for Inactive)
REMARK       I    between atoms: C_2  and  N_3 
REMARK       I    between atoms: C_2  and  N_16 
REMARK    1  A    between atoms: N_3  and  C_4 
REMARK    2  A    between atoms: C_4  and  C_5 
REMARK    3  A    between atoms: C_5  and  N_10 
REMARK    4  A    between atoms: N_16  and  C_17 
ROOT
HETATM    1  O   UNL     1     -43.762 -50.578  14.465  1.00  0.00    -0.247 OA
HETATM    2  C   UNL     1     -44.099 -50.601  13.286  1.00  0.00     0.320 C 
HETATM    3  N   UNL     1     -43.680 -49.630  12.400  1.00  0.00    -0.340 N 
HETATM    4  N   UNL     1     -44.873 -51.562  12.678  1.00  0.00    -0.308 N 
HETATM    5  H   UNL     1     -44.042 -49.622  11.459  1.00  0.00     0.164 HD
HETATM    6  H   UNL     1     -45.128 -51.398  11.714  1.00  0.00     0.170 HD
ENDROOT
BRANCH   3   7
HETATM    7  C   UNL     1     -42.778 -48.555  12.812  1.00  0.00     0.167 C 
BRANCH   7   8
HETATM    8  C   UNL     1     -42.232 -47.638  11.660  1.00  0.00     0.184 C 
HETATM    9  C   UNL     1     -42.338 -46.155  12.149  1.00  0.00     0.054 C 
HETATM   10  C   UNL     1     -42.375 -45.182  10.976  1.00  0.00     0.076 C 
HETATM   11  S   UNL     1     -42.962 -46.100   9.539  1.00  0.00    -0.166 SA
HETATM   12  C   UNL     1     -43.219 -47.648  10.450  1.00  0.00     0.117 C 
BRANCH   8  13
HETATM   13  N   UNL     1     -40.819 -47.946  11.238  1.00  0.00     0.104 N 
HETATM   14  C   UNL     1     -40.457 -49.367  11.007  1.00  0.00     0.299 C 
HETATM   15  C   UNL     1     -39.958 -50.142  12.242  1.00  0.00     0.198 C 
HETATM   16  O   UNL     1     -38.886 -49.459  12.903  1.00  0.00    -0.388 OA
HETATM   17  C   UNL     1     -39.249 -48.117  13.233  1.00  0.00     0.198 C 
HETATM   18  C   UNL     1     -39.705 -47.332  11.990  1.00  0.00     0.299 C 
ENDBRANCH   8  13
ENDBRANCH   7   8
ENDBRANCH   3   7
BRANCH   4  19
HETATM   19  C   UNL     1     -45.358 -52.752  13.261  1.00  0.00     0.051 A 
HETATM   20  C   UNL     1     -44.710 -53.984  13.198  1.00  0.00     0.032 A 
HETATM   21  C   UNL     1     -45.277 -55.108  13.803  1.00  0.00     0.019 A 
HETATM   22  C   UNL     1     -46.485 -54.963  14.461  1.00  0.00     0.088 A 
HETATM   23  N   UNL     1     -47.149 -53.792  14.551  1.00  0.00    -0.373 N 
HETATM   24  C   UNL     1     -46.570 -52.723  13.956  1.00  0.00     0.117 A 
ATOM     25  HN  UNL     1     -48.040 -53.716  15.041  1.00  0.00     0.164 HD
ENDBRANCH   4  19
TORSDOF 4
ENDMDL
MODEL 6
REMARK VINA RESULT:      -5.6      3.021      4.092
REMARK  4 active torsions:
REMARK  status: ('A' for Active; 'I' for Inactive)
REMARK       I    between atoms: C_2  and  N_3 
REMARK       I    between atoms: C_2  and  N_16 
REMARK    1  A    between atoms: N_3  and  C_4 
REMARK    2  A    between atoms: C_4  and  C_5 
REMARK    3  A    between atoms: C_5  and  N_10 
REMARK    4  A    between atoms: N_16  and  C_17 
ROOT
HETATM    1  O   UNL     1     -42.922 -49.340  13.658  1.00  0.00    -0.247 OA
HETATM    2  C   UNL     1     -42.761 -50.018  12.650  1.00  0.00     0.320 C 
HETATM    3  N   UNL     1     -43.060 -51.365  12.636  1.00  0.00    -0.340 N 
HETATM    4  N   UNL     1     -42.318 -49.571  11.427  1.00  0.00    -0.308 N 
HETATM    5  H   UNL     1     -42.837 -51.918  11.824  1.00  0.00     0.164 HD
HETATM    6  H   UNL     1     -42.164 -50.270  10.715  1.00  0.00     0.170 HD
ENDROOT
BRANCH   3   7
HETATM    7  C   UNL     1     -43.627 -52.036  13.806  1.00  0.00     0.167 C 
BRANCH   7   8
HETATM    8  C   UNL     1     -42.674 -53.039  14.550  1.00  0.00     0.184 C 
HETATM    9  C   UNL     1     -41.834 -52.214  15.580  1.00  0.00     0.054 C 
HETATM   10  C   UNL     1     -40.539 -52.929  15.945  1.00  0.00     0.076 C 
HETATM   11  S   UNL     1     -40.153 -54.057  14.592  1.00  0.00    -0.166 SA
HETATM   12  C   UNL     1     -41.568 -53.555  13.575  1.00  0.00     0.117 C 
BRANCH   8  13
HETATM   13  N   UNL     1     -43.384 -54.170  15.246  1.00  0.00     0.104 N 
HETATM   14  C   UNL     1     -43.956 -55.253  14.406  1.00  0.00     0.299 C 
HETATM   15  C   UNL     1     -45.397 -55.028  13.910  1.00  0.00     0.198 C 
HETATM   16  O   UNL     1     -46.289 -54.712  14.985  1.00  0.00    -0.388 OA
HETATM   17  C   UNL     1     -45.814 -53.600  15.746  1.00  0.00     0.198 C 
HETATM   18  C   UNL     1     -44.391 -53.846  16.278  1.00  0.00     0.299 C 
ENDBRANCH   8  13
ENDBRANCH   7   8
ENDBRANCH   3   7
BRANCH   4  19
HETATM   19  C   UNL     1     -42.047 -48.235  11.062  1.00  0.00     0.051 A 
HETATM   20  C   UNL     1     -43.021 -47.273  10.800  1.00  0.00     0.032 A 
HETATM   21  C   UNL     1     -42.648 -45.977  10.439  1.00  0.00     0.019 A 
HETATM   22  C   UNL     1     -41.300 -45.677  10.352  1.00  0.00     0.088 A 
HETATM   23  N   UNL     1     -40.322 -46.573  10.598  1.00  0.00    -0.373 N 
HETATM   24  C   UNL     1     -40.717 -47.818  10.949  1.00  0.00     0.117 A 
ATOM     25  HN  UNL     1     -39.335 -46.324  10.524  1.00  0.00     0.164 HD
ENDBRANCH   4  19
TORSDOF 4
ENDMDL
MODEL 7
REMARK VINA RESULT:      -5.4      4.209      7.571
REMARK  4 active torsions:
REMARK  status: ('A' for Active; 'I' for Inactive)
REMARK       I    between atoms: C_2  and  N_3 
REMARK       I    between atoms: C_2  and  N_16 
REMARK    1  A    between atoms: N_3  and  C_4 
REMARK    2  A    between atoms: C_4  and  C_5 
REMARK    3  A    between atoms: C_5  and  N_10 
REMARK    4  A    between atoms: N_16  and  C_17 
ROOT
HETATM    1  O   UNL     1     -42.886 -50.238  13.701  1.00  0.00    -0.247 OA
HETATM    2  C   UNL     1     -42.565 -50.708  12.616  1.00  0.00     0.320 C 
HETATM    3  N   UNL     1     -42.044 -49.914  11.615  1.00  0.00    -0.340 N 
HETATM    4  N   UNL     1     -42.630 -52.033  12.249  1.00  0.00    -0.308 N 
HETATM    5  H   UNL     1     -41.870 -50.309  10.703  1.00  0.00     0.164 HD
HETATM    6  H   UNL     1     -42.401 -52.251  11.290  1.00  0.00     0.170 HD
ENDROOT
BRANCH   3   7
HETATM    7  C   UNL     1     -41.806 -48.485  11.816  1.00  0.00     0.167 C 
BRANCH   7   8
HETATM    8  C   UNL     1     -42.586 -47.518  10.855  1.00  0.00     0.184 C 
HETATM    9  C   UNL     1     -44.108 -47.858  10.979  1.00  0.00     0.054 C 
HETATM   10  C   UNL     1     -44.883 -47.410   9.746  1.00  0.00     0.076 C 
HETATM   11  S   UNL     1     -43.704 -47.301   8.385  1.00  0.00    -0.166 SA
HETATM   12  C   UNL     1     -42.295 -47.889   9.366  1.00  0.00     0.117 C 
BRANCH   8  13
HETATM   13  N   UNL     1     -42.357 -46.054  11.127  1.00  0.00     0.104 N 
HETATM   14  C   UNL     1     -41.182 -45.406  10.493  1.00  0.00     0.299 C 
HETATM   15  C   UNL     1     -39.866 -45.471  11.292  1.00  0.00     0.198 C 
HETATM   16  O   UNL     1     -40.031 -44.994  12.632  1.00  0.00    -0.388 OA
HETATM   17  C   UNL     1     -41.090 -45.681  13.302  1.00  0.00     0.198 C 
HETATM   18  C   UNL     1     -42.414 -45.576  12.524  1.00  0.00     0.299 C 
ENDBRANCH   8  13
ENDBRANCH   7   8
ENDBRANCH   3   7
BRANCH   4  19
HETATM   19  C   UNL     1     -42.993 -53.121  13.070  1.00  0.00     0.051 A 
HETATM   20  C   UNL     1     -44.259 -53.702  13.100  1.00  0.00     0.032 A 
HETATM   21  C   UNL     1     -44.520 -54.774  13.957  1.00  0.00     0.019 A 
HETATM   22  C   UNL     1     -43.496 -55.239  14.763  1.00  0.00     0.088 A 
HETATM   23  N   UNL     1     -42.254 -54.711  14.768  1.00  0.00    -0.373 N 
HETATM   24  C   UNL     1     -42.034 -53.676  13.924  1.00  0.00     0.117 A 
ATOM     25  HN  UNL     1     -41.520 -55.073  15.375  1.00  0.00     0.164 HD
ENDBRANCH   4  19
TORSDOF 4
ENDMDL
MODEL 8
REMARK VINA RESULT:      -5.2      2.752      3.714
REMARK  4 active torsions:
REMARK  status: ('A' for Active; 'I' for Inactive)
REMARK       I    between atoms: C_2  and  N_3 
REMARK       I    between atoms: C_2  and  N_16 
REMARK    1  A    between atoms: N_3  and  C_4 
REMARK    2  A    between atoms: C_4  and  C_5 
REMARK    3  A    between atoms: C_5  and  N_10 
REMARK    4  A    between atoms: N_16  and  C_17 
ROOT
HETATM    1  O   UNL     1     -40.893 -50.569  11.745  1.00  0.00    -0.247 OA
HETATM    2  C   UNL     1     -41.981 -50.112  12.078  1.00  0.00     0.320 C 
HETATM    3  N   UNL     1     -43.002 -50.933  12.512  1.00  0.00    -0.340 N 
HETATM    4  N   UNL     1     -42.332 -48.782  12.109  1.00  0.00    -0.308 N 
HETATM    5  H   UNL     1     -43.913 -50.542  12.695  1.00  0.00     0.164 HD
HETATM    6  H   UNL     1     -43.294 -48.571  12.333  1.00  0.00     0.170 HD
ENDROOT
BRANCH   3   7
HETATM    7  C   UNL     1     -42.821 -52.378  12.640  1.00  0.00     0.167 C 
BRANCH   7   8
HETATM    8  C   UNL     1     -43.677 -53.080  13.754  1.00  0.00     0.184 C 
HETATM    9  C   UNL     1     -44.318 -54.359  13.119  1.00  0.00     0.054 C 
HETATM   10  C   UNL     1     -45.562 -54.798  13.882  1.00  0.00     0.076 C 
HETATM   11  S   UNL     1     -46.192 -53.350  14.754  1.00  0.00    -0.166 SA
HETATM   12  C   UNL     1     -44.938 -52.221  14.086  1.00  0.00     0.117 C 
BRANCH   8  13
HETATM   13  N   UNL     1     -42.903 -53.448  14.993  1.00  0.00     0.104 N 
HETATM   14  C   UNL     1     -42.262 -52.352  15.762  1.00  0.00     0.299 C 
HETATM   15  C   UNL     1     -40.835 -51.969  15.325  1.00  0.00     0.198 C 
HETATM   16  O   UNL     1     -39.969 -53.109  15.273  1.00  0.00    -0.388 OA
HETATM   17  C   UNL     1     -40.515 -54.140  14.448  1.00  0.00     0.198 C 
HETATM   18  C   UNL     1     -41.923 -54.551  14.914  1.00  0.00     0.299 C 
ENDBRANCH   8  13
ENDBRANCH   7   8
ENDBRANCH   3   7
BRANCH   4  19
HETATM   19  C   UNL     1     -41.491 -47.679  11.853  1.00  0.00     0.051 A 
HETATM   20  C   UNL     1     -40.636 -47.102  12.789  1.00  0.00     0.032 A 
HETATM   21  C   UNL     1     -39.847 -46.004  12.438  1.00  0.00     0.019 A 
HETATM   22  C   UNL     1     -39.936 -45.514  11.147  1.00  0.00     0.088 A 
HETATM   23  N   UNL     1     -40.748 -46.039  10.206  1.00  0.00    -0.373 N 
HETATM   24  C   UNL     1     -41.495 -47.103  10.578  1.00  0.00     0.117 A 
ATOM     25  HN  UNL     1     -40.794 -45.655   9.262  1.00  0.00     0.164 HD
ENDBRANCH   4  19
TORSDOF 4
ENDMDL
MODEL 9
REMARK VINA RESULT:      -5.2      2.090      3.121
REMARK  4 active torsions:
REMARK  status: ('A' for Active; 'I' for Inactive)
REMARK       I    between atoms: C_2  and  N_3 
REMARK       I    between atoms: C_2  and  N_16 
REMARK    1  A    between atoms: N_3  and  C_4 
REMARK    2  A    between atoms: C_4  and  C_5 
REMARK    3  A    between atoms: C_5  and  N_10 
REMARK    4  A    between atoms: N_16  and  C_17 
ROOT
HETATM    1  O   UNL     1     -41.676 -52.655  12.417  1.00  0.00    -0.247 OA
HETATM    2  C   UNL     1     -41.736 -51.737  13.228  1.00  0.00     0.320 C 
HETATM    3  N   UNL     1     -42.781 -51.637  14.124  1.00  0.00    -0.340 N 
HETATM    4  N   UNL     1     -40.810 -50.733  13.394  1.00  0.00    -0.308 N 
HETATM    5  H   UNL     1     -42.853 -50.827  14.719  1.00  0.00     0.164 HD
HETATM    6  H   UNL     1     -41.043 -50.004  14.053  1.00  0.00     0.170 HD
ENDROOT
BRANCH   3   7
HETATM    7  C   UNL     1     -43.838 -52.646  14.183  1.00  0.00     0.167 C 
BRANCH   7   8
HETATM    8  C   UNL     1     -43.756 -53.656  15.383  1.00  0.00     0.184 C 
HETATM    9  C   UNL     1     -42.773 -53.052  16.439  1.00  0.00     0.054 C 
HETATM   10  C   UNL     1     -42.190 -54.133  17.343  1.00  0.00     0.076 C 
HETATM   11  S   UNL     1     -42.303 -55.695  16.447  1.00  0.00    -0.166 SA
HETATM   12  C   UNL     1     -43.000 -54.951  14.946  1.00  0.00     0.117 C 
BRANCH   8  13
HETATM   13  N   UNL     1     -45.082 -53.967  16.025  1.00  0.00     0.104 N 
HETATM   14  C   UNL     1     -46.231 -54.272  15.135  1.00  0.00     0.299 C 
HETATM   15  C   UNL     1     -47.059 -53.060  14.668  1.00  0.00     0.198 C 
HETATM   16  O   UNL     1     -47.488 -52.251  15.769  1.00  0.00    -0.388 OA
HETATM   17  C   UNL     1     -46.384 -51.853  16.583  1.00  0.00     0.198 C 
HETATM   18  C   UNL     1     -45.584 -53.068  17.085  1.00  0.00     0.299 C 
ENDBRANCH   8  13
ENDBRANCH   7   8
ENDBRANCH   3   7
BRANCH   4  19
HETATM   19  C   UNL     1     -39.570 -50.608  12.732  1.00  0.00     0.051 A 
HETATM   20  C   UNL     1     -38.367 -51.133  13.202  1.00  0.00     0.032 A 
HETATM   21  C   UNL     1     -37.189 -50.948  12.475  1.00  0.00     0.019 A 
HETATM   22  C   UNL     1     -37.250 -50.240  11.288  1.00  0.00     0.088 A 
HETATM   23  N   UNL     1     -38.390 -49.715  10.792  1.00  0.00    -0.373 N 
HETATM   24  C   UNL     1     -39.513 -49.915  11.519  1.00  0.00     0.117 A 
ATOM     25  HN  UNL     1     -38.405 -49.196   9.915  1.00  0.00     0.164 HD
ENDBRANCH   4  19
TORSDOF 4
ENDMDL
