MODEL 1
REMARK VINA RESULT:      -5.8      0.000      0.000
REMARK  5 active torsions:
REMARK  status: ('A' for Active; 'I' for Inactive)
REMARK    1  A    between atoms: S_2  and  N_5 
REMARK    2  A    between atoms: C_11  and  N_13 
REMARK    3  A    between atoms: N_13  and  C_14 
REMARK    4  A    between atoms: C_14  and  C_15 
REMARK    5  A    between atoms: C_15  and  C_16 
ROOT
HETATM    1  N   UNL     1     -44.684 -50.671  16.331  1.00  0.00    -0.304 N 
HETATM    2  C   UNL     1     -45.664 -50.114  17.266  1.00  0.00     0.135 C 
HETATM    3  C   UNL     1     -46.787 -51.108  17.496  1.00  0.00     0.021 C 
HETATM    4  C   UNL     1     -47.370 -51.743  16.227  1.00  0.00     0.012 C 
HETATM    5  C   UNL     1     -46.635 -51.468  14.909  1.00  0.00     0.181 A 
HETATM    6  C   UNL     1     -45.202 -50.922  14.976  1.00  0.00     0.139 A 
HETATM    7  C   UNL     1     -46.609 -52.544  13.815  1.00  0.00     0.162 A 
HETATM    8  O   UNL     1     -46.470 -52.187  12.639  1.00  0.00    -0.282 OA
ENDROOT
BRANCH   7   9
HETATM    9  N   UNL     1     -46.574 -53.878  14.157  1.00  0.00    -0.367 N 
HETATM   10  H   UNL     1     -47.056 -54.207  14.985  1.00  0.00     0.162 HD
BRANCH   9  11
HETATM   11  C   UNL     1     -45.485 -54.696  13.624  1.00  0.00     0.127 C 
BRANCH  11  12
HETATM   12  C   UNL     1     -44.149 -54.587  14.363  1.00  0.00     0.059 C 
BRANCH  12  13
HETATM   13  C   UNL     1     -43.023 -53.991  13.561  1.00  0.00    -0.041 A 
HETATM   14  C   UNL     1     -41.681 -54.268  13.833  1.00  0.00     0.010 A 
HETATM   15  C   UNL     1     -40.682 -53.679  13.061  1.00  0.00     0.018 A 
HETATM   16  C   UNL     1     -41.060 -52.822  12.041  1.00  0.00     0.087 A 
HETATM   17  N   UNL     1     -42.343 -52.512  11.761  1.00  0.00    -0.375 N 
HETATM   18  C   UNL     1     -43.290 -53.096  12.527  1.00  0.00     0.094 A 
ATOM     19  HN  UNL     1     -42.586 -51.869  11.007  1.00  0.00     0.164 HD
ENDBRANCH  12  13
ENDBRANCH  11  12
ENDBRANCH   9  11
ENDBRANCH   7   9
BRANCH   1  20
HETATM   20  S   UNL     1     -43.399 -51.615  16.892  1.00  0.00     0.225 S 
HETATM   21  C   UNL     1     -42.904 -50.728  18.355  1.00  0.00     0.186 C 
HETATM   22  O   UNL     1     -42.303 -51.523  15.957  1.00  0.00    -0.206 OA
HETATM   23  O   UNL     1     -43.941 -52.893  17.303  1.00  0.00    -0.206 OA
ENDBRANCH   1  20
TORSDOF 5
ENDMDL
MODEL 2
REMARK VINA RESULT:      -5.8      3.254      5.428
REMARK  5 active torsions:
REMARK  status: ('A' for Active; 'I' for Inactive)
REMARK    1  A    between atoms: S_2  and  N_5 
REMARK    2  A    between atoms: C_11  and  N_13 
REMARK    3  A    between atoms: N_13  and  C_14 
REMARK    4  A    between atoms: C_14  and  C_15 
REMARK    5  A    between atoms: C_15  and  C_16 
ROOT
HETATM    1  N   UNL     1     -45.238 -53.586  13.029  1.00  0.00    -0.304 N 
HETATM    2  C   UNL     1     -45.259 -54.877  13.722  1.00  0.00     0.135 C 
HETATM    3  C   UNL     1     -44.218 -54.892  14.825  1.00  0.00     0.021 C 
HETATM    4  C   UNL     1     -42.829 -54.380  14.423  1.00  0.00     0.012 C 
HETATM    5  C   UNL     1     -42.700 -53.731  13.039  1.00  0.00     0.181 A 
HETATM    6  C   UNL     1     -43.981 -53.291  12.319  1.00  0.00     0.139 A 
HETATM    7  C   UNL     1     -41.702 -52.583  12.829  1.00  0.00     0.162 A 
HETATM    8  O   UNL     1     -41.247 -52.396  11.695  1.00  0.00    -0.282 OA
ENDROOT
BRANCH   7   9
HETATM    9  N   UNL     1     -41.456 -51.686  13.846  1.00  0.00    -0.367 N 
HETATM   10  H   UNL     1     -42.039 -51.677  14.673  1.00  0.00     0.162 HD
BRANCH   9  11
HETATM   11  C   UNL     1     -40.694 -50.478  13.527  1.00  0.00     0.127 C 
BRANCH  11  12
HETATM   12  C   UNL     1     -41.479 -49.164  13.587  1.00  0.00     0.059 C 
BRANCH  12  13
HETATM   13  C   UNL     1     -41.956 -48.646  12.257  1.00  0.00    -0.041 A 
HETATM   14  C   UNL     1     -43.162 -47.956  12.112  1.00  0.00     0.010 A 
HETATM   15  C   UNL     1     -43.557 -47.508  10.854  1.00  0.00     0.018 A 
HETATM   16  C   UNL     1     -42.731 -47.774   9.774  1.00  0.00     0.087 A 
HETATM   17  N   UNL     1     -41.571 -48.456   9.869  1.00  0.00    -0.375 N 
HETATM   18  C   UNL     1     -41.215 -48.879  11.101  1.00  0.00     0.094 A 
ATOM     19  HN  UNL     1     -40.991 -48.642   9.050  1.00  0.00     0.164 HD
ENDBRANCH  12  13
ENDBRANCH  11  12
ENDBRANCH   9  11
ENDBRANCH   7   9
BRANCH   1  20
HETATM   20  S   UNL     1     -46.172 -52.293  13.587  1.00  0.00     0.225 S 
HETATM   21  C   UNL     1     -44.937 -51.231  14.305  1.00  0.00     0.186 C 
HETATM   22  O   UNL     1     -47.012 -52.750  14.668  1.00  0.00    -0.206 OA
HETATM   23  O   UNL     1     -46.725 -51.621  12.429  1.00  0.00    -0.206 OA
ENDBRANCH   1  20
TORSDOF 5
ENDMDL
MODEL 3
REMARK VINA RESULT:      -5.6      3.042      5.184
REMARK  5 active torsions:
REMARK  status: ('A' for Active; 'I' for Inactive)
REMARK    1  A    between atoms: S_2  and  N_5 
REMARK    2  A    between atoms: C_11  and  N_13 
REMARK    3  A    between atoms: N_13  and  C_14 
REMARK    4  A    between atoms: C_14  and  C_15 
REMARK    5  A    between atoms: C_15  and  C_16 
ROOT
HETATM    1  N   UNL     1     -45.229 -53.716  13.175  1.00  0.00    -0.304 N 
HETATM    2  C   UNL     1     -45.222 -55.049  13.783  1.00  0.00     0.135 C 
HETATM    3  C   UNL     1     -44.137 -55.134  14.840  1.00  0.00     0.021 C 
HETATM    4  C   UNL     1     -42.765 -54.593  14.416  1.00  0.00     0.012 C 
HETATM    5  C   UNL     1     -42.692 -53.854  13.074  1.00  0.00     0.181 A 
HETATM    6  C   UNL     1     -44.002 -53.372  12.436  1.00  0.00     0.139 A 
HETATM    7  C   UNL     1     -41.705 -52.692  12.899  1.00  0.00     0.162 A 
HETATM    8  O   UNL     1     -41.295 -52.430  11.762  1.00  0.00    -0.282 OA
ENDROOT
BRANCH   7   9
HETATM    9  N   UNL     1     -41.417 -51.864  13.962  1.00  0.00    -0.367 N 
HETATM   10  H   UNL     1     -41.366 -52.236  14.902  1.00  0.00     0.162 HD
BRANCH   9  11
HETATM   11  C   UNL     1     -41.661 -50.430  13.801  1.00  0.00     0.127 C 
BRANCH  11  12
HETATM   12  C   UNL     1     -40.428 -49.530  13.920  1.00  0.00     0.059 C 
BRANCH  12  13
HETATM   13  C   UNL     1     -39.291 -49.883  12.999  1.00  0.00    -0.041 A 
HETATM   14  C   UNL     1     -38.163 -50.582  13.437  1.00  0.00     0.010 A 
HETATM   15  C   UNL     1     -37.138 -50.873  12.540  1.00  0.00     0.018 A 
HETATM   16  C   UNL     1     -37.271 -50.445  11.229  1.00  0.00     0.087 A 
HETATM   17  N   UNL     1     -38.332 -49.749  10.773  1.00  0.00    -0.375 N 
HETATM   18  C   UNL     1     -39.310 -49.480  11.666  1.00  0.00     0.094 A 
ATOM     19  HN  UNL     1     -38.394 -49.441   9.803  1.00  0.00     0.164 HD
ENDBRANCH  12  13
ENDBRANCH  11  12
ENDBRANCH   9  11
ENDBRANCH   7   9
BRANCH   1  20
HETATM   20  S   UNL     1     -46.140 -52.465  13.854  1.00  0.00     0.225 S 
HETATM   21  C   UNL     1     -46.779 -51.649  12.407  1.00  0.00     0.186 C 
HETATM   22  O   UNL     1     -45.251 -51.532  14.503  1.00  0.00    -0.206 OA
HETATM   23  O   UNL     1     -47.254 -53.067  14.558  1.00  0.00    -0.206 OA
ENDBRANCH   1  20
TORSDOF 5
ENDMDL
MODEL 4
REMARK VINA RESULT:      -5.5      2.376      4.067
REMARK  5 active torsions:
REMARK  status: ('A' for Active; 'I' for Inactive)
REMARK    1  A    between atoms: S_2  and  N_5 
REMARK    2  A    between atoms: C_11  and  N_13 
REMARK    3  A    between atoms: N_13  and  C_14 
REMARK    4  A    between atoms: C_14  and  C_15 
REMARK    5  A    between atoms: C_15  and  C_16 
ROOT
HETATM    1  N   UNL     1     -45.171 -53.572  15.154  1.00  0.00    -0.304 N 
HETATM    2  C   UNL     1     -46.596 -53.236  15.212  1.00  0.00     0.135 C 
HETATM    3  C   UNL     1     -46.964 -52.325  14.056  1.00  0.00     0.021 C 
HETATM    4  C   UNL     1     -46.014 -51.142  13.826  1.00  0.00     0.012 C 
HETATM    5  C   UNL     1     -44.713 -51.125  14.639  1.00  0.00     0.181 A 
HETATM    6  C   UNL     1     -44.263 -52.424  15.319  1.00  0.00     0.139 A 
HETATM    7  C   UNL     1     -43.441 -50.527  14.023  1.00  0.00     0.162 A 
HETATM    8  O   UNL     1     -42.575 -50.073  14.780  1.00  0.00    -0.282 OA
ENDROOT
BRANCH   7   9
HETATM    9  N   UNL     1     -43.204 -50.649  12.671  1.00  0.00    -0.367 N 
HETATM   10  H   UNL     1     -43.904 -51.055  12.063  1.00  0.00     0.162 HD
BRANCH   9  11
HETATM   11  C   UNL     1     -41.814 -50.644  12.214  1.00  0.00     0.127 C 
BRANCH  11  12
HETATM   12  C   UNL     1     -41.197 -52.020  11.951  1.00  0.00     0.059 C 
BRANCH  12  13
HETATM   13  C   UNL     1     -40.436 -52.609  13.108  1.00  0.00    -0.041 A 
HETATM   14  C   UNL     1     -39.675 -51.826  13.979  1.00  0.00     0.010 A 
HETATM   15  C   UNL     1     -38.985 -52.428  15.029  1.00  0.00     0.018 A 
HETATM   16  C   UNL     1     -39.073 -53.803  15.168  1.00  0.00     0.087 A 
HETATM   17  N   UNL     1     -39.779 -54.597  14.336  1.00  0.00    -0.375 N 
HETATM   18  C   UNL     1     -40.436 -53.985  13.327  1.00  0.00     0.094 A 
ATOM     19  HN  UNL     1     -39.814 -55.608  14.463  1.00  0.00     0.164 HD
ENDBRANCH  12  13
ENDBRANCH  11  12
ENDBRANCH   9  11
ENDBRANCH   7   9
BRANCH   1  20
HETATM   20  S   UNL     1     -44.636 -54.903  14.261  1.00  0.00     0.225 S 
HETATM   21  C   UNL     1     -44.063 -54.133  12.762  1.00  0.00     0.186 C 
HETATM   22  O   UNL     1     -45.772 -55.719  13.904  1.00  0.00    -0.206 OA
HETATM   23  O   UNL     1     -43.489 -55.459  14.948  1.00  0.00    -0.206 OA
ENDBRANCH   1  20
TORSDOF 5
ENDMDL
MODEL 5
REMARK VINA RESULT:      -5.4      4.266      5.547
REMARK  5 active torsions:
REMARK  status: ('A' for Active; 'I' for Inactive)
REMARK    1  A    between atoms: S_2  and  N_5 
REMARK    2  A    between atoms: C_11  and  N_13 
REMARK    3  A    between atoms: N_13  and  C_14 
REMARK    4  A    between atoms: C_14  and  C_15 
REMARK    5  A    between atoms: C_15  and  C_16 
ROOT
HETATM    1  N   UNL     1     -44.916 -53.618  15.436  1.00  0.00    -0.304 N 
HETATM    2  C   UNL     1     -46.354 -53.432  15.650  1.00  0.00     0.135 C 
HETATM    3  C   UNL     1     -46.929 -52.535  14.569  1.00  0.00     0.021 C 
HETATM    4  C   UNL     1     -46.131 -51.256  14.285  1.00  0.00     0.012 C 
HETATM    5  C   UNL     1     -44.761 -51.125  14.963  1.00  0.00     0.181 A 
HETATM    6  C   UNL     1     -44.115 -52.387  15.549  1.00  0.00     0.139 A 
HETATM    7  C   UNL     1     -43.625 -50.384  14.242  1.00  0.00     0.162 A 
HETATM    8  O   UNL     1     -42.735 -49.862  14.923  1.00  0.00    -0.282 OA
ENDROOT
BRANCH   7   9
HETATM    9  N   UNL     1     -43.520 -50.448  12.870  1.00  0.00    -0.367 N 
HETATM   10  H   UNL     1     -43.788 -51.289  12.374  1.00  0.00     0.162 HD
BRANCH   9  11
HETATM   11  C   UNL     1     -42.600 -49.523  12.208  1.00  0.00     0.127 C 
BRANCH  11  12
HETATM   12  C   UNL     1     -43.183 -48.154  11.844  1.00  0.00     0.059 C 
BRANCH  12  13
HETATM   13  C   UNL     1     -42.172 -47.128  11.408  1.00  0.00    -0.041 A 
HETATM   14  C   UNL     1     -42.457 -45.760  11.386  1.00  0.00     0.010 A 
HETATM   15  C   UNL     1     -41.484 -44.857  10.965  1.00  0.00     0.018 A 
HETATM   16  C   UNL     1     -40.254 -45.355  10.569  1.00  0.00     0.087 A 
HETATM   17  N   UNL     1     -39.947 -46.669  10.555  1.00  0.00    -0.375 N 
HETATM   18  C   UNL     1     -40.911 -47.521  10.968  1.00  0.00     0.094 A 
ATOM     19  HN  UNL     1     -39.033 -47.002  10.249  1.00  0.00     0.164 HD
ENDBRANCH  12  13
ENDBRANCH  11  12
ENDBRANCH   9  11
ENDBRANCH   7   9
BRANCH   1  20
HETATM   20  S   UNL     1     -44.347 -54.865  14.448  1.00  0.00     0.225 S 
HETATM   21  C   UNL     1     -43.612 -53.960  13.103  1.00  0.00     0.186 C 
HETATM   22  O   UNL     1     -45.472 -55.585  13.903  1.00  0.00    -0.206 OA
HETATM   23  O   UNL     1     -43.287 -55.543  15.166  1.00  0.00    -0.206 OA
ENDBRANCH   1  20
TORSDOF 5
ENDMDL
MODEL 6
REMARK VINA RESULT:      -5.4      2.931      4.156
REMARK  5 active torsions:
REMARK  status: ('A' for Active; 'I' for Inactive)
REMARK    1  A    between atoms: S_2  and  N_5 
REMARK    2  A    between atoms: C_11  and  N_13 
REMARK    3  A    between atoms: N_13  and  C_14 
REMARK    4  A    between atoms: C_14  and  C_15 
REMARK    5  A    between atoms: C_15  and  C_16 
ROOT
HETATM    1  N   UNL     1     -44.716 -53.530  15.482  1.00  0.00    -0.304 N 
HETATM    2  C   UNL     1     -46.168 -53.552  15.676  1.00  0.00     0.135 C 
HETATM    3  C   UNL     1     -46.850 -52.735  14.595  1.00  0.00     0.021 C 
HETATM    4  C   UNL     1     -46.238 -51.353  14.334  1.00  0.00     0.012 C 
HETATM    5  C   UNL     1     -44.910 -51.036  15.033  1.00  0.00     0.181 A 
HETATM    6  C   UNL     1     -44.099 -52.200  15.617  1.00  0.00     0.139 A 
HETATM    7  C   UNL     1     -43.882 -50.134  14.335  1.00  0.00     0.162 A 
HETATM    8  O   UNL     1     -43.083 -49.498  15.033  1.00  0.00    -0.282 OA
ENDROOT
BRANCH   7   9
HETATM    9  N   UNL     1     -43.750 -50.167  12.964  1.00  0.00    -0.367 N 
HETATM   10  H   UNL     1     -44.447 -50.630  12.394  1.00  0.00     0.162 HD
BRANCH   9  11
HETATM   11  C   UNL     1     -42.415 -49.973  12.397  1.00  0.00     0.127 C 
BRANCH  11  12
HETATM   12  C   UNL     1     -41.444 -51.145  12.567  1.00  0.00     0.059 C 
BRANCH  12  13
HETATM   13  C   UNL     1     -40.003 -50.826  12.274  1.00  0.00    -0.041 A 
HETATM   14  C   UNL     1     -38.959 -51.260  13.094  1.00  0.00     0.010 A 
HETATM   15  C   UNL     1     -37.644 -50.925  12.777  1.00  0.00     0.018 A 
HETATM   16  C   UNL     1     -37.417 -50.157  11.647  1.00  0.00     0.087 A 
HETATM   17  N   UNL     1     -38.399 -49.700  10.842  1.00  0.00    -0.375 N 
HETATM   18  C   UNL     1     -39.663 -50.039  11.176  1.00  0.00     0.094 A 
ATOM     19  HN  UNL     1     -38.196 -49.128  10.022  1.00  0.00     0.164 HD
ENDBRANCH  12  13
ENDBRANCH  11  12
ENDBRANCH   9  11
ENDBRANCH   7   9
BRANCH   1  20
HETATM   20  S   UNL     1     -43.963 -54.674  14.491  1.00  0.00     0.225 S 
HETATM   21  C   UNL     1     -42.673 -55.287  15.555  1.00  0.00     0.186 C 
HETATM   22  O   UNL     1     -43.314 -53.995  13.396  1.00  0.00    -0.206 OA
HETATM   23  O   UNL     1     -44.907 -55.748  14.266  1.00  0.00    -0.206 OA
ENDBRANCH   1  20
TORSDOF 5
ENDMDL
MODEL 7
REMARK VINA RESULT:      -5.4      2.029      2.498
REMARK  5 active torsions:
REMARK  status: ('A' for Active; 'I' for Inactive)
REMARK    1  A    between atoms: S_2  and  N_5 
REMARK    2  A    between atoms: C_11  and  N_13 
REMARK    3  A    between atoms: N_13  and  C_14 
REMARK    4  A    between atoms: C_14  and  C_15 
REMARK    5  A    between atoms: C_15  and  C_16 
ROOT
HETATM    1  N   UNL     1     -45.588 -52.151  17.193  1.00  0.00    -0.304 N 
HETATM    2  C   UNL     1     -46.795 -51.338  17.354  1.00  0.00     0.135 C 
HETATM    3  C   UNL     1     -47.668 -51.452  16.118  1.00  0.00     0.021 C 
HETATM    4  C   UNL     1     -46.934 -51.290  14.780  1.00  0.00     0.012 C 
HETATM    5  C   UNL     1     -45.401 -51.237  14.829  1.00  0.00     0.181 A 
HETATM    6  C   UNL     1     -44.697 -51.719  16.104  1.00  0.00     0.139 A 
HETATM    7  C   UNL     1     -44.584 -51.822  13.668  1.00  0.00     0.162 A 
HETATM    8  O   UNL     1     -43.451 -51.373  13.458  1.00  0.00    -0.282 OA
ENDROOT
BRANCH   7   9
HETATM    9  N   UNL     1     -45.042 -52.930  12.989  1.00  0.00    -0.367 N 
HETATM   10  H   UNL     1     -46.036 -53.082  12.869  1.00  0.00     0.162 HD
BRANCH   9  11
HETATM   11  C   UNL     1     -44.150 -54.084  12.876  1.00  0.00     0.127 C 
BRANCH  11  12
HETATM   12  C   UNL     1     -43.540 -54.582  14.189  1.00  0.00     0.059 C 
BRANCH  12  13
HETATM   13  C   UNL     1     -42.036 -54.552  14.244  1.00  0.00    -0.041 A 
HETATM   14  C   UNL     1     -41.325 -54.814  15.418  1.00  0.00     0.010 A 
HETATM   15  C   UNL     1     -39.933 -54.763  15.410  1.00  0.00     0.018 A 
HETATM   16  C   UNL     1     -39.295 -54.442  14.223  1.00  0.00     0.087 A 
HETATM   17  N   UNL     1     -39.946 -54.161  13.075  1.00  0.00    -0.375 N 
HETATM   18  C   UNL     1     -41.295 -54.216  13.114  1.00  0.00     0.094 A 
ATOM     19  HN  UNL     1     -39.444 -53.918  12.221  1.00  0.00     0.164 HD
ENDBRANCH  12  13
ENDBRANCH  11  12
ENDBRANCH   9  11
ENDBRANCH   7   9
BRANCH   1  20
HETATM   20  S   UNL     1     -45.581 -53.780  17.644  1.00  0.00     0.225 S 
HETATM   21  C   UNL     1     -43.847 -54.077  17.919  1.00  0.00     0.186 C 
HETATM   22  O   UNL     1     -45.969 -54.585  16.511  1.00  0.00    -0.206 OA
HETATM   23  O   UNL     1     -46.261 -53.885  18.918  1.00  0.00    -0.206 OA
ENDBRANCH   1  20
TORSDOF 5
ENDMDL
MODEL 8
REMARK VINA RESULT:      -5.3      2.565      5.180
REMARK  5 active torsions:
REMARK  status: ('A' for Active; 'I' for Inactive)
REMARK    1  A    between atoms: S_2  and  N_5 
REMARK    2  A    between atoms: C_11  and  N_13 
REMARK    3  A    between atoms: N_13  and  C_14 
REMARK    4  A    between atoms: C_14  and  C_15 
REMARK    5  A    between atoms: C_15  and  C_16 
ROOT
HETATM    1  N   UNL     1     -40.355 -53.893  14.355  1.00  0.00    -0.304 N 
HETATM    2  C   UNL     1     -40.839 -54.034  12.980  1.00  0.00     0.135 C 
HETATM    3  C   UNL     1     -42.294 -53.613  12.894  1.00  0.00     0.021 C 
HETATM    4  C   UNL     1     -43.209 -54.193  13.981  1.00  0.00     0.012 C 
HETATM    5  C   UNL     1     -42.532 -54.953  15.129  1.00  0.00     0.181 A 
HETATM    6  C   UNL     1     -41.023 -54.768  15.334  1.00  0.00     0.139 A 
HETATM    7  C   UNL     1     -43.142 -54.901  16.537  1.00  0.00     0.162 A 
HETATM    8  O   UNL     1     -42.923 -55.841  17.310  1.00  0.00    -0.282 OA
ENDROOT
BRANCH   7   9
HETATM    9  N   UNL     1     -43.775 -53.758  16.975  1.00  0.00    -0.367 N 
HETATM   10  H   UNL     1     -43.235 -52.962  17.291  1.00  0.00     0.162 HD
BRANCH   9  11
HETATM   11  C   UNL     1     -45.162 -53.871  17.426  1.00  0.00     0.127 C 
BRANCH  11  12
HETATM   12  C   UNL     1     -46.108 -52.767  16.947  1.00  0.00     0.059 C 
BRANCH  12  13
HETATM   13  C   UNL     1     -46.074 -52.497  15.467  1.00  0.00    -0.041 A 
HETATM   14  C   UNL     1     -45.500 -51.342  14.930  1.00  0.00     0.010 A 
HETATM   15  C   UNL     1     -45.506 -51.142  13.551  1.00  0.00     0.018 A 
HETATM   16  C   UNL     1     -46.097 -52.106  12.751  1.00  0.00     0.087 A 
HETATM   17  N   UNL     1     -46.681 -53.223  13.232  1.00  0.00    -0.375 N 
HETATM   18  C   UNL     1     -46.661 -53.389  14.573  1.00  0.00     0.094 A 
ATOM     19  HN  UNL     1     -47.115 -53.909  12.614  1.00  0.00     0.164 HD
ENDBRANCH  12  13
ENDBRANCH  11  12
ENDBRANCH   9  11
ENDBRANCH   7   9
BRANCH   1  20
HETATM   20  S   UNL     1     -39.703 -52.429  14.893  1.00  0.00     0.225 S 
HETATM   21  C   UNL     1     -38.897 -52.919  16.402  1.00  0.00     0.186 C 
HETATM   22  O   UNL     1     -40.779 -51.542  15.262  1.00  0.00    -0.206 OA
HETATM   23  O   UNL     1     -38.681 -52.031  13.947  1.00  0.00    -0.206 OA
ENDBRANCH   1  20
TORSDOF 5
ENDMDL
MODEL 9
REMARK VINA RESULT:      -5.3      3.544      5.424
REMARK  5 active torsions:
REMARK  status: ('A' for Active; 'I' for Inactive)
REMARK    1  A    between atoms: S_2  and  N_5 
REMARK    2  A    between atoms: C_11  and  N_13 
REMARK    3  A    between atoms: N_13  and  C_14 
REMARK    4  A    between atoms: C_14  and  C_15 
REMARK    5  A    between atoms: C_15  and  C_16 
ROOT
HETATM    1  N   UNL     1     -43.900 -54.375  14.670  1.00  0.00    -0.304 N 
HETATM    2  C   UNL     1     -43.885 -53.738  15.989  1.00  0.00     0.135 C 
HETATM    3  C   UNL     1     -43.684 -52.242  15.842  1.00  0.00     0.021 C 
HETATM    4  C   UNL     1     -42.554 -51.822  14.892  1.00  0.00     0.012 C 
HETATM    5  C   UNL     1     -41.901 -52.930  14.055  1.00  0.00     0.181 A 
HETATM    6  C   UNL     1     -42.634 -54.271  13.924  1.00  0.00     0.139 A 
HETATM    7  C   UNL     1     -41.383 -52.611  12.645  1.00  0.00     0.162 A 
HETATM    8  O   UNL     1     -40.468 -53.301  12.182  1.00  0.00    -0.282 OA
ENDROOT
BRANCH   7   9
HETATM    9  N   UNL     1     -42.039 -51.688  11.860  1.00  0.00    -0.367 N 
HETATM   10  H   UNL     1     -42.517 -51.981  11.017  1.00  0.00     0.162 HD
BRANCH   9  11
HETATM   11  C   UNL     1     -41.644 -50.284  11.976  1.00  0.00     0.127 C 
BRANCH  11  12
HETATM   12  C   UNL     1     -40.244 -49.942  11.460  1.00  0.00     0.059 C 
BRANCH  12  13
HETATM   13  C   UNL     1     -39.255 -49.538  12.520  1.00  0.00    -0.041 A 
HETATM   14  C   UNL     1     -38.427 -50.462  13.162  1.00  0.00     0.010 A 
HETATM   15  C   UNL     1     -37.537 -50.030  14.143  1.00  0.00     0.018 A 
HETATM   16  C   UNL     1     -37.511 -48.681  14.457  1.00  0.00     0.087 A 
HETATM   17  N   UNL     1     -38.310 -47.762  13.877  1.00  0.00    -0.375 N 
HETATM   18  C   UNL     1     -39.164 -48.211  12.931  1.00  0.00     0.094 A 
ATOM     19  HN  UNL     1     -38.271 -46.777  14.139  1.00  0.00     0.164 HD
ENDBRANCH  12  13
ENDBRANCH  11  12
ENDBRANCH   9  11
ENDBRANCH   7   9
BRANCH   1  20
HETATM   20  S   UNL     1     -45.341 -54.519  13.799  1.00  0.00     0.225 S 
HETATM   21  C   UNL     1     -46.492 -53.660  14.851  1.00  0.00     0.186 C 
HETATM   22  O   UNL     1     -45.745 -55.904  13.780  1.00  0.00    -0.206 OA
HETATM   23  O   UNL     1     -45.193 -53.755  12.578  1.00  0.00    -0.206 OA
ENDBRANCH   1  20
TORSDOF 5
ENDMDL
