MODEL 1
REMARK VINA RESULT:      -6.3      0.000      0.000
REMARK  4 active torsions:
REMARK  status: ('A' for Active; 'I' for Inactive)
REMARK       I    between atoms: C_2  and  N_3 
REMARK    1  A    between atoms: C_2  and  C_13 
REMARK    2  A    between atoms: N_3  and  C_4 
REMARK    3  A    between atoms: C_4  and  C_5 
REMARK    4  A    between atoms: C_5  and  C_6 
ROOT
HETATM    1  O   UNL     1     -42.972 -49.103  14.888  1.00  0.00    -0.273 OA
HETATM    2  C   UNL     1     -43.415 -49.854  14.020  1.00  0.00     0.226 C 
HETATM    3  N   UNL     1     -43.113 -49.666  12.688  1.00  0.00    -0.360 N 
HETATM    4  H   UNL     1     -43.419 -50.342  12.002  1.00  0.00     0.162 HD
ENDROOT
BRANCH   2   5
HETATM    5  C   UNL     1     -44.357 -51.026  14.347  1.00  0.00     0.042 C 
HETATM    6  C   UNL     1     -44.967 -50.804  15.758  1.00  0.00     0.024 C 
HETATM    7  C   UNL     1     -45.942 -51.932  16.121  1.00  0.00    -0.013 C 
HETATM    8  C   UNL     1     -45.185 -53.269  16.112  1.00  0.00     0.009 C 
HETATM    9  C   UNL     1     -47.072 -51.971  15.081  1.00  0.00     0.009 C 
HETATM   10  C   UNL     1     -44.590 -53.525  14.717  1.00  0.00    -0.013 C 
HETATM   11  C   UNL     1     -45.734 -53.570  13.689  1.00  0.00     0.009 C 
HETATM   12  C   UNL     1     -43.617 -52.385  14.352  1.00  0.00     0.024 C 
HETATM   13  C   UNL     1     -46.490 -52.230  13.683  1.00  0.00    -0.013 C 
HETATM   14  C   UNL     1     -45.512 -51.098  13.319  1.00  0.00     0.024 C 
ENDBRANCH   2   5
BRANCH   3  15
HETATM   15  C   UNL     1     -42.303 -48.531  12.280  1.00  0.00     0.127 C 
BRANCH  15  16
HETATM   16  C   UNL     1     -43.138 -47.365  11.753  1.00  0.00     0.059 C 
BRANCH  16  17
HETATM   17  C   UNL     1     -43.559 -47.572  10.323  1.00  0.00    -0.041 A 
HETATM   18  C   UNL     1     -44.907 -47.558   9.952  1.00  0.00     0.010 A 
HETATM   19  C   UNL     1     -45.259 -47.771   8.621  1.00  0.00     0.018 A 
HETATM   20  C   UNL     1     -44.248 -47.996   7.702  1.00  0.00     0.087 A 
HETATM   21  N   UNL     1     -42.937 -48.022   8.023  1.00  0.00    -0.375 N 
HETATM   22  C   UNL     1     -42.624 -47.815   9.322  1.00  0.00     0.094 A 
ATOM     23  HN  UNL     1     -42.217 -48.191   7.319  1.00  0.00     0.164 HD
ENDBRANCH  16  17
ENDBRANCH  15  16
ENDBRANCH   3  15
TORSDOF 4
ENDMDL
MODEL 2
REMARK VINA RESULT:      -6.0      1.593      2.616
REMARK  4 active torsions:
REMARK  status: ('A' for Active; 'I' for Inactive)
REMARK       I    between atoms: C_2  and  N_3 
REMARK    1  A    between atoms: C_2  and  C_13 
REMARK    2  A    between atoms: N_3  and  C_4 
REMARK    3  A    between atoms: C_4  and  C_5 
REMARK    4  A    between atoms: C_5  and  C_6 
ROOT
HETATM    1  O   UNL     1     -41.928 -51.633  15.706  1.00  0.00    -0.273 OA
HETATM    2  C   UNL     1     -42.505 -51.642  14.619  1.00  0.00     0.226 C 
HETATM    3  N   UNL     1     -41.864 -51.246  13.465  1.00  0.00    -0.360 N 
HETATM    4  H   UNL     1     -42.330 -51.340  12.572  1.00  0.00     0.162 HD
ENDROOT
BRANCH   2   5
HETATM    5  C   UNL     1     -43.979 -52.060  14.472  1.00  0.00     0.042 C 
HETATM    6  C   UNL     1     -44.744 -50.950  13.701  1.00  0.00     0.024 C 
HETATM    7  C   UNL     1     -46.216 -51.333  13.499  1.00  0.00    -0.013 C 
HETATM    8  C   UNL     1     -46.875 -51.528  14.873  1.00  0.00     0.009 C 
HETATM    9  C   UNL     1     -46.287 -52.643  12.700  1.00  0.00     0.009 C 
HETATM   10  C   UNL     1     -46.151 -52.641  15.648  1.00  0.00    -0.013 C 
HETATM   11  C   UNL     1     -46.238 -53.948  14.841  1.00  0.00     0.009 C 
HETATM   12  C   UNL     1     -44.670 -52.256  15.843  1.00  0.00     0.024 C 
HETATM   13  C   UNL     1     -45.569 -53.764  13.468  1.00  0.00    -0.013 C 
HETATM   14  C   UNL     1     -44.092 -53.379  13.671  1.00  0.00     0.024 C 
ENDBRANCH   2   5
BRANCH   3  15
HETATM   15  C   UNL     1     -40.499 -50.752  13.524  1.00  0.00     0.127 C 
BRANCH  15  16
HETATM   16  C   UNL     1     -40.414 -49.230  13.415  1.00  0.00     0.059 C 
BRANCH  16  17
HETATM   17  C   UNL     1     -41.269 -48.694  12.300  1.00  0.00    -0.041 A 
HETATM   18  C   UNL     1     -42.468 -48.023  12.559  1.00  0.00     0.010 A 
HETATM   19  C   UNL     1     -43.242 -47.557  11.498  1.00  0.00     0.018 A 
HETATM   20  C   UNL     1     -42.792 -47.782  10.208  1.00  0.00     0.087 A 
HETATM   21  N   UNL     1     -41.644 -48.430   9.918  1.00  0.00    -0.375 N 
HETATM   22  C   UNL     1     -40.914 -48.874  10.966  1.00  0.00     0.094 A 
ATOM     23  HN  UNL     1     -41.343 -48.579   8.954  1.00  0.00     0.164 HD
ENDBRANCH  16  17
ENDBRANCH  15  16
ENDBRANCH   3  15
TORSDOF 4
ENDMDL
MODEL 3
REMARK VINA RESULT:      -6.0      2.311      3.148
REMARK  4 active torsions:
REMARK  status: ('A' for Active; 'I' for Inactive)
REMARK       I    between atoms: C_2  and  N_3 
REMARK    1  A    between atoms: C_2  and  C_13 
REMARK    2  A    between atoms: N_3  and  C_4 
REMARK    3  A    between atoms: C_4  and  C_5 
REMARK    4  A    between atoms: C_5  and  C_6 
ROOT
HETATM    1  O   UNL     1     -41.271 -52.738  12.291  1.00  0.00    -0.273 OA
HETATM    2  C   UNL     1     -42.173 -51.917  12.455  1.00  0.00     0.226 C 
HETATM    3  N   UNL     1     -42.063 -50.628  11.981  1.00  0.00    -0.360 N 
HETATM    4  H   UNL     1     -42.848 -49.995  12.053  1.00  0.00     0.162 HD
ENDROOT
BRANCH   2   5
HETATM    5  C   UNL     1     -43.464 -52.254  13.223  1.00  0.00     0.042 C 
HETATM    6  C   UNL     1     -44.343 -50.978  13.317  1.00  0.00     0.024 C 
HETATM    7  C   UNL     1     -45.661 -51.268  14.048  1.00  0.00    -0.013 C 
HETATM    8  C   UNL     1     -45.346 -51.760  15.469  1.00  0.00     0.009 C 
HETATM    9  C   UNL     1     -46.429 -52.355  13.281  1.00  0.00     0.009 C 
HETATM   10  C   UNL     1     -44.496 -53.040  15.404  1.00  0.00    -0.013 C 
HETATM   11  C   UNL     1     -45.281 -54.122  14.642  1.00  0.00     0.009 C 
HETATM   12  C   UNL     1     -43.176 -52.746  14.662  1.00  0.00     0.024 C 
HETATM   13  C   UNL     1     -45.589 -53.641  13.213  1.00  0.00    -0.013 C 
HETATM   14  C   UNL     1     -44.267 -53.349  12.480  1.00  0.00     0.024 C 
ENDBRANCH   2   5
BRANCH   3  15
HETATM   15  C   UNL     1     -40.842 -50.198  11.321  1.00  0.00     0.127 C 
BRANCH  15  16
HETATM   16  C   UNL     1     -40.103 -49.106  12.094  1.00  0.00     0.059 C 
BRANCH  16  17
HETATM   17  C   UNL     1     -40.412 -47.732  11.566  1.00  0.00    -0.041 A 
HETATM   18  C   UNL     1     -39.785 -46.594  12.084  1.00  0.00     0.010 A 
HETATM   19  C   UNL     1     -40.111 -45.337  11.580  1.00  0.00     0.018 A 
HETATM   20  C   UNL     1     -41.059 -45.257  10.575  1.00  0.00     0.087 A 
HETATM   21  N   UNL     1     -41.690 -46.331  10.054  1.00  0.00    -0.375 N 
HETATM   22  C   UNL     1     -41.357 -47.539  10.562  1.00  0.00     0.094 A 
ATOM     23  HN  UNL     1     -42.385 -46.236   9.312  1.00  0.00     0.164 HD
ENDBRANCH  16  17
ENDBRANCH  15  16
ENDBRANCH   3  15
TORSDOF 4
ENDMDL
MODEL 4
REMARK VINA RESULT:      -6.0      3.328      4.783
REMARK  4 active torsions:
REMARK  status: ('A' for Active; 'I' for Inactive)
REMARK       I    between atoms: C_2  and  N_3 
REMARK    1  A    between atoms: C_2  and  C_13 
REMARK    2  A    between atoms: N_3  and  C_4 
REMARK    3  A    between atoms: C_4  and  C_5 
REMARK    4  A    between atoms: C_5  and  C_6 
ROOT
HETATM    1  O   UNL     1     -42.110 -52.139  16.264  1.00  0.00    -0.273 OA
HETATM    2  C   UNL     1     -42.643 -52.980  15.542  1.00  0.00     0.226 C 
HETATM    3  N   UNL     1     -41.946 -54.080  15.090  1.00  0.00    -0.360 N 
HETATM    4  H   UNL     1     -42.426 -54.801  14.567  1.00  0.00     0.162 HD
ENDROOT
BRANCH   2   5
HETATM    5  C   UNL     1     -44.101 -52.853  15.066  1.00  0.00     0.042 C 
HETATM    6  C   UNL     1     -44.275 -51.499  14.328  1.00  0.00     0.024 C 
HETATM    7  C   UNL     1     -45.708 -51.336  13.803  1.00  0.00    -0.013 C 
HETATM    8  C   UNL     1     -46.682 -51.383  14.990  1.00  0.00     0.009 C 
HETATM    9  C   UNL     1     -46.019 -52.485  12.832  1.00  0.00     0.009 C 
HETATM   10  C   UNL     1     -46.548 -52.727  15.726  1.00  0.00    -0.013 C 
HETATM   11  C   UNL     1     -46.871 -53.867  14.743  1.00  0.00     0.009 C 
HETATM   12  C   UNL     1     -45.104 -52.891  16.244  1.00  0.00     0.024 C 
HETATM   13  C   UNL     1     -45.891 -53.833  13.558  1.00  0.00    -0.013 C 
HETATM   14  C   UNL     1     -44.453 -53.996  14.084  1.00  0.00     0.024 C 
ENDBRANCH   2   5
BRANCH   3  15
HETATM   15  C   UNL     1     -40.539 -54.235  15.417  1.00  0.00     0.127 C 
BRANCH  15  16
HETATM   16  C   UNL     1     -39.625 -54.062  14.204  1.00  0.00     0.059 C 
BRANCH  16  17
HETATM   17  C   UNL     1     -40.010 -52.870  13.371  1.00  0.00    -0.041 A 
HETATM   18  C   UNL     1     -39.642 -51.573  13.742  1.00  0.00     0.010 A 
HETATM   19  C   UNL     1     -40.033 -50.493  12.955  1.00  0.00     0.018 A 
HETATM   20  C   UNL     1     -40.784 -50.744  11.820  1.00  0.00     0.087 A 
HETATM   21  N   UNL     1     -41.163 -51.980  11.431  1.00  0.00    -0.375 N 
HETATM   22  C   UNL     1     -40.773 -53.011  12.215  1.00  0.00     0.094 A 
ATOM     23  HN  UNL     1     -41.717 -52.130  10.588  1.00  0.00     0.164 HD
ENDBRANCH  16  17
ENDBRANCH  15  16
ENDBRANCH   3  15
TORSDOF 4
ENDMDL
MODEL 5
REMARK VINA RESULT:      -5.9      3.570      4.829
REMARK  4 active torsions:
REMARK  status: ('A' for Active; 'I' for Inactive)
REMARK       I    between atoms: C_2  and  N_3 
REMARK    1  A    between atoms: C_2  and  C_13 
REMARK    2  A    between atoms: N_3  and  C_4 
REMARK    3  A    between atoms: C_4  and  C_5 
REMARK    4  A    between atoms: C_5  and  C_6 
ROOT
HETATM    1  O   UNL     1     -42.292 -50.381  14.743  1.00  0.00    -0.273 OA
HETATM    2  C   UNL     1     -42.602 -51.566  14.857  1.00  0.00     0.226 C 
HETATM    3  N   UNL     1     -41.680 -52.512  15.252  1.00  0.00    -0.360 N 
HETATM    4  H   UNL     1     -41.976 -53.465  15.419  1.00  0.00     0.162 HD
ENDROOT
BRANCH   2   5
HETATM    5  C   UNL     1     -44.016 -52.083  14.538  1.00  0.00     0.042 C 
HETATM    6  C   UNL     1     -43.982 -52.844  13.184  1.00  0.00     0.024 C 
HETATM    7  C   UNL     1     -45.365 -53.409  12.834  1.00  0.00    -0.013 C 
HETATM    8  C   UNL     1     -46.366 -52.248  12.727  1.00  0.00     0.009 C 
HETATM    9  C   UNL     1     -45.808 -54.373  13.946  1.00  0.00     0.009 C 
HETATM   10  C   UNL     1     -46.438 -51.492  14.064  1.00  0.00    -0.013 C 
HETATM   11  C   UNL     1     -46.890 -52.468  15.165  1.00  0.00     0.009 C 
HETATM   12  C   UNL     1     -45.044 -50.933  14.417  1.00  0.00     0.024 C 
HETATM   13  C   UNL     1     -45.886 -53.627  15.287  1.00  0.00    -0.013 C 
HETATM   14  C   UNL     1     -44.498 -53.060  15.637  1.00  0.00     0.024 C 
ENDBRANCH   2   5
BRANCH   3  15
HETATM   15  C   UNL     1     -40.299 -52.128  15.488  1.00  0.00     0.127 C 
BRANCH  15  16
HETATM   16  C   UNL     1     -39.341 -52.680  14.434  1.00  0.00     0.059 C 
BRANCH  16  17
HETATM   17  C   UNL     1     -39.000 -51.655  13.387  1.00  0.00    -0.041 A 
HETATM   18  C   UNL     1     -37.770 -50.990  13.391  1.00  0.00     0.010 A 
HETATM   19  C   UNL     1     -37.499 -50.034  12.415  1.00  0.00     0.018 A 
HETATM   20  C   UNL     1     -38.471 -49.770  11.466  1.00  0.00     0.087 A 
HETATM   21  N   UNL     1     -39.672 -50.386  11.432  1.00  0.00    -0.375 N 
HETATM   22  C   UNL     1     -39.910 -51.308  12.392  1.00  0.00     0.094 A 
ATOM     23  HN  UNL     1     -40.366 -50.167  10.717  1.00  0.00     0.164 HD
ENDBRANCH  16  17
ENDBRANCH  15  16
ENDBRANCH   3  15
TORSDOF 4
ENDMDL
MODEL 6
REMARK VINA RESULT:      -5.9      2.943      4.625
REMARK  4 active torsions:
REMARK  status: ('A' for Active; 'I' for Inactive)
REMARK       I    between atoms: C_2  and  N_3 
REMARK    1  A    between atoms: C_2  and  C_13 
REMARK    2  A    between atoms: N_3  and  C_4 
REMARK    3  A    between atoms: C_4  and  C_5 
REMARK    4  A    between atoms: C_5  and  C_6 
ROOT
HETATM    1  O   UNL     1     -41.667 -52.323  11.874  1.00  0.00    -0.273 OA
HETATM    2  C   UNL     1     -42.570 -51.814  12.537  1.00  0.00     0.226 C 
HETATM    3  N   UNL     1     -42.786 -50.453  12.527  1.00  0.00    -0.360 N 
HETATM    4  H   UNL     1     -43.584 -50.066  13.013  1.00  0.00     0.162 HD
ENDROOT
BRANCH   2   5
HETATM    5  C   UNL     1     -43.494 -52.645  13.444  1.00  0.00     0.042 C 
HETATM    6  C   UNL     1     -44.867 -52.823  12.739  1.00  0.00     0.024 C 
HETATM    7  C   UNL     1     -45.818 -53.675  13.590  1.00  0.00    -0.013 C 
HETATM    8  C   UNL     1     -46.040 -52.977  14.941  1.00  0.00     0.009 C 
HETATM    9  C   UNL     1     -45.184 -55.056  13.819  1.00  0.00     0.009 C 
HETATM   10  C   UNL     1     -44.698 -52.811  15.672  1.00  0.00    -0.013 C 
HETATM   11  C   UNL     1     -44.080 -54.202  15.902  1.00  0.00     0.009 C 
HETATM   12  C   UNL     1     -43.742 -51.961  14.810  1.00  0.00     0.024 C 
HETATM   13  C   UNL     1     -43.843 -54.902  14.553  1.00  0.00    -0.013 C 
HETATM   14  C   UNL     1     -42.889 -54.047  13.698  1.00  0.00     0.024 C 
ENDBRANCH   2   5
BRANCH   3  15
HETATM   15  C   UNL     1     -41.905 -49.582  11.768  1.00  0.00     0.127 C 
BRANCH  15  16
HETATM   16  C   UNL     1     -40.822 -48.935  12.631  1.00  0.00     0.059 C 
BRANCH  16  17
HETATM   17  C   UNL     1     -39.540 -49.721  12.614  1.00  0.00    -0.041 A 
HETATM   18  C   UNL     1     -39.089 -50.405  13.747  1.00  0.00     0.010 A 
HETATM   19  C   UNL     1     -37.888 -51.108  13.697  1.00  0.00     0.018 A 
HETATM   20  C   UNL     1     -37.171 -51.101  12.513  1.00  0.00     0.087 A 
HETATM   21  N   UNL     1     -37.570 -50.448  11.400  1.00  0.00    -0.375 N 
HETATM   22  C   UNL     1     -38.738 -49.772  11.477  1.00  0.00     0.094 A 
ATOM     23  HN  UNL     1     -37.016 -50.464  10.543  1.00  0.00     0.164 HD
ENDBRANCH  16  17
ENDBRANCH  15  16
ENDBRANCH   3  15
TORSDOF 4
ENDMDL
MODEL 7
REMARK VINA RESULT:      -5.9      3.670      7.017
REMARK  4 active torsions:
REMARK  status: ('A' for Active; 'I' for Inactive)
REMARK       I    between atoms: C_2  and  N_3 
REMARK    1  A    between atoms: C_2  and  C_13 
REMARK    2  A    between atoms: N_3  and  C_4 
REMARK    3  A    between atoms: C_4  and  C_5 
REMARK    4  A    between atoms: C_5  and  C_6 
ROOT
HETATM    1  O   UNL     1     -41.923 -51.678  14.796  1.00  0.00    -0.273 OA
HETATM    2  C   UNL     1     -41.255 -51.828  13.773  1.00  0.00     0.226 C 
HETATM    3  N   UNL     1     -41.522 -52.850  12.888  1.00  0.00    -0.360 N 
HETATM    4  H   UNL     1     -41.016 -52.904  12.014  1.00  0.00     0.162 HD
ENDROOT
BRANCH   2   5
HETATM    5  C   UNL     1     -40.065 -50.916  13.425  1.00  0.00     0.042 C 
HETATM    6  C   UNL     1     -40.064 -49.697  14.388  1.00  0.00     0.024 C 
HETATM    7  C   UNL     1     -38.875 -48.770  14.104  1.00  0.00    -0.013 C 
HETATM    8  C   UNL     1     -38.973 -48.261  12.657  1.00  0.00     0.009 C 
HETATM    9  C   UNL     1     -37.570 -49.560  14.287  1.00  0.00     0.009 C 
HETATM   10  C   UNL     1     -38.950 -49.449  11.681  1.00  0.00    -0.013 C 
HETATM   11  C   UNL     1     -37.635 -50.225  11.870  1.00  0.00     0.009 C 
HETATM   12  C   UNL     1     -40.142 -50.382  11.975  1.00  0.00     0.024 C 
HETATM   13  C   UNL     1     -37.535 -50.748  13.313  1.00  0.00    -0.013 C 
HETATM   14  C   UNL     1     -38.729 -51.678  13.598  1.00  0.00     0.024 C 
ENDBRANCH   2   5
BRANCH   3  15
HETATM   15  C   UNL     1     -42.571 -53.811  13.182  1.00  0.00     0.127 C 
BRANCH  15  16
HETATM   16  C   UNL     1     -43.840 -53.573  12.364  1.00  0.00     0.059 C 
BRANCH  16  17
HETATM   17  C   UNL     1     -45.007 -53.188  13.231  1.00  0.00    -0.041 A 
HETATM   18  C   UNL     1     -45.310 -51.849  13.493  1.00  0.00     0.010 A 
HETATM   19  C   UNL     1     -46.389 -51.533  14.315  1.00  0.00     0.018 A 
HETATM   20  C   UNL     1     -47.131 -52.571  14.854  1.00  0.00     0.087 A 
HETATM   21  N   UNL     1     -46.867 -53.876  14.629  1.00  0.00    -0.375 N 
HETATM   22  C   UNL     1     -45.812 -54.154  13.829  1.00  0.00     0.094 A 
ATOM     23  HN  UNL     1     -47.435 -54.616  15.042  1.00  0.00     0.164 HD
ENDBRANCH  16  17
ENDBRANCH  15  16
ENDBRANCH   3  15
TORSDOF 4
ENDMDL
MODEL 8
REMARK VINA RESULT:      -5.7     17.634     19.600
REMARK  4 active torsions:
REMARK  status: ('A' for Active; 'I' for Inactive)
REMARK       I    between atoms: C_2  and  N_3 
REMARK    1  A    between atoms: C_2  and  C_13 
REMARK    2  A    between atoms: N_3  and  C_4 
REMARK    3  A    between atoms: C_4  and  C_5 
REMARK    4  A    between atoms: C_5  and  C_6 
ROOT
HETATM    1  O   UNL     1     -26.709 -59.950  19.011  1.00  0.00    -0.273 OA
HETATM    2  C   UNL     1     -27.760 -60.272  18.456  1.00  0.00     0.226 C 
HETATM    3  N   UNL     1     -28.880 -59.473  18.525  1.00  0.00    -0.360 N 
HETATM    4  H   UNL     1     -29.706 -59.716  17.994  1.00  0.00     0.162 HD
ENDROOT
BRANCH   2   5
HETATM    5  C   UNL     1     -27.910 -61.593  17.681  1.00  0.00     0.042 C 
HETATM    6  C   UNL     1     -26.983 -62.663  18.320  1.00  0.00     0.024 C 
HETATM    7  C   UNL     1     -27.120 -64.012  17.602  1.00  0.00    -0.013 C 
HETATM    8  C   UNL     1     -26.728 -63.834  16.127  1.00  0.00     0.009 C 
HETATM    9  C   UNL     1     -28.578 -64.484  17.697  1.00  0.00     0.009 C 
HETATM   10  C   UNL     1     -27.648 -62.796  15.462  1.00  0.00    -0.013 C 
HETATM   11  C   UNL     1     -29.103 -63.287  15.557  1.00  0.00     0.009 C 
HETATM   12  C   UNL     1     -27.515 -61.444  16.192  1.00  0.00     0.024 C 
HETATM   13  C   UNL     1     -29.507 -63.456  17.032  1.00  0.00    -0.013 C 
HETATM   14  C   UNL     1     -29.370 -62.102  17.753  1.00  0.00     0.024 C 
ENDBRANCH   2   5
BRANCH   3  15
HETATM   15  C   UNL     1     -28.855 -58.251  19.311  1.00  0.00     0.127 C 
BRANCH  15  16
HETATM   16  C   UNL     1     -30.161 -57.462  19.224  1.00  0.00     0.059 C 
BRANCH  16  17
HETATM   17  C   UNL     1     -29.926 -56.017  18.878  1.00  0.00    -0.041 A 
HETATM   18  C   UNL     1     -28.869 -55.295  19.440  1.00  0.00     0.010 A 
HETATM   19  C   UNL     1     -28.695 -53.954  19.109  1.00  0.00     0.018 A 
HETATM   20  C   UNL     1     -29.590 -53.374  18.226  1.00  0.00     0.087 A 
HETATM   21  N   UNL     1     -30.626 -54.035  17.667  1.00  0.00    -0.375 N 
HETATM   22  C   UNL     1     -30.773 -55.336  18.007  1.00  0.00     0.094 A 
ATOM     23  HN  UNL     1     -31.267 -53.577  17.019  1.00  0.00     0.164 HD
ENDBRANCH  16  17
ENDBRANCH  15  16
ENDBRANCH   3  15
TORSDOF 4
ENDMDL
MODEL 9
REMARK VINA RESULT:      -5.7      3.672      6.109
REMARK  4 active torsions:
REMARK  status: ('A' for Active; 'I' for Inactive)
REMARK       I    between atoms: C_2  and  N_3 
REMARK    1  A    between atoms: C_2  and  C_13 
REMARK    2  A    between atoms: N_3  and  C_4 
REMARK    3  A    between atoms: C_4  and  C_5 
REMARK    4  A    between atoms: C_5  and  C_6 
ROOT
HETATM    1  O   UNL     1     -42.204 -51.361  15.949  1.00  0.00    -0.273 OA
HETATM    2  C   UNL     1     -42.547 -51.567  14.785  1.00  0.00     0.226 C 
HETATM    3  N   UNL     1     -41.707 -51.281  13.730  1.00  0.00    -0.360 N 
HETATM    4  H   UNL     1     -41.976 -51.536  12.789  1.00  0.00     0.162 HD
ENDROOT
BRANCH   2   5
HETATM    5  C   UNL     1     -43.935 -52.123  14.421  1.00  0.00     0.042 C 
HETATM    6  C   UNL     1     -43.837 -52.883  13.071  1.00  0.00     0.024 C 
HETATM    7  C   UNL     1     -45.191 -53.487  12.677  1.00  0.00    -0.013 C 
HETATM    8  C   UNL     1     -46.220 -52.355  12.536  1.00  0.00     0.009 C 
HETATM    9  C   UNL     1     -45.642 -54.463  13.775  1.00  0.00     0.009 C 
HETATM   10  C   UNL     1     -46.356 -51.601  13.869  1.00  0.00    -0.013 C 
HETATM   11  C   UNL     1     -46.816 -52.588  14.956  1.00  0.00     0.009 C 
HETATM   12  C   UNL     1     -44.991 -51.002  14.265  1.00  0.00     0.024 C 
HETATM   13  C   UNL     1     -45.784 -53.718  15.112  1.00  0.00    -0.013 C 
HETATM   14  C   UNL     1     -44.425 -53.113  15.506  1.00  0.00     0.024 C 
ENDBRANCH   2   5
BRANCH   3  15
HETATM   15  C   UNL     1     -40.412 -50.671  13.976  1.00  0.00     0.127 C 
BRANCH  15  16
HETATM   16  C   UNL     1     -39.246 -51.558  13.541  1.00  0.00     0.059 C 
BRANCH  16  17
HETATM   17  C   UNL     1     -39.061 -52.738  14.455  1.00  0.00    -0.041 A 
HETATM   18  C   UNL     1     -38.913 -52.575  15.835  1.00  0.00     0.010 A 
HETATM   19  C   UNL     1     -38.726 -53.691  16.647  1.00  0.00     0.018 A 
HETATM   20  C   UNL     1     -38.690 -54.939  16.050  1.00  0.00     0.087 A 
HETATM   21  N   UNL     1     -38.823 -55.138  14.721  1.00  0.00    -0.375 N 
HETATM   22  C   UNL     1     -39.001 -54.037  13.956  1.00  0.00     0.094 A 
ATOM     23  HN  UNL     1     -38.792 -56.073  14.314  1.00  0.00     0.164 HD
ENDBRANCH  16  17
ENDBRANCH  15  16
ENDBRANCH   3  15
TORSDOF 4
ENDMDL
