MODEL 1
REMARK VINA RESULT:      -6.8      0.000      0.000
REMARK  2 active torsions:
REMARK  status: ('A' for Active; 'I' for Inactive)
REMARK    1  A    between atoms: C_4  and  N_5 
REMARK       I    between atoms: N_5  and  C_6 
REMARK       I    between atoms: C_6  and  N_8 
REMARK    2  A    between atoms: N_8  and  C_9 
ROOT
HETATM    1  N   UNL     1     -41.470 -47.936  10.256  1.00  0.00    -0.293 N 
HETATM    2  C   UNL     1     -41.113 -48.929  11.119  1.00  0.00     0.322 C 
HETATM    3  O   UNL     1     -39.992 -48.915  11.621  1.00  0.00    -0.247 OA
HETATM    4  N   UNL     1     -42.077 -49.847  11.439  1.00  0.00    -0.337 N 
HETATM    5  H   UNL     1     -40.781 -47.205  10.168  1.00  0.00     0.172 HD
HETATM    6  H   UNL     1     -42.929 -49.842  10.889  1.00  0.00     0.164 HD
ENDROOT
BRANCH   1   7
HETATM    7  C   UNL     1     -42.674 -47.785   9.607  1.00  0.00     0.132 A 
HETATM    8  C   UNL     1     -43.866 -47.340  10.222  1.00  0.00     0.084 A 
HETATM    9  C   UNL     1     -44.810 -47.411   9.228  1.00  0.00     0.076 A 
HETATM   10  C   UNL     1     -46.261 -47.179   9.159  1.00  0.00     0.079 C 
HETATM   11  O   UNL     1     -44.217 -47.816   8.076  1.00  0.00    -0.241 OA
HETATM   12  N   UNL     1     -42.883 -48.062   8.314  1.00  0.00    -0.245 N 
ATOM     13  HN  UNL     1     -42.192 -48.389   7.639  1.00  0.00     0.196 HD
ENDBRANCH   1   7
BRANCH   4  14
HETATM   14  C   UNL     1     -41.888 -50.849  12.429  1.00  0.00     0.095 A 
HETATM   15  C   UNL     1     -41.366 -52.196  12.013  1.00  0.00     0.015 A 
HETATM   16  C   UNL     1     -40.352 -52.861  12.885  1.00  0.00     0.007 C 
HETATM   17  C   UNL     1     -42.779 -52.060  12.519  1.00  0.00     0.015 A 
HETATM   18  C   UNL     1     -40.900 -54.110  13.581  1.00  0.00     0.000 C 
HETATM   19  C   UNL     1     -42.421 -54.135  13.798  1.00  0.00     0.000 C 
HETATM   20  C   UNL     1     -43.051 -52.743  13.825  1.00  0.00     0.007 C 
ENDBRANCH   4  14
TORSDOF 2
ENDMDL
MODEL 2
REMARK VINA RESULT:      -6.4      2.284      2.791
REMARK  2 active torsions:
REMARK  status: ('A' for Active; 'I' for Inactive)
REMARK    1  A    between atoms: C_4  and  N_5 
REMARK       I    between atoms: N_5  and  C_6 
REMARK       I    between atoms: C_6  and  N_8 
REMARK    2  A    between atoms: N_8  and  C_9 
ROOT
HETATM    1  N   UNL     1     -41.999 -46.115   9.686  1.00  0.00    -0.293 N 
HETATM    2  C   UNL     1     -41.017 -46.622  10.485  1.00  0.00     0.322 C 
HETATM    3  O   UNL     1     -40.149 -45.871  10.921  1.00  0.00    -0.247 OA
HETATM    4  N   UNL     1     -41.116 -47.945  10.821  1.00  0.00    -0.337 N 
HETATM    5  H   UNL     1     -41.968 -45.111   9.589  1.00  0.00     0.172 HD
HETATM    6  H   UNL     1     -41.798 -48.505  10.322  1.00  0.00     0.164 HD
ENDROOT
BRANCH   1   7
HETATM    7  C   UNL     1     -43.048 -46.797   9.115  1.00  0.00     0.132 A 
HETATM    8  C   UNL     1     -44.368 -46.807   9.621  1.00  0.00     0.084 A 
HETATM    9  C   UNL     1     -45.047 -47.660   8.787  1.00  0.00     0.076 A 
HETATM   10  C   UNL     1     -46.415 -48.200   8.747  1.00  0.00     0.079 C 
HETATM   11  O   UNL     1     -44.210 -48.089   7.808  1.00  0.00    -0.241 OA
HETATM   12  N   UNL     1     -42.956 -47.559   8.019  1.00  0.00    -0.245 N 
ATOM     13  HN  UNL     1     -42.123 -47.717   7.452  1.00  0.00     0.196 HD
ENDBRANCH   1   7
BRANCH   4  14
HETATM   14  C   UNL     1     -40.246 -48.569  11.755  1.00  0.00     0.095 A 
HETATM   15  C   UNL     1     -39.297 -49.630  11.272  1.00  0.00     0.015 A 
HETATM   16  C   UNL     1     -37.905 -49.634  11.816  1.00  0.00     0.007 C 
HETATM   17  C   UNL     1     -40.434 -49.999  12.189  1.00  0.00     0.015 A 
HETATM   18  C   UNL     1     -37.627 -50.840  12.717  1.00  0.00     0.000 C 
HETATM   19  C   UNL     1     -38.857 -51.452  13.404  1.00  0.00     0.000 C 
HETATM   20  C   UNL     1     -40.020 -50.471  13.550  1.00  0.00     0.007 C 
ENDBRANCH   4  14
TORSDOF 2
ENDMDL
MODEL 3
REMARK VINA RESULT:      -6.2      2.633      3.478
REMARK  2 active torsions:
REMARK  status: ('A' for Active; 'I' for Inactive)
REMARK    1  A    between atoms: C_4  and  N_5 
REMARK       I    between atoms: N_5  and  C_6 
REMARK       I    between atoms: C_6  and  N_8 
REMARK    2  A    between atoms: N_8  and  C_9 
ROOT
HETATM    1  N   UNL     1     -40.405 -50.539  11.188  1.00  0.00    -0.293 N 
HETATM    2  C   UNL     1     -41.154 -51.490  11.817  1.00  0.00     0.322 C 
HETATM    3  O   UNL     1     -40.723 -52.636  11.900  1.00  0.00    -0.247 OA
HETATM    4  N   UNL     1     -42.321 -51.073  12.397  1.00  0.00    -0.337 N 
HETATM    5  H   UNL     1     -39.490 -50.859  10.910  1.00  0.00     0.172 HD
HETATM    6  H   UNL     1     -42.646 -50.138  12.176  1.00  0.00     0.164 HD
ENDROOT
BRANCH   1   7
HETATM    7  C   UNL     1     -40.720 -49.213  11.005  1.00  0.00     0.132 A 
HETATM    8  C   UNL     1     -40.316 -48.166  11.864  1.00  0.00     0.084 A 
HETATM    9  C   UNL     1     -40.909 -47.045  11.340  1.00  0.00     0.076 A 
HETATM   10  C   UNL     1     -40.989 -45.631  11.741  1.00  0.00     0.079 C 
HETATM   11  O   UNL     1     -41.577 -47.380  10.207  1.00  0.00    -0.241 OA
HETATM   12  N   UNL     1     -41.470 -48.738  10.002  1.00  0.00    -0.245 N 
ATOM     13  HN  UNL     1     -41.881 -49.276   9.239  1.00  0.00     0.196 HD
ENDBRANCH   1   7
BRANCH   4  14
HETATM   14  C   UNL     1     -43.128 -51.922  13.201  1.00  0.00     0.095 A 
HETATM   15  C   UNL     1     -44.038 -52.914  12.531  1.00  0.00     0.015 A 
HETATM   16  C   UNL     1     -44.144 -54.284  13.118  1.00  0.00     0.007 C 
HETATM   17  C   UNL     1     -44.621 -51.753  13.294  1.00  0.00     0.015 A 
HETATM   18  C   UNL     1     -45.518 -54.557  13.735  1.00  0.00     0.000 C 
HETATM   19  C   UNL     1     -46.288 -53.317  14.215  1.00  0.00     0.000 C 
HETATM   20  C   UNL     1     -45.382 -52.127  14.530  1.00  0.00     0.007 C 
ENDBRANCH   4  14
TORSDOF 2
ENDMDL
MODEL 4
REMARK VINA RESULT:      -6.2      3.737      5.907
REMARK  2 active torsions:
REMARK  status: ('A' for Active; 'I' for Inactive)
REMARK    1  A    between atoms: C_4  and  N_5 
REMARK       I    between atoms: N_5  and  C_6 
REMARK       I    between atoms: C_6  and  N_8 
REMARK    2  A    between atoms: N_8  and  C_9 
ROOT
HETATM    1  N   UNL     1     -42.337 -52.703  11.680  1.00  0.00    -0.293 N 
HETATM    2  C   UNL     1     -43.428 -52.782  12.493  1.00  0.00     0.322 C 
HETATM    3  O   UNL     1     -44.346 -53.541  12.195  1.00  0.00    -0.247 OA
HETATM    4  N   UNL     1     -43.388 -52.057  13.654  1.00  0.00    -0.337 N 
HETATM    5  H   UNL     1     -42.348 -53.365  10.918  1.00  0.00     0.172 HD
HETATM    6  H   UNL     1     -42.643 -51.376  13.755  1.00  0.00     0.164 HD
ENDROOT
BRANCH   1   7
HETATM    7  C   UNL     1     -41.220 -51.920  11.853  1.00  0.00     0.132 A 
HETATM    8  C   UNL     1     -40.202 -52.173  12.801  1.00  0.00     0.084 A 
HETATM    9  C   UNL     1     -39.340 -51.114  12.668  1.00  0.00     0.076 A 
HETATM   10  C   UNL     1     -38.119 -50.677  13.364  1.00  0.00     0.079 C 
HETATM   11  O   UNL     1     -39.775 -50.306  11.668  1.00  0.00    -0.241 OA
HETATM   12  N   UNL     1     -40.957 -50.802  11.164  1.00  0.00    -0.245 N 
ATOM     13  HN  UNL     1     -41.520 -50.399  10.416  1.00  0.00     0.196 HD
ENDBRANCH   1   7
BRANCH   4  14
HETATM   14  C   UNL     1     -44.389 -52.153  14.657  1.00  0.00     0.095 A 
HETATM   15  C   UNL     1     -45.597 -51.263  14.570  1.00  0.00     0.015 A 
HETATM   16  C   UNL     1     -46.932 -51.849  14.898  1.00  0.00     0.007 C 
HETATM   17  C   UNL     1     -44.598 -51.071  15.682  1.00  0.00     0.015 A 
HETATM   18  C   UNL     1     -47.523 -51.283  16.191  1.00  0.00     0.000 C 
HETATM   19  C   UNL     1     -46.504 -50.756  17.212  1.00  0.00     0.000 C 
HETATM   20  C   UNL     1     -45.116 -51.375  17.056  1.00  0.00     0.007 C 
ENDBRANCH   4  14
TORSDOF 2
ENDMDL
MODEL 5
REMARK VINA RESULT:      -6.0      1.639      2.180
REMARK  2 active torsions:
REMARK  status: ('A' for Active; 'I' for Inactive)
REMARK    1  A    between atoms: C_4  and  N_5 
REMARK       I    between atoms: N_5  and  C_6 
REMARK       I    between atoms: C_6  and  N_8 
REMARK    2  A    between atoms: N_8  and  C_9 
ROOT
HETATM    1  N   UNL     1     -41.652 -48.856  12.079  1.00  0.00    -0.293 N 
HETATM    2  C   UNL     1     -41.986 -49.948  12.824  1.00  0.00     0.322 C 
HETATM    3  O   UNL     1     -41.282 -50.262  13.780  1.00  0.00    -0.247 OA
HETATM    4  N   UNL     1     -43.155 -50.583  12.500  1.00  0.00    -0.337 N 
HETATM    5  H   UNL     1     -40.869 -48.336  12.446  1.00  0.00     0.172 HD
HETATM    6  H   UNL     1     -43.604 -50.321  11.629  1.00  0.00     0.164 HD
ENDROOT
BRANCH   1   7
HETATM    7  C   UNL     1     -42.318 -48.354  10.985  1.00  0.00     0.132 A 
HETATM    8  C   UNL     1     -43.528 -47.626  11.048  1.00  0.00     0.084 A 
HETATM    9  C   UNL     1     -43.855 -47.393   9.736  1.00  0.00     0.076 A 
HETATM   10  C   UNL     1     -44.996 -46.769   9.047  1.00  0.00     0.079 C 
HETATM   11  O   UNL     1     -42.881 -47.896   8.936  1.00  0.00    -0.241 OA
HETATM   12  N   UNL     1     -41.924 -48.508   9.715  1.00  0.00    -0.245 N 
ATOM     13  HN  UNL     1     -41.082 -48.983   9.389  1.00  0.00     0.196 HD
ENDBRANCH   1   7
BRANCH   4  14
HETATM   14  C   UNL     1     -43.696 -51.643  13.275  1.00  0.00     0.095 A 
HETATM   15  C   UNL     1     -43.140 -53.030  13.105  1.00  0.00     0.015 A 
HETATM   16  C   UNL     1     -42.934 -53.864  14.327  1.00  0.00     0.007 C 
HETATM   17  C   UNL     1     -44.548 -52.724  12.666  1.00  0.00     0.015 A 
HETATM   18  C   UNL     1     -43.893 -55.056  14.397  1.00  0.00     0.000 C 
HETATM   19  C   UNL     1     -45.222 -54.882  13.646  1.00  0.00     0.000 C 
HETATM   20  C   UNL     1     -45.620 -53.420  13.450  1.00  0.00     0.007 C 
ENDBRANCH   4  14
TORSDOF 2
ENDMDL
MODEL 6
REMARK VINA RESULT:      -5.8      3.310      6.170
REMARK  2 active torsions:
REMARK  status: ('A' for Active; 'I' for Inactive)
REMARK    1  A    between atoms: C_4  and  N_5 
REMARK       I    between atoms: N_5  and  C_6 
REMARK       I    between atoms: C_6  and  N_8 
REMARK    2  A    between atoms: N_8  and  C_9 
ROOT
HETATM    1  N   UNL     1     -41.744 -53.852  12.972  1.00  0.00    -0.293 N 
HETATM    2  C   UNL     1     -41.041 -52.743  12.604  1.00  0.00     0.322 C 
HETATM    3  O   UNL     1     -39.817 -52.805  12.528  1.00  0.00    -0.247 OA
HETATM    4  N   UNL     1     -41.769 -51.637  12.256  1.00  0.00    -0.337 N 
HETATM    5  H   UNL     1     -41.175 -54.679  13.073  1.00  0.00     0.172 HD
HETATM    6  H   UNL     1     -42.762 -51.647  12.460  1.00  0.00     0.164 HD
ENDROOT
BRANCH   1   7
HETATM    7  C   UNL     1     -43.108 -53.972  13.105  1.00  0.00     0.132 A 
HETATM    8  C   UNL     1     -43.778 -54.193  14.330  1.00  0.00     0.084 A 
HETATM    9  C   UNL     1     -45.099 -54.315  13.979  1.00  0.00     0.076 A 
HETATM   10  C   UNL     1     -46.341 -54.621  14.707  1.00  0.00     0.079 C 
HETATM   11  O   UNL     1     -45.227 -54.121  12.642  1.00  0.00    -0.241 OA
HETATM   12  N   UNL     1     -43.981 -53.919  12.091  1.00  0.00    -0.245 N 
ATOM     13  HN  UNL     1     -43.765 -53.760  11.107  1.00  0.00     0.196 HD
ENDBRANCH   1   7
BRANCH   4  14
HETATM   14  C   UNL     1     -41.177 -50.462  11.720  1.00  0.00     0.095 A 
HETATM   15  C   UNL     1     -40.826 -49.333  12.649  1.00  0.00     0.015 A 
HETATM   16  C   UNL     1     -39.531 -48.618  12.436  1.00  0.00     0.007 C 
HETATM   17  C   UNL     1     -41.926 -49.158  11.634  1.00  0.00     0.015 A 
HETATM   18  C   UNL     1     -39.725 -47.179  11.951  1.00  0.00     0.000 C 
HETATM   19  C   UNL     1     -41.033 -46.904  11.195  1.00  0.00     0.000 C 
HETATM   20  C   UNL     1     -41.639 -48.154  10.558  1.00  0.00     0.007 C 
ENDBRANCH   4  14
TORSDOF 2
ENDMDL
MODEL 7
REMARK VINA RESULT:      -5.6      3.231      4.672
REMARK  2 active torsions:
REMARK  status: ('A' for Active; 'I' for Inactive)
REMARK    1  A    between atoms: C_4  and  N_5 
REMARK       I    between atoms: N_5  and  C_6 
REMARK       I    between atoms: C_6  and  N_8 
REMARK    2  A    between atoms: N_8  and  C_9 
ROOT
HETATM    1  N   UNL     1     -40.425 -52.057  12.130  1.00  0.00    -0.293 N 
HETATM    2  C   UNL     1     -41.555 -52.800  12.308  1.00  0.00     0.322 C 
HETATM    3  O   UNL     1     -41.454 -54.006  12.513  1.00  0.00    -0.247 OA
HETATM    4  N   UNL     1     -42.743 -52.122  12.330  1.00  0.00    -0.337 N 
HETATM    5  H   UNL     1     -39.570 -52.575  12.270  1.00  0.00     0.172 HD
HETATM    6  H   UNL     1     -42.734 -51.151  12.038  1.00  0.00     0.164 HD
ENDROOT
BRANCH   1   7
HETATM    7  C   UNL     1     -40.342 -50.704  11.896  1.00  0.00     0.132 A 
HETATM    8  C   UNL     1     -39.962 -49.746  12.863  1.00  0.00     0.084 A 
HETATM    9  C   UNL     1     -40.087 -48.541  12.218  1.00  0.00     0.076 A 
HETATM   10  C   UNL     1     -39.935 -47.132  12.614  1.00  0.00     0.079 C 
HETATM   11  O   UNL     1     -40.461 -48.760  10.931  1.00  0.00    -0.241 OA
HETATM   12  N   UNL     1     -40.632 -50.111  10.731  1.00  0.00    -0.245 N 
ATOM     13  HN  UNL     1     -40.922 -50.570   9.868  1.00  0.00     0.196 HD
ENDBRANCH   1   7
BRANCH   4  14
HETATM   14  C   UNL     1     -43.980 -52.745  12.645  1.00  0.00     0.095 A 
HETATM   15  C   UNL     1     -44.748 -52.276  13.850  1.00  0.00     0.015 A 
HETATM   16  C   UNL     1     -46.233 -52.148  13.736  1.00  0.00     0.007 C 
HETATM   17  C   UNL     1     -44.137 -53.653  13.837  1.00  0.00     0.015 A 
HETATM   18  C   UNL     1     -46.980 -53.183  14.582  1.00  0.00     0.000 C 
HETATM   19  C   UNL     1     -46.214 -54.482  14.870  1.00  0.00     0.000 C 
HETATM   20  C   UNL     1     -45.122 -54.782  13.844  1.00  0.00     0.007 C 
ENDBRANCH   4  14
TORSDOF 2
ENDMDL
MODEL 8
REMARK VINA RESULT:      -5.5      4.385      7.452
REMARK  2 active torsions:
REMARK  status: ('A' for Active; 'I' for Inactive)
REMARK    1  A    between atoms: C_4  and  N_5 
REMARK       I    between atoms: N_5  and  C_6 
REMARK       I    between atoms: C_6  and  N_8 
REMARK    2  A    between atoms: N_8  and  C_9 
ROOT
HETATM    1  N   UNL     1     -39.904 -52.796  13.375  1.00  0.00    -0.293 N 
HETATM    2  C   UNL     1     -41.213 -52.446  13.217  1.00  0.00     0.322 C 
HETATM    3  O   UNL     1     -41.499 -51.509  12.478  1.00  0.00    -0.247 OA
HETATM    4  N   UNL     1     -42.142 -53.234  13.841  1.00  0.00    -0.337 N 
HETATM    5  H   UNL     1     -39.271 -52.283  12.781  1.00  0.00     0.172 HD
HETATM    6  H   UNL     1     -41.805 -53.910  14.517  1.00  0.00     0.164 HD
ENDROOT
BRANCH   1   7
HETATM    7  C   UNL     1     -39.398 -53.813  14.151  1.00  0.00     0.132 A 
HETATM    8  C   UNL     1     -39.184 -53.727  15.546  1.00  0.00     0.084 A 
HETATM    9  C   UNL     1     -38.611 -54.929  15.878  1.00  0.00     0.076 A 
HETATM   10  C   UNL     1     -38.064 -55.509  17.115  1.00  0.00     0.079 C 
HETATM   11  O   UNL     1     -38.538 -55.711  14.771  1.00  0.00    -0.241 OA
HETATM   12  N   UNL     1     -39.019 -55.010  13.687  1.00  0.00    -0.245 N 
ATOM     13  HN  UNL     1     -39.075 -55.338  12.723  1.00  0.00     0.196 HD
ENDBRANCH   1   7
BRANCH   4  14
HETATM   14  C   UNL     1     -43.541 -53.072  13.650  1.00  0.00     0.095 A 
HETATM   15  C   UNL     1     -44.259 -51.984  14.399  1.00  0.00     0.015 A 
HETATM   16  C   UNL     1     -45.300 -51.194  13.674  1.00  0.00     0.007 C 
HETATM   17  C   UNL     1     -44.539 -53.430  14.719  1.00  0.00     0.015 A 
HETATM   18  C   UNL     1     -46.714 -51.467  14.191  1.00  0.00     0.000 C 
HETATM   19  C   UNL     1     -46.929 -52.841  14.845  1.00  0.00     0.000 C 
HETATM   20  C   UNL     1     -45.924 -53.895  14.381  1.00  0.00     0.007 C 
ENDBRANCH   4  14
TORSDOF 2
ENDMDL
MODEL 9
REMARK VINA RESULT:      -5.5      4.530      5.758
REMARK  2 active torsions:
REMARK  status: ('A' for Active; 'I' for Inactive)
REMARK    1  A    between atoms: C_4  and  N_5 
REMARK       I    between atoms: N_5  and  C_6 
REMARK       I    between atoms: C_6  and  N_8 
REMARK    2  A    between atoms: N_8  and  C_9 
ROOT
HETATM    1  N   UNL     1     -44.373 -52.133  12.747  1.00  0.00    -0.293 N 
HETATM    2  C   UNL     1     -43.243 -52.891  12.840  1.00  0.00     0.322 C 
HETATM    3  O   UNL     1     -42.342 -52.731  12.022  1.00  0.00    -0.247 OA
HETATM    4  N   UNL     1     -43.154 -53.737  13.913  1.00  0.00    -0.337 N 
HETATM    5  H   UNL     1     -44.328 -51.423  12.031  1.00  0.00     0.172 HD
HETATM    6  H   UNL     1     -43.991 -53.882  14.466  1.00  0.00     0.164 HD
ENDROOT
BRANCH   1   7
HETATM    7  C   UNL     1     -45.474 -52.169  13.569  1.00  0.00     0.132 A 
HETATM    8  C   UNL     1     -45.708 -51.270  14.635  1.00  0.00     0.084 A 
HETATM    9  C   UNL     1     -46.870 -51.720  15.212  1.00  0.00     0.076 A 
HETATM   10  C   UNL     1     -47.661 -51.329  16.390  1.00  0.00     0.079 C 
HETATM   11  O   UNL     1     -47.337 -52.782  14.508  1.00  0.00    -0.241 OA
HETATM   12  N   UNL     1     -46.460 -53.072  13.487  1.00  0.00    -0.245 N 
ATOM     13  HN  UNL     1     -46.543 -53.824  12.804  1.00  0.00     0.196 HD
ENDBRANCH   1   7
BRANCH   4  14
HETATM   14  C   UNL     1     -41.980 -54.480  14.212  1.00  0.00     0.095 A 
HETATM   15  C   UNL     1     -41.488 -54.525  15.632  1.00  0.00     0.015 A 
HETATM   16  C   UNL     1     -40.980 -55.827  16.163  1.00  0.00     0.007 C 
HETATM   17  C   UNL     1     -40.683 -53.809  14.580  1.00  0.00     0.015 A 
HETATM   18  C   UNL     1     -39.471 -55.810  16.420  1.00  0.00     0.000 C 
HETATM   19  C   UNL     1     -38.665 -54.815  15.574  1.00  0.00     0.000 C 
HETATM   20  C   UNL     1     -39.356 -54.433  14.265  1.00  0.00     0.007 C 
ENDBRANCH   4  14
TORSDOF 2
ENDMDL
