MODEL 1
REMARK VINA RESULT:      -6.2      0.000      0.000
REMARK  3 active torsions:
REMARK  status: ('A' for Active; 'I' for Inactive)
REMARK       I    between atoms: N_2  and  C_3 
REMARK    1  A    between atoms: C_3  and  C_5 
REMARK    2  A    between atoms: C_5  and  C_6 
REMARK    3  A    between atoms: C_10  and  C_13 
ROOT
HETATM    1  C   UNL     1     -40.793 -50.118  11.564  1.00  0.00     0.112 A 
HETATM    2  N   UNL     1     -39.668 -50.816  11.763  1.00  0.00    -0.247 N 
ATOM      3  HN  UNL     1     -38.704 -50.517  11.614  1.00  0.00     0.196 HD
HETATM    4  O   UNL     1     -40.129 -52.048  12.219  1.00  0.00    -0.222 OA
HETATM    5  C   UNL     1     -41.492 -51.966  12.258  1.00  0.00     0.152 A 
HETATM    6  N   UNL     1     -41.954 -50.801  11.857  1.00  0.00    -0.326 N 
ATOM      7  HN  UNL     1     -42.921 -50.485  11.782  1.00  0.00     0.169 HD
ENDROOT
BRANCH   5   8
HETATM    8  C   UNL     1     -42.213 -53.190  12.735  1.00  0.00     0.063 C 
HETATM    9  C   UNL     1     -43.732 -52.972  12.651  1.00  0.00     0.013 C 
HETATM   10  C   UNL     1     -44.521 -54.278  12.734  1.00  0.00     0.001 C 
HETATM   11  C   UNL     1     -44.872 -54.731  14.147  1.00  0.00     0.000 C 
HETATM   12  C   UNL     1     -43.794 -54.563  15.214  1.00  0.00     0.000 C 
HETATM   13  C   UNL     1     -42.369 -54.824  14.739  1.00  0.00     0.001 C 
HETATM   14  C   UNL     1     -41.706 -53.586  14.130  1.00  0.00     0.013 C 
ENDBRANCH   5   8
BRANCH   1  15
HETATM   15  C   UNL     1     -40.788 -48.710  11.110  1.00  0.00     0.181 C 
BRANCH  15  16
HETATM   16  C   UNL     1     -42.163 -48.255  10.680  1.00  0.00     0.224 C 
HETATM   17  N   UNL     1     -42.308 -48.045   9.323  1.00  0.00    -0.365 N 
HETATM   18  C   UNL     1     -43.560 -47.575   8.782  1.00  0.00     0.149 C 
HETATM   19  H   UNL     1     -41.472 -47.972   8.751  1.00  0.00     0.161 HD
HETATM   20  O   UNL     1     -43.099 -48.157  11.471  1.00  0.00    -0.273 OA
ENDBRANCH  15  16
ENDBRANCH   1  15
TORSDOF 3
ENDMDL
MODEL 2
REMARK VINA RESULT:      -6.2      4.533      5.382
REMARK  3 active torsions:
REMARK  status: ('A' for Active; 'I' for Inactive)
REMARK       I    between atoms: N_2  and  C_3 
REMARK    1  A    between atoms: C_3  and  C_5 
REMARK    2  A    between atoms: C_5  and  C_6 
REMARK    3  A    between atoms: C_10  and  C_13 
ROOT
HETATM    1  C   UNL     1     -42.243 -47.330  10.192  1.00  0.00     0.112 A 
HETATM    2  N   UNL     1     -42.706 -48.489  10.675  1.00  0.00    -0.247 N 
ATOM      3  HN  UNL     1     -43.644 -48.882  10.585  1.00  0.00     0.196 HD
HETATM    4  O   UNL     1     -41.603 -49.030  11.330  1.00  0.00    -0.222 OA
HETATM    5  C   UNL     1     -40.578 -48.143  11.168  1.00  0.00     0.152 A 
HETATM    6  N   UNL     1     -40.919 -47.073  10.481  1.00  0.00    -0.326 N 
ATOM      7  HN  UNL     1     -40.352 -46.264  10.229  1.00  0.00     0.169 HD
ENDROOT
BRANCH   5   8
HETATM    8  C   UNL     1     -39.269 -48.526  11.790  1.00  0.00     0.063 C 
HETATM    9  C   UNL     1     -39.014 -50.029  11.597  1.00  0.00     0.013 C 
HETATM   10  C   UNL     1     -37.556 -50.414  11.839  1.00  0.00     0.001 C 
HETATM   11  C   UNL     1     -37.209 -50.751  13.286  1.00  0.00     0.000 C 
HETATM   12  C   UNL     1     -37.828 -49.871  14.367  1.00  0.00     0.000 C 
HETATM   13  C   UNL     1     -37.941 -48.392  14.010  1.00  0.00     0.001 C 
HETATM   14  C   UNL     1     -39.229 -48.058  13.252  1.00  0.00     0.013 C 
ENDBRANCH   5   8
BRANCH   1  15
HETATM   15  C   UNL     1     -43.072 -46.419   9.373  1.00  0.00     0.181 C 
BRANCH  15  16
HETATM   16  C   UNL     1     -44.334 -47.095   8.888  1.00  0.00     0.224 C 
HETATM   17  N   UNL     1     -45.505 -46.591   9.420  1.00  0.00    -0.365 N 
HETATM   18  C   UNL     1     -46.780 -47.168   9.069  1.00  0.00     0.149 C 
HETATM   19  H   UNL     1     -45.448 -45.998  10.243  1.00  0.00     0.161 HD
HETATM   20  O   UNL     1     -44.320 -47.971   8.026  1.00  0.00    -0.273 OA
ENDBRANCH  15  16
ENDBRANCH   1  15
TORSDOF 3
ENDMDL
MODEL 3
REMARK VINA RESULT:      -6.0      1.339      1.836
REMARK  3 active torsions:
REMARK  status: ('A' for Active; 'I' for Inactive)
REMARK       I    between atoms: N_2  and  C_3 
REMARK    1  A    between atoms: C_3  and  C_5 
REMARK    2  A    between atoms: C_5  and  C_6 
REMARK    3  A    between atoms: C_10  and  C_13 
ROOT
HETATM    1  C   UNL     1     -41.558 -49.810  11.497  1.00  0.00     0.112 A 
HETATM    2  N   UNL     1     -40.796 -50.899  11.341  1.00  0.00    -0.247 N 
ATOM      3  HN  UNL     1     -39.940 -50.999  10.794  1.00  0.00     0.196 HD
HETATM    4  O   UNL     1     -41.450 -51.863  12.104  1.00  0.00    -0.222 OA
HETATM    5  C   UNL     1     -42.542 -51.253  12.652  1.00  0.00     0.152 A 
HETATM    6  N   UNL     1     -42.661 -49.989  12.305  1.00  0.00    -0.326 N 
ATOM      7  HN  UNL     1     -43.383 -49.317  12.565  1.00  0.00     0.169 HD
ENDROOT
BRANCH   5   8
HETATM    8  C   UNL     1     -43.403 -52.108  13.533  1.00  0.00     0.063 C 
HETATM    9  C   UNL     1     -43.638 -53.475  12.872  1.00  0.00     0.013 C 
HETATM   10  C   UNL     1     -44.155 -54.523  13.856  1.00  0.00     0.001 C 
HETATM   11  C   UNL     1     -45.672 -54.568  14.012  1.00  0.00     0.000 C 
HETATM   12  C   UNL     1     -46.402 -53.230  14.058  1.00  0.00     0.000 C 
HETATM   13  C   UNL     1     -45.664 -52.117  14.796  1.00  0.00     0.001 C 
HETATM   14  C   UNL     1     -44.689 -51.351  13.899  1.00  0.00     0.013 C 
ENDBRANCH   5   8
BRANCH   1  15
HETATM   15  C   UNL     1     -41.219 -48.505  10.888  1.00  0.00     0.181 C 
BRANCH  15  16
HETATM   16  C   UNL     1     -42.430 -47.840  10.275  1.00  0.00     0.224 C 
HETATM   17  N   UNL     1     -42.627 -48.112   8.936  1.00  0.00    -0.365 N 
HETATM   18  C   UNL     1     -43.726 -47.514   8.218  1.00  0.00     0.149 C 
HETATM   19  H   UNL     1     -41.861 -48.518   8.405  1.00  0.00     0.161 HD
HETATM   20  O   UNL     1     -43.220 -47.174  10.941  1.00  0.00    -0.273 OA
ENDBRANCH  15  16
ENDBRANCH   1  15
TORSDOF 3
ENDMDL
MODEL 4
REMARK VINA RESULT:      -5.9      1.603      2.097
REMARK  3 active torsions:
REMARK  status: ('A' for Active; 'I' for Inactive)
REMARK       I    between atoms: N_2  and  C_3 
REMARK    1  A    between atoms: C_3  and  C_5 
REMARK    2  A    between atoms: C_5  and  C_6 
REMARK    3  A    between atoms: C_10  and  C_13 
ROOT
HETATM    1  C   UNL     1     -41.051 -51.205  11.862  1.00  0.00     0.112 A 
HETATM    2  N   UNL     1     -40.589 -52.439  12.096  1.00  0.00    -0.247 N 
ATOM      3  HN  UNL     1     -39.626 -52.774  12.048  1.00  0.00     0.196 HD
HETATM    4  O   UNL     1     -41.737 -53.158  12.420  1.00  0.00    -0.222 OA
HETATM    5  C   UNL     1     -42.780 -52.279  12.357  1.00  0.00     0.152 A 
HETATM    6  N   UNL     1     -42.415 -51.063  12.010  1.00  0.00    -0.326 N 
ATOM      7  HN  UNL     1     -42.991 -50.231  11.882  1.00  0.00     0.169 HD
ENDROOT
BRANCH   5   8
HETATM    8  C   UNL     1     -44.133 -52.835  12.681  1.00  0.00     0.063 C 
HETATM    9  C   UNL     1     -44.939 -51.815  13.501  1.00  0.00     0.013 C 
HETATM   10  C   UNL     1     -46.433 -52.130  13.528  1.00  0.00     0.001 C 
HETATM   11  C   UNL     1     -46.874 -53.069  14.647  1.00  0.00     0.000 C 
HETATM   12  C   UNL     1     -45.963 -54.253  14.955  1.00  0.00     0.000 C 
HETATM   13  C   UNL     1     -45.301 -54.891  13.738  1.00  0.00     0.001 C 
HETATM   14  C   UNL     1     -43.986 -54.211  13.349  1.00  0.00     0.013 C 
ENDBRANCH   5   8
BRANCH   1  15
HETATM   15  C   UNL     1     -40.163 -50.073  11.518  1.00  0.00     0.181 C 
BRANCH  15  16
HETATM   16  C   UNL     1     -40.870 -48.744  11.654  1.00  0.00     0.224 C 
HETATM   17  N   UNL     1     -41.049 -48.056  10.470  1.00  0.00    -0.365 N 
HETATM   18  C   UNL     1     -41.678 -46.759  10.462  1.00  0.00     0.149 C 
HETATM   19  H   UNL     1     -40.512 -48.343   9.656  1.00  0.00     0.161 HD
HETATM   20  O   UNL     1     -41.320 -48.348  12.727  1.00  0.00    -0.273 OA
ENDBRANCH  15  16
ENDBRANCH   1  15
TORSDOF 3
ENDMDL
MODEL 5
REMARK VINA RESULT:      -5.8      2.565      3.589
REMARK  3 active torsions:
REMARK  status: ('A' for Active; 'I' for Inactive)
REMARK       I    between atoms: N_2  and  C_3 
REMARK    1  A    between atoms: C_3  and  C_5 
REMARK    2  A    between atoms: C_5  and  C_6 
REMARK    3  A    between atoms: C_10  and  C_13 
ROOT
HETATM    1  C   UNL     1     -41.032 -51.302  11.915  1.00  0.00     0.112 A 
HETATM    2  N   UNL     1     -40.642 -52.576  12.040  1.00  0.00    -0.247 N 
ATOM      3  HN  UNL     1     -39.704 -52.964  11.932  1.00  0.00     0.196 HD
HETATM    4  O   UNL     1     -41.821 -53.246  12.354  1.00  0.00    -0.222 OA
HETATM    5  C   UNL     1     -42.808 -52.302  12.395  1.00  0.00     0.152 A 
HETATM    6  N   UNL     1     -42.378 -51.088  12.124  1.00  0.00    -0.326 N 
ATOM      7  HN  UNL     1     -42.904 -50.216  12.079  1.00  0.00     0.169 HD
ENDROOT
BRANCH   5   8
HETATM    8  C   UNL     1     -44.182 -52.798  12.729  1.00  0.00     0.063 C 
HETATM    9  C   UNL     1     -44.923 -51.758  13.585  1.00  0.00     0.013 C 
HETATM   10  C   UNL     1     -46.431 -51.999  13.629  1.00  0.00     0.001 C 
HETATM   11  C   UNL     1     -46.902 -52.941  14.733  1.00  0.00     0.000 C 
HETATM   12  C   UNL     1     -46.047 -54.176  14.999  1.00  0.00     0.000 C 
HETATM   13  C   UNL     1     -45.436 -54.818  13.757  1.00  0.00     0.001 C 
HETATM   14  C   UNL     1     -44.095 -54.194  13.362  1.00  0.00     0.013 C 
ENDBRANCH   5   8
BRANCH   1  15
HETATM   15  C   UNL     1     -40.085 -50.204  11.621  1.00  0.00     0.181 C 
BRANCH  15  16
HETATM   16  C   UNL     1     -38.828 -50.310  12.454  1.00  0.00     0.224 C 
HETATM   17  N   UNL     1     -38.739 -49.403  13.491  1.00  0.00    -0.365 N 
HETATM   18  C   UNL     1     -37.575 -49.371  14.342  1.00  0.00     0.149 C 
HETATM   19  H   UNL     1     -39.364 -48.602  13.491  1.00  0.00     0.161 HD
HETATM   20  O   UNL     1     -37.989 -51.189  12.266  1.00  0.00    -0.273 OA
ENDBRANCH  15  16
ENDBRANCH   1  15
TORSDOF 3
ENDMDL
MODEL 6
REMARK VINA RESULT:      -5.5      5.989      9.261
REMARK  3 active torsions:
REMARK  status: ('A' for Active; 'I' for Inactive)
REMARK       I    between atoms: N_2  and  C_3 
REMARK    1  A    between atoms: C_3  and  C_5 
REMARK    2  A    between atoms: C_5  and  C_6 
REMARK    3  A    between atoms: C_10  and  C_13 
ROOT
HETATM    1  C   UNL     1     -42.462 -46.246  10.289  1.00  0.00     0.112 A 
HETATM    2  N   UNL     1     -41.222 -45.953   9.876  1.00  0.00    -0.247 N 
ATOM      3  HN  UNL     1     -40.599 -46.517   9.297  1.00  0.00     0.196 HD
HETATM    4  O   UNL     1     -40.988 -44.696  10.427  1.00  0.00    -0.222 OA
HETATM    5  C   UNL     1     -42.117 -44.352  11.113  1.00  0.00     0.152 A 
HETATM    6  N   UNL     1     -43.054 -45.275  11.068  1.00  0.00    -0.326 N 
ATOM      7  HN  UNL     1     -43.979 -45.272  11.498  1.00  0.00     0.169 HD
ENDROOT
BRANCH   5   8
HETATM    8  C   UNL     1     -42.097 -43.015  11.789  1.00  0.00     0.063 C 
HETATM    9  C   UNL     1     -43.290 -42.168  11.318  1.00  0.00     0.013 C 
HETATM   10  C   UNL     1     -43.566 -40.977  12.234  1.00  0.00     0.001 C 
HETATM   11  C   UNL     1     -42.793 -39.707  11.892  1.00  0.00     0.000 C 
HETATM   12  C   UNL     1     -41.334 -39.876  11.481  1.00  0.00     0.000 C 
HETATM   13  C   UNL     1     -40.574 -40.966  12.230  1.00  0.00     0.001 C 
HETATM   14  C   UNL     1     -40.728 -42.348  11.590  1.00  0.00     0.013 C 
ENDBRANCH   5   8
BRANCH   1  15
HETATM   15  C   UNL     1     -43.157 -47.493   9.903  1.00  0.00     0.181 C 
BRANCH  15  16
HETATM   16  C   UNL     1     -44.512 -47.214   9.295  1.00  0.00     0.224 C 
HETATM   17  N   UNL     1     -45.446 -48.215   9.472  1.00  0.00    -0.365 N 
HETATM   18  C   UNL     1     -46.770 -48.093   8.912  1.00  0.00     0.149 C 
HETATM   19  H   UNL     1     -45.125 -49.133   9.766  1.00  0.00     0.161 HD
HETATM   20  O   UNL     1     -44.781 -46.143   8.754  1.00  0.00    -0.273 OA
ENDBRANCH  15  16
ENDBRANCH   1  15
TORSDOF 3
ENDMDL
MODEL 7
REMARK VINA RESULT:      -5.3      3.155      5.849
REMARK  3 active torsions:
REMARK  status: ('A' for Active; 'I' for Inactive)
REMARK       I    between atoms: N_2  and  C_3 
REMARK    1  A    between atoms: C_3  and  C_5 
REMARK    2  A    between atoms: C_5  and  C_6 
REMARK    3  A    between atoms: C_10  and  C_13 
ROOT
HETATM    1  C   UNL     1     -42.608 -53.157  12.876  1.00  0.00     0.112 A 
HETATM    2  N   UNL     1     -42.493 -52.641  11.646  1.00  0.00    -0.247 N 
ATOM      3  HN  UNL     1     -43.151 -52.706  10.869  1.00  0.00     0.196 HD
HETATM    4  O   UNL     1     -41.261 -51.993  11.682  1.00  0.00    -0.222 OA
HETATM    5  C   UNL     1     -40.758 -52.178  12.937  1.00  0.00     0.152 A 
HETATM    6  N   UNL     1     -41.543 -52.895  13.712  1.00  0.00    -0.326 N 
ATOM      7  HN  UNL     1     -41.401 -53.184  14.680  1.00  0.00     0.169 HD
ENDROOT
BRANCH   5   8
HETATM    8  C   UNL     1     -39.424 -51.551  13.213  1.00  0.00     0.063 C 
HETATM    9  C   UNL     1     -39.379 -51.024  14.656  1.00  0.00     0.013 C 
HETATM   10  C   UNL     1     -37.956 -50.740  15.134  1.00  0.00     0.001 C 
HETATM   11  C   UNL     1     -37.439 -49.339  14.825  1.00  0.00     0.000 C 
HETATM   12  C   UNL     1     -37.782 -48.763  13.455  1.00  0.00     0.000 C 
HETATM   13  C   UNL     1     -37.773 -49.771  12.310  1.00  0.00     0.001 C 
HETATM   14  C   UNL     1     -39.112 -50.495  12.142  1.00  0.00     0.013 C 
ENDBRANCH   5   8
BRANCH   1  15
HETATM   15  C   UNL     1     -43.802 -53.911  13.316  1.00  0.00     0.181 C 
BRANCH  15  16
HETATM   16  C   UNL     1     -45.069 -53.106  13.137  1.00  0.00     0.224 C 
HETATM   17  N   UNL     1     -45.400 -52.296  14.205  1.00  0.00    -0.365 N 
HETATM   18  C   UNL     1     -46.603 -51.501  14.180  1.00  0.00     0.149 C 
HETATM   19  H   UNL     1     -44.940 -52.457  15.097  1.00  0.00     0.161 HD
HETATM   20  O   UNL     1     -45.710 -53.116  12.088  1.00  0.00    -0.273 OA
ENDBRANCH  15  16
ENDBRANCH   1  15
TORSDOF 3
ENDMDL
MODEL 8
REMARK VINA RESULT:      -5.2      3.066      6.259
REMARK  3 active torsions:
REMARK  status: ('A' for Active; 'I' for Inactive)
REMARK       I    between atoms: N_2  and  C_3 
REMARK    1  A    between atoms: C_3  and  C_5 
REMARK    2  A    between atoms: C_5  and  C_6 
REMARK    3  A    between atoms: C_10  and  C_13 
ROOT
HETATM    1  C   UNL     1     -42.697 -53.914  13.841  1.00  0.00     0.112 A 
HETATM    2  N   UNL     1     -42.792 -53.813  12.509  1.00  0.00    -0.247 N 
ATOM      3  HN  UNL     1     -43.408 -54.326  11.878  1.00  0.00     0.196 HD
HETATM    4  O   UNL     1     -41.848 -52.840  12.192  1.00  0.00    -0.222 OA
HETATM    5  C   UNL     1     -41.282 -52.444  13.369  1.00  0.00     0.152 A 
HETATM    6  N   UNL     1     -41.763 -53.080  14.417  1.00  0.00    -0.326 N 
ATOM      7  HN  UNL     1     -41.509 -52.982  15.400  1.00  0.00     0.169 HD
ENDROOT
BRANCH   5   8
HETATM    8  C   UNL     1     -40.230 -51.381  13.272  1.00  0.00     0.063 C 
HETATM    9  C   UNL     1     -40.243 -50.754  11.869  1.00  0.00     0.013 C 
HETATM   10  C   UNL     1     -39.495 -49.423  11.813  1.00  0.00     0.001 C 
HETATM   11  C   UNL     1     -38.002 -49.534  11.524  1.00  0.00     0.000 C 
HETATM   12  C   UNL     1     -37.247 -50.664  12.216  1.00  0.00     0.000 C 
HETATM   13  C   UNL     1     -37.700 -50.966  13.641  1.00  0.00     0.001 C 
HETATM   14  C   UNL     1     -38.869 -51.952  13.699  1.00  0.00     0.013 C 
ENDBRANCH   5   8
BRANCH   1  15
HETATM   15  C   UNL     1     -43.559 -54.816  14.635  1.00  0.00     0.181 C 
BRANCH  15  16
HETATM   16  C   UNL     1     -45.023 -54.626  14.307  1.00  0.00     0.224 C 
HETATM   17  N   UNL     1     -45.633 -53.573  14.960  1.00  0.00    -0.365 N 
HETATM   18  C   UNL     1     -47.036 -53.301  14.765  1.00  0.00     0.149 C 
HETATM   19  H   UNL     1     -45.163 -53.162  15.762  1.00  0.00     0.161 HD
HETATM   20  O   UNL     1     -45.600 -55.308  13.463  1.00  0.00    -0.273 OA
ENDBRANCH  15  16
ENDBRANCH   1  15
TORSDOF 3
ENDMDL
MODEL 9
REMARK VINA RESULT:      -4.9     13.865     14.952
REMARK  3 active torsions:
REMARK  status: ('A' for Active; 'I' for Inactive)
REMARK       I    between atoms: N_2  and  C_3 
REMARK    1  A    between atoms: C_3  and  C_5 
REMARK    2  A    between atoms: C_5  and  C_6 
REMARK    3  A    between atoms: C_10  and  C_13 
ROOT
HETATM    1  C   UNL     1     -50.434 -48.538   0.624  1.00  0.00     0.112 A 
HETATM    2  N   UNL     1     -49.995 -49.010   1.797  1.00  0.00    -0.247 N 
ATOM      3  HN  UNL     1     -49.804 -48.492   2.655  1.00  0.00     0.196 HD
HETATM    4  O   UNL     1     -49.862 -50.376   1.566  1.00  0.00    -0.222 OA
HETATM    5  C   UNL     1     -50.244 -50.594   0.273  1.00  0.00     0.152 A 
HETATM    6  N   UNL     1     -50.598 -49.493  -0.356  1.00  0.00    -0.326 N 
ATOM      7  HN  UNL     1     -50.912 -49.377  -1.320  1.00  0.00     0.169 HD
ENDROOT
BRANCH   5   8
HETATM    8  C   UNL     1     -50.191 -52.014  -0.201  1.00  0.00     0.063 C 
HETATM    9  C   UNL     1     -49.010 -52.204  -1.166  1.00  0.00     0.013 C 
HETATM   10  C   UNL     1     -48.651 -53.674  -1.375  1.00  0.00     0.001 C 
HETATM   11  C   UNL     1     -49.413 -54.370  -2.499  1.00  0.00     0.000 C 
HETATM   12  C   UNL     1     -50.897 -54.047  -2.629  1.00  0.00     0.000 C 
HETATM   13  C   UNL     1     -51.636 -53.858  -1.308  1.00  0.00     0.001 C 
HETATM   14  C   UNL     1     -51.554 -52.423  -0.780  1.00  0.00     0.013 C 
ENDBRANCH   5   8
BRANCH   1  15
HETATM   15  C   UNL     1     -50.760 -47.111   0.410  1.00  0.00     0.181 C 
BRANCH  15  16
HETATM   16  C   UNL     1     -50.635 -46.311   1.687  1.00  0.00     0.224 C 
HETATM   17  N   UNL     1     -49.535 -45.479   1.746  1.00  0.00    -0.365 N 
HETATM   18  C   UNL     1     -49.276 -44.685   2.923  1.00  0.00     0.149 C 
HETATM   19  H   UNL     1     -48.782 -45.621   1.079  1.00  0.00     0.161 HD
HETATM   20  O   UNL     1     -51.492 -46.342   2.568  1.00  0.00    -0.273 OA
ENDBRANCH  15  16
ENDBRANCH   1  15
TORSDOF 3
ENDMDL
