MODEL 1
REMARK VINA RESULT:      -5.6      0.000      0.000
REMARK  5 active torsions:
REMARK  status: ('A' for Active; 'I' for Inactive)
REMARK    1  A    between atoms: N_6  and  C_7 
REMARK    2  A    between atoms: C_7  and  C_8 
REMARK    3  A    between atoms: C_8  and  N_9 
REMARK    4  A    between atoms: N_9  and  C_10 
REMARK    5  A    between atoms: C_10  and  C_11 
ROOT
HETATM    1  C   UNL     1     -41.948 -49.055  11.996  1.00  0.00     0.291 C 
ENDROOT
BRANCH   1   2
HETATM    2  C   UNL     1     -41.668 -48.095  10.832  1.00  0.00     0.178 C 
BRANCH   2   3
HETATM    3  N   UNL     1     -42.817 -47.883   9.974  1.00  0.00    -0.302 N 
HETATM    4  N   UNL     1     -42.686 -47.963   8.637  1.00  0.00    -0.310 N 
HETATM    5  C   UNL     1     -43.898 -47.642   8.181  1.00  0.00     0.115 A 
ATOM      6  HN  UNL     1     -41.855 -48.211   8.098  1.00  0.00     0.186 HD
HETATM    7  C   UNL     1     -44.818 -47.375   9.220  1.00  0.00    -0.028 A 
HETATM    8  C   UNL     1     -46.241 -46.989   9.105  1.00  0.00     0.051 C 
HETATM    9  C   UNL     1     -44.081 -47.554  10.371  1.00  0.00     0.118 A 
ENDBRANCH   2   3
ENDBRANCH   1   2
BRANCH   1  10
HETATM   10  N   UNL     1     -42.052 -50.481  11.675  1.00  0.00     0.085 N 
HETATM   11  H   UNL     1     -41.315 -50.724  11.009  1.00  0.00     0.315 HD
BRANCH  10  12
HETATM   12  C   UNL     1     -42.008 -51.386  12.823  1.00  0.00     0.274 C 
BRANCH  12  13
HETATM   13  C   UNL     1     -42.295 -52.826  12.336  1.00  0.00     0.014 C 
HETATM   14  C   UNL     1     -43.779 -53.214  12.482  1.00  0.00     0.006 C 
HETATM   15  C   UNL     1     -44.168 -53.495  13.930  1.00  0.00     0.000 C 
HETATM   16  C   UNL     1     -43.306 -54.611  14.504  1.00  0.00     0.000 C 
HETATM   17  C   UNL     1     -41.823 -54.262  14.427  1.00  0.00     0.000 C 
HETATM   18  C   UNL     1     -41.389 -53.867  13.017  1.00  0.00     0.006 C 
ENDBRANCH  12  13
ENDBRANCH  10  12
ENDBRANCH   1  10
TORSDOF 5
ENDMDL
MODEL 2
REMARK VINA RESULT:      -5.5      1.982      2.414
REMARK  5 active torsions:
REMARK  status: ('A' for Active; 'I' for Inactive)
REMARK    1  A    between atoms: N_6  and  C_7 
REMARK    2  A    between atoms: C_7  and  C_8 
REMARK    3  A    between atoms: C_8  and  N_9 
REMARK    4  A    between atoms: N_9  and  C_10 
REMARK    5  A    between atoms: C_10  and  C_11 
ROOT
HETATM    1  C   UNL     1     -43.113 -49.025  12.613  1.00  0.00     0.291 C 
ENDROOT
BRANCH   1   2
HETATM    2  C   UNL     1     -42.339 -48.531  11.383  1.00  0.00     0.178 C 
BRANCH   2   3
HETATM    3  N   UNL     1     -43.197 -48.032  10.327  1.00  0.00    -0.302 N 
HETATM    4  N   UNL     1     -42.695 -47.805   9.099  1.00  0.00    -0.310 N 
HETATM    5  C   UNL     1     -43.727 -47.291   8.426  1.00  0.00     0.115 A 
ATOM      6  HN  UNL     1     -41.749 -47.983   8.762  1.00  0.00     0.186 HD
HETATM    7  C   UNL     1     -44.900 -47.205   9.210  1.00  0.00    -0.028 A 
HETATM    8  C   UNL     1     -46.229 -46.691   8.814  1.00  0.00     0.051 C 
HETATM    9  C   UNL     1     -44.519 -47.708  10.435  1.00  0.00     0.118 A 
ENDBRANCH   2   3
ENDBRANCH   1   2
BRANCH   1  10
HETATM   10  N   UNL     1     -43.307 -50.472  12.741  1.00  0.00     0.085 N 
HETATM   11  H   UNL     1     -42.393 -50.921  12.838  1.00  0.00     0.315 HD
BRANCH  10  12
HETATM   12  C   UNL     1     -44.189 -50.891  13.831  1.00  0.00     0.274 C 
BRANCH  12  13
HETATM   13  C   UNL     1     -45.528 -51.379  13.232  1.00  0.00     0.014 C 
HETATM   14  C   UNL     1     -46.686 -51.318  14.246  1.00  0.00     0.006 C 
HETATM   15  C   UNL     1     -46.608 -52.429  15.288  1.00  0.00     0.000 C 
HETATM   16  C   UNL     1     -46.615 -53.792  14.611  1.00  0.00     0.000 C 
HETATM   17  C   UNL     1     -45.459 -53.928  13.625  1.00  0.00     0.000 C 
HETATM   18  C   UNL     1     -45.418 -52.784  12.613  1.00  0.00     0.006 C 
ENDBRANCH  12  13
ENDBRANCH  10  12
ENDBRANCH   1  10
TORSDOF 5
ENDMDL
MODEL 3
REMARK VINA RESULT:      -5.4      2.257      3.343
REMARK  5 active torsions:
REMARK  status: ('A' for Active; 'I' for Inactive)
REMARK    1  A    between atoms: N_6  and  C_7 
REMARK    2  A    between atoms: C_7  and  C_8 
REMARK    3  A    between atoms: C_8  and  N_9 
REMARK    4  A    between atoms: N_9  and  C_10 
REMARK    5  A    between atoms: C_10  and  C_11 
ROOT
HETATM    1  C   UNL     1     -41.278 -52.548  11.854  1.00  0.00     0.291 C 
ENDROOT
BRANCH   1   2
HETATM    2  C   UNL     1     -40.635 -51.271  12.412  1.00  0.00     0.178 C 
BRANCH   2   3
HETATM    3  N   UNL     1     -41.203 -50.055  11.864  1.00  0.00    -0.302 N 
HETATM    4  N   UNL     1     -40.821 -49.618  10.650  1.00  0.00    -0.310 N 
HETATM    5  C   UNL     1     -41.475 -48.463  10.509  1.00  0.00     0.115 A 
ATOM      6  HN  UNL     1     -40.182 -50.064   9.992  1.00  0.00     0.186 HD
HETATM    7  C   UNL     1     -42.295 -48.163  11.621  1.00  0.00    -0.028 A 
HETATM    8  C   UNL     1     -43.160 -46.981  11.827  1.00  0.00     0.051 C 
HETATM    9  C   UNL     1     -42.102 -49.228  12.474  1.00  0.00     0.118 A 
ENDBRANCH   2   3
ENDBRANCH   1   2
BRANCH   1  10
HETATM   10  N   UNL     1     -42.739 -52.566  11.743  1.00  0.00     0.085 N 
HETATM   11  H   UNL     1     -43.009 -53.253  11.035  1.00  0.00     0.315 HD
BRANCH  10  12
HETATM   12  C   UNL     1     -43.458 -52.823  12.991  1.00  0.00     0.274 C 
BRANCH  12  13
HETATM   13  C   UNL     1     -44.857 -53.392  12.654  1.00  0.00     0.014 C 
HETATM   14  C   UNL     1     -45.922 -52.289  12.505  1.00  0.00     0.006 C 
HETATM   15  C   UNL     1     -46.348 -51.705  13.848  1.00  0.00     0.000 C 
HETATM   16  C   UNL     1     -46.893 -52.799  14.753  1.00  0.00     0.000 C 
HETATM   17  C   UNL     1     -45.862 -53.901  14.975  1.00  0.00     0.000 C 
HETATM   18  C   UNL     1     -45.315 -54.460  13.663  1.00  0.00     0.006 C 
ENDBRANCH  12  13
ENDBRANCH  10  12
ENDBRANCH   1  10
TORSDOF 5
ENDMDL
MODEL 4
REMARK VINA RESULT:      -5.4      4.250      6.610
REMARK  5 active torsions:
REMARK  status: ('A' for Active; 'I' for Inactive)
REMARK    1  A    between atoms: N_6  and  C_7 
REMARK    2  A    between atoms: C_7  and  C_8 
REMARK    3  A    between atoms: C_8  and  N_9 
REMARK    4  A    between atoms: N_9  and  C_10 
REMARK    5  A    between atoms: C_10  and  C_11 
ROOT
HETATM    1  C   UNL     1     -45.097 -54.388  13.480  1.00  0.00     0.291 C 
ENDROOT
BRANCH   1   2
HETATM    2  C   UNL     1     -44.437 -53.504  12.412  1.00  0.00     0.178 C 
BRANCH   2   3
HETATM    3  N   UNL     1     -43.000 -53.395  12.565  1.00  0.00    -0.302 N 
HETATM    4  N   UNL     1     -42.301 -52.546  11.789  1.00  0.00    -0.310 N 
HETATM    5  C   UNL     1     -41.033 -52.764  12.146  1.00  0.00     0.115 A 
ATOM      6  HN  UNL     1     -42.656 -51.890  11.094  1.00  0.00     0.186 HD
HETATM    7  C   UNL     1     -40.913 -53.736  13.164  1.00  0.00    -0.028 A 
HETATM    8  C   UNL     1     -39.680 -54.240  13.808  1.00  0.00     0.051 C 
HETATM    9  C   UNL     1     -42.214 -54.114  13.419  1.00  0.00     0.118 A 
ENDBRANCH   2   3
ENDBRANCH   1   2
BRANCH   1  10
HETATM   10  N   UNL     1     -46.432 -53.994  13.939  1.00  0.00     0.085 N 
HETATM   11  H   UNL     1     -47.051 -54.807  13.891  1.00  0.00     0.315 HD
BRANCH  10  12
HETATM   12  C   UNL     1     -46.484 -53.404  15.277  1.00  0.00     0.274 C 
BRANCH  12  13
HETATM   13  C   UNL     1     -46.907 -51.921  15.152  1.00  0.00     0.014 C 
HETATM   14  C   UNL     1     -45.724 -50.997  14.804  1.00  0.00     0.006 C 
HETATM   15  C   UNL     1     -44.799 -50.761  15.993  1.00  0.00     0.000 C 
HETATM   16  C   UNL     1     -45.573 -50.156  17.155  1.00  0.00     0.000 C 
HETATM   17  C   UNL     1     -46.733 -51.052  17.575  1.00  0.00     0.000 C 
HETATM   18  C   UNL     1     -47.645 -51.414  16.404  1.00  0.00     0.006 C 
ENDBRANCH  12  13
ENDBRANCH  10  12
ENDBRANCH   1  10
TORSDOF 5
ENDMDL
MODEL 5
REMARK VINA RESULT:      -5.3      3.452      4.897
REMARK  5 active torsions:
REMARK  status: ('A' for Active; 'I' for Inactive)
REMARK    1  A    between atoms: N_6  and  C_7 
REMARK    2  A    between atoms: C_7  and  C_8 
REMARK    3  A    between atoms: C_8  and  N_9 
REMARK    4  A    between atoms: N_9  and  C_10 
REMARK    5  A    between atoms: C_10  and  C_11 
ROOT
HETATM    1  C   UNL     1     -41.398 -51.978  12.051  1.00  0.00     0.291 C 
ENDROOT
BRANCH   1   2
HETATM    2  C   UNL     1     -41.190 -50.539  11.558  1.00  0.00     0.178 C 
BRANCH   2   3
HETATM    3  N   UNL     1     -39.905 -49.984  11.933  1.00  0.00    -0.302 N 
HETATM    4  N   UNL     1     -38.854 -50.088  11.098  1.00  0.00    -0.310 N 
HETATM    5  C   UNL     1     -37.847 -49.548  11.787  1.00  0.00     0.115 A 
ATOM      6  HN  UNL     1     -38.833 -50.486  10.159  1.00  0.00     0.186 HD
HETATM    7  C   UNL     1     -38.249 -49.076  13.058  1.00  0.00    -0.028 A 
HETATM    8  C   UNL     1     -37.420 -48.425  14.095  1.00  0.00     0.051 C 
HETATM    9  C   UNL     1     -39.595 -49.366  13.110  1.00  0.00     0.118 A 
ENDBRANCH   2   3
ENDBRANCH   1   2
BRANCH   1  10
HETATM   10  N   UNL     1     -42.719 -52.573  11.833  1.00  0.00     0.085 N 
HETATM   11  H   UNL     1     -42.623 -53.369  11.197  1.00  0.00     0.315 HD
BRANCH  10  12
HETATM   12  C   UNL     1     -43.429 -52.984  13.044  1.00  0.00     0.274 C 
BRANCH  12  13
HETATM   13  C   UNL     1     -44.800 -53.577  12.644  1.00  0.00     0.014 C 
HETATM   14  C   UNL     1     -45.891 -52.499  12.500  1.00  0.00     0.006 C 
HETATM   15  C   UNL     1     -46.373 -51.974  13.848  1.00  0.00     0.000 C 
HETATM   16  C   UNL     1     -46.915 -53.113  14.698  1.00  0.00     0.000 C 
HETATM   17  C   UNL     1     -45.861 -54.195  14.914  1.00  0.00     0.000 C 
HETATM   18  C   UNL     1     -45.259 -54.692  13.601  1.00  0.00     0.006 C 
ENDBRANCH  12  13
ENDBRANCH  10  12
ENDBRANCH   1  10
TORSDOF 5
ENDMDL
MODEL 6
REMARK VINA RESULT:      -5.3      2.847      3.548
REMARK  5 active torsions:
REMARK  status: ('A' for Active; 'I' for Inactive)
REMARK    1  A    between atoms: N_6  and  C_7 
REMARK    2  A    between atoms: C_7  and  C_8 
REMARK    3  A    between atoms: C_8  and  N_9 
REMARK    4  A    between atoms: N_9  and  C_10 
REMARK    5  A    between atoms: C_10  and  C_11 
ROOT
HETATM    1  C   UNL     1     -41.368 -47.506  11.063  1.00  0.00     0.291 C 
ENDROOT
BRANCH   1   2
HETATM    2  C   UNL     1     -42.046 -46.551  10.071  1.00  0.00     0.178 C 
BRANCH   2   3
HETATM    3  N   UNL     1     -43.174 -47.146   9.381  1.00  0.00    -0.302 N 
HETATM    4  N   UNL     1     -43.041 -47.574   8.112  1.00  0.00    -0.310 N 
HETATM    5  C   UNL     1     -44.270 -47.980   7.785  1.00  0.00     0.115 A 
ATOM      6  HN  UNL     1     -42.199 -47.586   7.536  1.00  0.00     0.186 HD
HETATM    7  C   UNL     1     -45.192 -47.834   8.846  1.00  0.00    -0.028 A 
HETATM    8  C   UNL     1     -46.632 -48.170   8.859  1.00  0.00     0.051 C 
HETATM    9  C   UNL     1     -44.439 -47.301   9.870  1.00  0.00     0.118 A 
ENDBRANCH   2   3
ENDBRANCH   1   2
BRANCH   1  10
HETATM   10  N   UNL     1     -39.904 -47.487  11.113  1.00  0.00     0.085 N 
HETATM   11  H   UNL     1     -39.589 -46.519  11.209  1.00  0.00     0.315 HD
BRANCH  10  12
HETATM   12  C   UNL     1     -39.302 -48.315  12.158  1.00  0.00     0.274 C 
BRANCH  12  13
HETATM   13  C   UNL     1     -39.082 -49.741  11.602  1.00  0.00     0.014 C 
HETATM   14  C   UNL     1     -40.109 -50.752  12.144  1.00  0.00     0.006 C 
HETATM   15  C   UNL     1     -39.833 -51.143  13.593  1.00  0.00     0.000 C 
HETATM   16  C   UNL     1     -38.438 -51.735  13.726  1.00  0.00     0.000 C 
HETATM   17  C   UNL     1     -37.371 -50.758  13.244  1.00  0.00     0.000 C 
HETATM   18  C   UNL     1     -37.646 -50.245  11.831  1.00  0.00     0.006 C 
ENDBRANCH  12  13
ENDBRANCH  10  12
ENDBRANCH   1  10
TORSDOF 5
ENDMDL
MODEL 7
REMARK VINA RESULT:      -5.1      3.223      5.465
REMARK  5 active torsions:
REMARK  status: ('A' for Active; 'I' for Inactive)
REMARK    1  A    between atoms: N_6  and  C_7 
REMARK    2  A    between atoms: C_7  and  C_8 
REMARK    3  A    between atoms: C_8  and  N_9 
REMARK    4  A    between atoms: N_9  and  C_10 
REMARK    5  A    between atoms: C_10  and  C_11 
ROOT
HETATM    1  C   UNL     1     -42.390 -49.890  12.813  1.00  0.00     0.291 C 
ENDROOT
BRANCH   1   2
HETATM    2  C   UNL     1     -41.364 -50.808  12.135  1.00  0.00     0.178 C 
BRANCH   2   3
HETATM    3  N   UNL     1     -41.290 -52.127  12.733  1.00  0.00    -0.302 N 
HETATM    4  N   UNL     1     -41.200 -53.219  11.952  1.00  0.00    -0.310 N 
HETATM    5  C   UNL     1     -41.229 -54.232  12.821  1.00  0.00     0.115 A 
ATOM      6  HN  UNL     1     -41.127 -53.263  10.935  1.00  0.00     0.186 HD
HETATM    7  C   UNL     1     -41.316 -53.796  14.163  1.00  0.00    -0.028 A 
HETATM    8  C   UNL     1     -41.373 -54.619  15.390  1.00  0.00     0.051 C 
HETATM    9  C   UNL     1     -41.341 -52.421  14.065  1.00  0.00     0.118 A 
ENDBRANCH   2   3
ENDBRANCH   1   2
BRANCH   1  10
HETATM   10  N   UNL     1     -43.806 -50.191  12.588  1.00  0.00     0.085 N 
HETATM   11  H   UNL     1     -43.889 -50.804  11.774  1.00  0.00     0.315 HD
BRANCH  10  12
HETATM   12  C   UNL     1     -44.510 -50.776  13.729  1.00  0.00     0.274 C 
BRANCH  12  13
HETATM   13  C   UNL     1     -45.721 -51.586  13.208  1.00  0.00     0.014 C 
HETATM   14  C   UNL     1     -46.794 -51.808  14.291  1.00  0.00     0.006 C 
HETATM   15  C   UNL     1     -46.377 -52.856  15.318  1.00  0.00     0.000 C 
HETATM   16  C   UNL     1     -46.085 -54.183  14.633  1.00  0.00     0.000 C 
HETATM   17  C   UNL     1     -44.995 -54.034  13.577  1.00  0.00     0.000 C 
HETATM   18  C   UNL     1     -45.301 -52.924  12.573  1.00  0.00     0.006 C 
ENDBRANCH  12  13
ENDBRANCH  10  12
ENDBRANCH   1  10
TORSDOF 5
ENDMDL
MODEL 8
REMARK VINA RESULT:      -5.0      4.305      7.023
REMARK  5 active torsions:
REMARK  status: ('A' for Active; 'I' for Inactive)
REMARK    1  A    between atoms: N_6  and  C_7 
REMARK    2  A    between atoms: C_7  and  C_8 
REMARK    3  A    between atoms: C_8  and  N_9 
REMARK    4  A    between atoms: N_9  and  C_10 
REMARK    5  A    between atoms: C_10  and  C_11 
ROOT
HETATM    1  C   UNL     1     -42.171 -52.735  12.631  1.00  0.00     0.291 C 
ENDROOT
BRANCH   1   2
HETATM    2  C   UNL     1     -40.771 -53.349  12.494  1.00  0.00     0.178 C 
BRANCH   2   3
HETATM    3  N   UNL     1     -40.313 -54.009  13.700  1.00  0.00    -0.302 N 
HETATM    4  N   UNL     1     -39.059 -54.493  13.771  1.00  0.00    -0.310 N 
HETATM    5  C   UNL     1     -39.016 -55.085  14.967  1.00  0.00     0.115 A 
ATOM      6  HN  UNL     1     -38.316 -54.423  13.075  1.00  0.00     0.186 HD
HETATM    7  C   UNL     1     -40.232 -54.967  15.677  1.00  0.00    -0.028 A 
HETATM    8  C   UNL     1     -40.562 -55.492  17.020  1.00  0.00     0.051 C 
HETATM    9  C   UNL     1     -41.046 -54.250  14.827  1.00  0.00     0.118 A 
ENDBRANCH   2   3
ENDBRANCH   1   2
BRANCH   1  10
HETATM   10  N   UNL     1     -43.281 -53.458  12.004  1.00  0.00     0.085 N 
HETATM   11  H   UNL     1     -43.112 -54.463  12.091  1.00  0.00     0.315 HD
BRANCH  10  12
HETATM   12  C   UNL     1     -44.612 -53.129  12.516  1.00  0.00     0.274 C 
BRANCH  12  13
HETATM   13  C   UNL     1     -44.470 -52.552  13.944  1.00  0.00     0.014 C 
HETATM   14  C   UNL     1     -44.885 -53.560  15.032  1.00  0.00     0.006 C 
HETATM   15  C   UNL     1     -46.399 -53.732  15.120  1.00  0.00     0.000 C 
HETATM   16  C   UNL     1     -47.069 -52.395  15.402  1.00  0.00     0.000 C 
HETATM   17  C   UNL     1     -46.729 -51.366  14.329  1.00  0.00     0.000 C 
HETATM   18  C   UNL     1     -45.223 -51.221  14.117  1.00  0.00     0.006 C 
ENDBRANCH  12  13
ENDBRANCH  10  12
ENDBRANCH   1  10
TORSDOF 5
ENDMDL
MODEL 9
REMARK VINA RESULT:      -4.7      2.638      6.471
REMARK  5 active torsions:
REMARK  status: ('A' for Active; 'I' for Inactive)
REMARK    1  A    between atoms: N_6  and  C_7 
REMARK    2  A    between atoms: C_7  and  C_8 
REMARK    3  A    between atoms: C_8  and  N_9 
REMARK    4  A    between atoms: N_9  and  C_10 
REMARK    5  A    between atoms: C_10  and  C_11 
ROOT
HETATM    1  C   UNL     1     -41.783 -50.531  12.595  1.00  0.00     0.291 C 
ENDROOT
BRANCH   1   2
HETATM    2  C   UNL     1     -42.298 -51.973  12.486  1.00  0.00     0.178 C 
BRANCH   2   3
HETATM    3  N   UNL     1     -43.693 -52.114  12.855  1.00  0.00    -0.302 N 
HETATM    4  N   UNL     1     -44.478 -52.992  12.205  1.00  0.00    -0.310 N 
HETATM    5  C   UNL     1     -45.683 -52.799  12.747  1.00  0.00     0.115 A 
ATOM      6  HN  UNL     1     -44.216 -53.651  11.472  1.00  0.00     0.186 HD
HETATM    7  C   UNL     1     -45.673 -51.812  13.759  1.00  0.00    -0.028 A 
HETATM    8  C   UNL     1     -46.808 -51.328  14.576  1.00  0.00     0.051 C 
HETATM    9  C   UNL     1     -44.359 -51.400  13.809  1.00  0.00     0.118 A 
ENDBRANCH   2   3
ENDBRANCH   1   2
BRANCH   1  10
HETATM   10  N   UNL     1     -41.381 -49.870  11.350  1.00  0.00     0.085 N 
HETATM   11  H   UNL     1     -41.557 -50.505  10.567  1.00  0.00     0.315 HD
BRANCH  10  12
HETATM   12  C   UNL     1     -42.013 -48.575  11.096  1.00  0.00     0.274 C 
BRANCH  12  13
HETATM   13  C   UNL     1     -41.493 -47.553  12.133  1.00  0.00     0.014 C 
HETATM   14  C   UNL     1     -42.439 -46.350  12.303  1.00  0.00     0.006 C 
HETATM   15  C   UNL     1     -42.366 -45.380  11.128  1.00  0.00     0.000 C 
HETATM   16  C   UNL     1     -40.944 -44.869  10.950  1.00  0.00     0.000 C 
HETATM   17  C   UNL     1     -39.964 -46.017  10.732  1.00  0.00     0.000 C 
HETATM   18  C   UNL     1     -40.060 -47.082  11.824  1.00  0.00     0.006 C 
ENDBRANCH  12  13
ENDBRANCH  10  12
ENDBRANCH   1  10
TORSDOF 5
ENDMDL
