MODEL 1
REMARK VINA RESULT:      -6.6      0.000      0.000
REMARK  6 active torsions:
REMARK  status: ('A' for Active; 'I' for Inactive)
REMARK    1  A    between atoms: N_1  and  C_4 
REMARK    2  A    between atoms: N_10  and  N_16 
REMARK    3  A    between atoms: N_10  and  N_13 
REMARK    4  A    between atoms: C_11  and  N_16 
REMARK    5  A    between atoms: C_12  and  C_21 
REMARK    6  A    between atoms: C_21  and  O_22 
ROOT
HETATM    1  C   UNL     1     -43.156 -52.263  12.870  1.00  0.00     0.234 C 
HETATM    2  O   UNL     1     -42.575 -53.569  13.044  1.00  0.00    -0.357 OA
HETATM    3  C   UNL     1     -42.027 -51.283  13.149  1.00  0.00     0.084 C 
HETATM    4  C   UNL     1     -40.846 -51.981  12.503  1.00  0.00     0.149 C 
HETATM    5  C   UNL     1     -41.170 -53.470  12.706  1.00  0.00     0.172 C 
ENDROOT
BRANCH   1   6
HETATM    6  N   UNL     1     -44.318 -52.088  13.737  1.00  0.00    -0.282 N 
HETATM    7  C   UNL     1     -45.519 -52.617  13.291  1.00  0.00     0.331 A 
HETATM    8  N   UNL     1     -46.590 -52.451  14.129  1.00  0.00    -0.275 N 
HETATM    9  O   UNL     1     -45.664 -53.196  12.215  1.00  0.00    -0.246 OA
HETATM   10  C   UNL     1     -46.606 -51.711  15.275  1.00  0.00     0.256 A 
HETATM   11  H   UNL     1     -47.469 -52.835  13.820  1.00  0.00     0.173 HD
HETATM   12  C   UNL     1     -45.307 -51.136  15.690  1.00  0.00     0.022 A 
HETATM   13  O   UNL     1     -47.634 -51.525  15.916  1.00  0.00    -0.267 OA
HETATM   14  C   UNL     1     -44.242 -51.368  14.913  1.00  0.00     0.110 A 
HETATM   15  C   UNL     1     -45.280 -50.329  16.947  1.00  0.00     0.056 C 
ENDBRANCH   1   6
BRANCH   5  16
HETATM   16  C   UNL     1     -40.368 -54.111  13.842  1.00  0.00     0.198 C 
BRANCH  16  17
HETATM   17  O   UNL     1     -39.058 -54.465  13.407  1.00  0.00    -0.398 OA
HETATM   18  H   UNL     1     -39.089 -54.453  12.435  1.00  0.00     0.209 HD
ENDBRANCH  16  17
ENDBRANCH   5  16
BRANCH   4  19
HETATM   19  N   UNL     1     -40.853 -51.657  11.061  1.00  0.00    -0.245 N 
ATOM     20  HN  UNL     1     -40.993 -52.373  10.349  1.00  0.00     0.197 HD
BRANCH  19  21
HETATM   21  N   UNL     1     -40.678 -50.461  10.764  1.00  0.00    -0.248 NA
BRANCH  21  22
HETATM   22  N   UNL     1     -40.530 -49.363  10.499  1.00  0.00    -0.261 N 
ATOM     23  HN2 UNL     1     -40.102 -50.255  10.744  1.00  0.00     0.193 HD
ATOM     24  HN1 UNL     1     -40.411 -48.378  10.260  1.00  0.00     0.193 HD
ENDBRANCH  21  22
ENDBRANCH  19  21
ENDBRANCH   4  19
TORSDOF 6
ENDMDL
MODEL 2
REMARK VINA RESULT:      -6.3      7.227      8.736
REMARK  6 active torsions:
REMARK  status: ('A' for Active; 'I' for Inactive)
REMARK    1  A    between atoms: N_1  and  C_4 
REMARK    2  A    between atoms: N_10  and  N_16 
REMARK    3  A    between atoms: N_10  and  N_13 
REMARK    4  A    between atoms: C_11  and  N_16 
REMARK    5  A    between atoms: C_12  and  C_21 
REMARK    6  A    between atoms: C_21  and  O_22 
ROOT
HETATM    1  C   UNL     1     -41.689 -45.736  10.303  1.00  0.00     0.234 C 
HETATM    2  O   UNL     1     -42.723 -45.582   9.314  1.00  0.00    -0.357 OA
HETATM    3  C   UNL     1     -42.115 -46.930  11.145  1.00  0.00     0.084 C 
HETATM    4  C   UNL     1     -42.683 -47.862  10.093  1.00  0.00     0.149 C 
HETATM    5  C   UNL     1     -43.283 -46.894   9.060  1.00  0.00     0.172 C 
ENDROOT
BRANCH   1   6
HETATM    6  N   UNL     1     -41.511 -44.507  11.069  1.00  0.00    -0.282 N 
HETATM    7  C   UNL     1     -40.438 -43.700  10.723  1.00  0.00     0.331 A 
HETATM    8  N   UNL     1     -40.301 -42.547  11.448  1.00  0.00    -0.275 N 
HETATM    9  O   UNL     1     -39.628 -43.969   9.836  1.00  0.00    -0.246 OA
HETATM   10  C   UNL     1     -41.033 -42.195  12.544  1.00  0.00     0.256 A 
HETATM   11  H   UNL     1     -39.527 -41.949  11.203  1.00  0.00     0.173 HD
HETATM   12  C   UNL     1     -42.144 -43.107  12.897  1.00  0.00     0.022 A 
HETATM   13  O   UNL     1     -40.780 -41.194  13.203  1.00  0.00    -0.267 OA
HETATM   14  C   UNL     1     -42.329 -44.193  12.137  1.00  0.00     0.110 A 
HETATM   15  C   UNL     1     -42.978 -42.751  14.084  1.00  0.00     0.056 C 
ENDBRANCH   1   6
BRANCH   5  16
HETATM   16  C   UNL     1     -44.807 -46.780   9.154  1.00  0.00     0.198 C 
BRANCH  16  17
HETATM   17  O   UNL     1     -45.221 -45.417   9.116  1.00  0.00    -0.398 OA
HETATM   18  H   UNL     1     -44.950 -45.032   9.967  1.00  0.00     0.209 HD
ENDBRANCH  16  17
ENDBRANCH   5  16
BRANCH   4  19
HETATM   19  N   UNL     1     -41.562 -48.611   9.488  1.00  0.00    -0.245 N 
ATOM     20  HN  UNL     1     -41.310 -48.504   8.506  1.00  0.00     0.197 HD
BRANCH  19  21
HETATM   21  N   UNL     1     -40.943 -49.380  10.245  1.00  0.00    -0.248 NA
BRANCH  21  22
HETATM   22  N   UNL     1     -40.370 -50.092  10.927  1.00  0.00    -0.261 N 
ATOM     23  HN2 UNL     1     -40.394 -49.570  10.051  1.00  0.00     0.193 HD
ATOM     24  HN1 UNL     1     -39.868 -50.728  11.546  1.00  0.00     0.193 HD
ENDBRANCH  21  22
ENDBRANCH  19  21
ENDBRANCH   4  19
TORSDOF 6
ENDMDL
MODEL 3
REMARK VINA RESULT:      -6.2      4.693      6.380
REMARK  6 active torsions:
REMARK  status: ('A' for Active; 'I' for Inactive)
REMARK    1  A    between atoms: N_1  and  C_4 
REMARK    2  A    between atoms: N_10  and  N_16 
REMARK    3  A    between atoms: N_10  and  N_13 
REMARK    4  A    between atoms: C_11  and  N_16 
REMARK    5  A    between atoms: C_12  and  C_21 
REMARK    6  A    between atoms: C_21  and  O_22 
ROOT
HETATM    1  C   UNL     1     -41.080 -49.140  11.720  1.00  0.00     0.234 C 
HETATM    2  O   UNL     1     -41.316 -49.380  13.120  1.00  0.00    -0.357 OA
HETATM    3  C   UNL     1     -39.804 -49.902  11.393  1.00  0.00     0.084 C 
HETATM    4  C   UNL     1     -39.986 -51.169  12.205  1.00  0.00     0.149 C 
HETATM    5  C   UNL     1     -40.766 -50.682  13.438  1.00  0.00     0.172 C 
ENDROOT
BRANCH   1   6
HETATM    6  N   UNL     1     -41.001 -47.709  11.441  1.00  0.00    -0.282 N 
HETATM    7  C   UNL     1     -41.704 -47.243  10.341  1.00  0.00     0.331 A 
HETATM    8  N   UNL     1     -41.624 -45.895  10.110  1.00  0.00    -0.275 N 
HETATM    9  O   UNL     1     -42.361 -47.959   9.587  1.00  0.00    -0.246 OA
HETATM   10  C   UNL     1     -40.823 -45.013  10.774  1.00  0.00     0.256 A 
HETATM   11  H   UNL     1     -42.133 -45.543   9.316  1.00  0.00     0.173 HD
HETATM   12  C   UNL     1     -40.063 -45.565  11.918  1.00  0.00     0.022 A 
HETATM   13  O   UNL     1     -40.729 -43.838  10.438  1.00  0.00    -0.267 OA
HETATM   14  C   UNL     1     -40.206 -46.866  12.195  1.00  0.00     0.110 A 
HETATM   15  C   UNL     1     -39.184 -44.628  12.679  1.00  0.00     0.056 C 
ENDBRANCH   1   6
BRANCH   5  16
HETATM   16  C   UNL     1     -39.889 -50.529  14.684  1.00  0.00     0.198 C 
BRANCH  16  17
HETATM   17  O   UNL     1     -38.702 -51.309  14.573  1.00  0.00    -0.398 OA
HETATM   18  H   UNL     1     -37.968 -50.708  14.786  1.00  0.00     0.209 HD
ENDBRANCH  16  17
ENDBRANCH   5  16
BRANCH   4  19
HETATM   19  N   UNL     1     -40.819 -52.104  11.420  1.00  0.00    -0.245 N 
ATOM     20  HN  UNL     1     -41.381 -51.790  10.629  1.00  0.00     0.197 HD
BRANCH  19  21
HETATM   21  N   UNL     1     -40.797 -53.294  11.779  1.00  0.00    -0.248 NA
BRANCH  21  22
HETATM   22  N   UNL     1     -40.791 -54.387  12.105  1.00  0.00    -0.261 N 
ATOM     23  HN2 UNL     1     -40.432 -53.443  12.247  1.00  0.00     0.193 HD
ATOM     24  HN1 UNL     1     -40.795 -55.367  12.388  1.00  0.00     0.193 HD
ENDBRANCH  21  22
ENDBRANCH  19  21
ENDBRANCH   4  19
TORSDOF 6
ENDMDL
MODEL 4
REMARK VINA RESULT:      -6.0      2.770      3.633
REMARK  6 active torsions:
REMARK  status: ('A' for Active; 'I' for Inactive)
REMARK    1  A    between atoms: N_1  and  C_4 
REMARK    2  A    between atoms: N_10  and  N_16 
REMARK    3  A    between atoms: N_10  and  N_13 
REMARK    4  A    between atoms: C_11  and  N_16 
REMARK    5  A    between atoms: C_12  and  C_21 
REMARK    6  A    between atoms: C_21  and  O_22 
ROOT
HETATM    1  C   UNL     1     -42.364 -51.757  12.490  1.00  0.00     0.234 C 
HETATM    2  O   UNL     1     -41.113 -51.780  11.778  1.00  0.00    -0.357 OA
HETATM    3  C   UNL     1     -42.353 -50.454  13.276  1.00  0.00     0.084 C 
HETATM    4  C   UNL     1     -41.712 -49.502  12.285  1.00  0.00     0.149 C 
HETATM    5  C   UNL     1     -40.733 -50.407  11.519  1.00  0.00     0.172 C 
ENDROOT
BRANCH   1   6
HETATM    6  N   UNL     1     -42.515 -52.947  13.321  1.00  0.00    -0.282 N 
HETATM    7  C   UNL     1     -43.757 -53.563  13.319  1.00  0.00     0.331 A 
HETATM    8  N   UNL     1     -43.867 -54.685  14.096  1.00  0.00    -0.275 N 
HETATM    9  O   UNL     1     -44.729 -53.156  12.683  1.00  0.00    -0.246 OA
HETATM   10  C   UNL     1     -42.923 -55.161  14.957  1.00  0.00     0.256 A 
HETATM   11  H   UNL     1     -44.764 -55.144  14.100  1.00  0.00     0.173 HD
HETATM   12  C   UNL     1     -41.625 -54.448  14.952  1.00  0.00     0.022 A 
HETATM   13  O   UNL     1     -43.138 -56.114  15.698  1.00  0.00    -0.267 OA
HETATM   14  C   UNL     1     -41.490 -53.401  14.130  1.00  0.00     0.110 A 
HETATM   15  C   UNL     1     -40.560 -54.947  15.871  1.00  0.00     0.056 C 
ENDBRANCH   1   6
BRANCH   5  16
HETATM   16  C   UNL     1     -39.278 -50.231  11.962  1.00  0.00     0.198 C 
BRANCH  16  17
HETATM   17  O   UNL     1     -38.645 -51.494  12.150  1.00  0.00    -0.398 OA
HETATM   18  H   UNL     1     -37.911 -51.521  11.512  1.00  0.00     0.209 HD
ENDBRANCH  16  17
ENDBRANCH   5  16
BRANCH   4  19
HETATM   19  N   UNL     1     -42.765 -49.013  11.371  1.00  0.00    -0.245 N 
ATOM     20  HN  UNL     1     -43.755 -49.080  11.604  1.00  0.00     0.197 HD
BRANCH  19  21
HETATM   21  N   UNL     1     -42.376 -48.514  10.300  1.00  0.00    -0.248 NA
BRANCH  21  22
HETATM   22  N   UNL     1     -42.032 -48.058   9.313  1.00  0.00    -0.261 N 
ATOM     23  HN2 UNL     1     -42.381 -47.903  10.258  1.00  0.00     0.193 HD
ATOM     24  HN1 UNL     1     -41.723 -47.662   8.425  1.00  0.00     0.193 HD
ENDBRANCH  21  22
ENDBRANCH  19  21
ENDBRANCH   4  19
TORSDOF 6
ENDMDL
MODEL 5
REMARK VINA RESULT:      -5.8      4.708      6.220
REMARK  6 active torsions:
REMARK  status: ('A' for Active; 'I' for Inactive)
REMARK    1  A    between atoms: N_1  and  C_4 
REMARK    2  A    between atoms: N_10  and  N_16 
REMARK    3  A    between atoms: N_10  and  N_13 
REMARK    4  A    between atoms: C_11  and  N_16 
REMARK    5  A    between atoms: C_12  and  C_21 
REMARK    6  A    between atoms: C_21  and  O_22 
ROOT
HETATM    1  C   UNL     1     -40.682 -48.769  11.824  1.00  0.00     0.234 C 
HETATM    2  O   UNL     1     -40.527 -50.041  11.168  1.00  0.00    -0.357 OA
HETATM    3  C   UNL     1     -41.289 -49.092  13.182  1.00  0.00     0.084 C 
HETATM    4  C   UNL     1     -40.550 -50.362  13.555  1.00  0.00     0.149 C 
HETATM    5  C   UNL     1     -40.316 -51.040  12.195  1.00  0.00     0.172 C 
ENDROOT
BRANCH   1   6
HETATM    6  N   UNL     1     -41.491 -47.860  11.017  1.00  0.00    -0.282 N 
HETATM    7  C   UNL     1     -40.903 -46.661  10.643  1.00  0.00     0.331 A 
HETATM    8  N   UNL     1     -41.678 -45.833   9.875  1.00  0.00    -0.275 N 
HETATM    9  O   UNL     1     -39.767 -46.318  10.965  1.00  0.00    -0.246 OA
HETATM   10  C   UNL     1     -42.993 -46.020   9.567  1.00  0.00     0.256 A 
HETATM   11  H   UNL     1     -41.262 -44.960   9.592  1.00  0.00     0.173 HD
HETATM   12  C   UNL     1     -43.587 -47.298  10.021  1.00  0.00     0.022 A 
HETATM   13  O   UNL     1     -43.647 -45.179   8.962  1.00  0.00    -0.267 OA
HETATM   14  C   UNL     1     -42.805 -48.146  10.700  1.00  0.00     0.110 A 
HETATM   15  C   UNL     1     -45.022 -47.548   9.692  1.00  0.00     0.056 C 
ENDBRANCH   1   6
BRANCH   5  16
HETATM   16  C   UNL     1     -41.280 -52.199  11.927  1.00  0.00     0.198 C 
BRANCH  16  17
HETATM   17  O   UNL     1     -40.593 -53.315  11.365  1.00  0.00    -0.398 OA
HETATM   18  H   UNL     1     -40.443 -53.932  12.102  1.00  0.00     0.209 HD
ENDBRANCH  16  17
ENDBRANCH   5  16
BRANCH   4  19
HETATM   19  N   UNL     1     -39.254 -49.980  14.156  1.00  0.00    -0.245 N 
ATOM     20  HN  UNL     1     -38.770 -49.123  13.892  1.00  0.00     0.197 HD
BRANCH  19  21
HETATM   21  N   UNL     1     -38.788 -50.764  15.001  1.00  0.00    -0.248 NA
BRANCH  21  22
HETATM   22  N   UNL     1     -38.368 -51.477  15.786  1.00  0.00    -0.261 N 
ATOM     23  HN2 UNL     1     -38.358 -50.543  15.378  1.00  0.00     0.193 HD
ATOM     24  HN1 UNL     1     -38.001 -52.125  16.483  1.00  0.00     0.193 HD
ENDBRANCH  21  22
ENDBRANCH  19  21
ENDBRANCH   4  19
TORSDOF 6
ENDMDL
MODEL 6
REMARK VINA RESULT:      -5.7      5.539      7.667
REMARK  6 active torsions:
REMARK  status: ('A' for Active; 'I' for Inactive)
REMARK    1  A    between atoms: N_1  and  C_4 
REMARK    2  A    between atoms: N_10  and  N_16 
REMARK    3  A    between atoms: N_10  and  N_13 
REMARK    4  A    between atoms: C_11  and  N_16 
REMARK    5  A    between atoms: C_12  and  C_21 
REMARK    6  A    between atoms: C_21  and  O_22 
ROOT
HETATM    1  C   UNL     1     -41.221 -47.658  10.837  1.00  0.00     0.234 C 
HETATM    2  O   UNL     1     -41.185 -46.298  10.368  1.00  0.00    -0.357 OA
HETATM    3  C   UNL     1     -42.644 -47.873  11.332  1.00  0.00     0.084 C 
HETATM    4  C   UNL     1     -43.448 -47.119  10.291  1.00  0.00     0.149 C 
HETATM    5  C   UNL     1     -42.514 -45.961   9.903  1.00  0.00     0.172 C 
ENDROOT
BRANCH   1   6
HETATM    6  N   UNL     1     -40.201 -47.887  11.857  1.00  0.00    -0.282 N 
HETATM    7  C   UNL     1     -39.583 -49.128  11.859  1.00  0.00     0.331 A 
HETATM    8  N   UNL     1     -38.621 -49.312  12.816  1.00  0.00    -0.275 N 
HETATM    9  O   UNL     1     -39.856 -50.038  11.078  1.00  0.00    -0.246 OA
HETATM   10  C   UNL     1     -38.319 -48.449  13.828  1.00  0.00     0.256 A 
HETATM   11  H   UNL     1     -38.160 -50.208  12.827  1.00  0.00     0.173 HD
HETATM   12  C   UNL     1     -39.033 -47.152  13.805  1.00  0.00     0.022 A 
HETATM   13  O   UNL     1     -37.516 -48.733  14.710  1.00  0.00    -0.267 OA
HETATM   14  C   UNL     1     -39.914 -46.940  12.820  1.00  0.00     0.110 A 
HETATM   15  C   UNL     1     -38.722 -46.173  14.889  1.00  0.00     0.056 C 
ENDBRANCH   1   6
BRANCH   5  16
HETATM   16  C   UNL     1     -42.911 -44.627  10.541  1.00  0.00     0.198 C 
BRANCH  16  17
HETATM   17  O   UNL     1     -43.881 -43.949   9.747  1.00  0.00    -0.398 OA
HETATM   18  H   UNL     1     -44.661 -43.841  10.317  1.00  0.00     0.209 HD
ENDBRANCH  16  17
ENDBRANCH   5  16
BRANCH   4  19
HETATM   19  N   UNL     1     -43.651 -48.012   9.131  1.00  0.00    -0.245 N 
ATOM     20  HN  UNL     1     -42.906 -48.609   8.774  1.00  0.00     0.197 HD
BRANCH  19  21
HETATM   21  N   UNL     1     -44.783 -47.995   8.614  1.00  0.00    -0.248 NA
BRANCH  21  22
HETATM   22  N   UNL     1     -45.821 -47.992   8.143  1.00  0.00    -0.261 N 
ATOM     23  HN2 UNL     1     -44.976 -48.519   8.364  1.00  0.00     0.193 HD
ATOM     24  HN1 UNL     1     -46.751 -47.977   7.724  1.00  0.00     0.193 HD
ENDBRANCH  21  22
ENDBRANCH  19  21
ENDBRANCH   4  19
TORSDOF 6
ENDMDL
MODEL 7
REMARK VINA RESULT:      -5.7      3.092      4.343
REMARK  6 active torsions:
REMARK  status: ('A' for Active; 'I' for Inactive)
REMARK    1  A    between atoms: N_1  and  C_4 
REMARK    2  A    between atoms: N_10  and  N_16 
REMARK    3  A    between atoms: N_10  and  N_13 
REMARK    4  A    between atoms: C_11  and  N_16 
REMARK    5  A    between atoms: C_12  and  C_21 
REMARK    6  A    between atoms: C_21  and  O_22 
ROOT
HETATM    1  C   UNL     1     -41.726 -49.995  12.378  1.00  0.00     0.234 C 
HETATM    2  O   UNL     1     -41.131 -49.604  13.629  1.00  0.00    -0.357 OA
HETATM    3  C   UNL     1     -42.326 -48.720  11.805  1.00  0.00     0.084 C 
HETATM    4  C   UNL     1     -41.273 -47.692  12.170  1.00  0.00     0.149 C 
HETATM    5  C   UNL     1     -40.722 -48.221  13.505  1.00  0.00     0.172 C 
ENDROOT
BRANCH   1   6
HETATM    6  N   UNL     1     -42.695 -51.069  12.572  1.00  0.00    -0.282 N 
HETATM    7  C   UNL     1     -42.316 -52.339  12.166  1.00  0.00     0.331 A 
HETATM    8  N   UNL     1     -43.238 -53.330  12.372  1.00  0.00    -0.275 N 
HETATM    9  O   UNL     1     -41.235 -52.603  11.640  1.00  0.00    -0.246 OA
HETATM   10  C   UNL     1     -44.519 -53.158  12.808  1.00  0.00     0.256 A 
HETATM   11  H   UNL     1     -42.973 -54.260  12.085  1.00  0.00     0.173 HD
HETATM   12  C   UNL     1     -44.889 -51.778  13.194  1.00  0.00     0.022 A 
HETATM   13  O   UNL     1     -45.318 -54.085  12.866  1.00  0.00    -0.267 OA
HETATM   14  C   UNL     1     -43.960 -50.822  13.071  1.00  0.00     0.110 A 
HETATM   15  C   UNL     1     -46.279 -51.549  13.689  1.00  0.00     0.056 C 
ENDBRANCH   1   6
BRANCH   5  16
HETATM   16  C   UNL     1     -41.258 -47.461  14.721  1.00  0.00     0.198 C 
BRANCH  16  17
HETATM   17  O   UNL     1     -41.283 -46.057  14.478  1.00  0.00    -0.398 OA
HETATM   18  H   UNL     1     -42.157 -45.869  14.095  1.00  0.00     0.209 HD
ENDBRANCH  16  17
ENDBRANCH   5  16
BRANCH   4  19
HETATM   19  N   UNL     1     -40.215 -47.731  11.138  1.00  0.00    -0.245 N 
ATOM     20  HN  UNL     1     -39.709 -48.588  10.917  1.00  0.00     0.197 HD
BRANCH  19  21
HETATM   21  N   UNL     1     -39.977 -46.658  10.555  1.00  0.00    -0.248 NA
BRANCH  21  22
HETATM   22  N   UNL     1     -39.748 -45.682  10.013  1.00  0.00    -0.261 N 
ATOM     23  HN2 UNL     1     -39.845 -46.695   9.959  1.00  0.00     0.193 HD
ATOM     24  HN1 UNL     1     -39.545 -44.802   9.539  1.00  0.00     0.193 HD
ENDBRANCH  21  22
ENDBRANCH  19  21
ENDBRANCH   4  19
TORSDOF 6
ENDMDL
MODEL 8
REMARK VINA RESULT:      -5.7      2.207      3.001
REMARK  6 active torsions:
REMARK  status: ('A' for Active; 'I' for Inactive)
REMARK    1  A    between atoms: N_1  and  C_4 
REMARK    2  A    between atoms: N_10  and  N_16 
REMARK    3  A    between atoms: N_10  and  N_13 
REMARK    4  A    between atoms: C_11  and  N_16 
REMARK    5  A    between atoms: C_12  and  C_21 
REMARK    6  A    between atoms: C_21  and  O_22 
ROOT
HETATM    1  C   UNL     1     -41.658 -51.692  12.497  1.00  0.00     0.234 C 
HETATM    2  O   UNL     1     -40.594 -51.723  13.465  1.00  0.00    -0.357 OA
HETATM    3  C   UNL     1     -41.845 -50.221  12.155  1.00  0.00     0.084 C 
HETATM    4  C   UNL     1     -40.412 -49.727  12.129  1.00  0.00     0.149 C 
HETATM    5  C   UNL     1     -39.726 -50.595  13.198  1.00  0.00     0.172 C 
ENDROOT
BRANCH   1   6
HETATM    6  N   UNL     1     -42.860 -52.334  13.020  1.00  0.00    -0.282 N 
HETATM    7  C   UNL     1     -42.798 -53.702  13.239  1.00  0.00     0.331 A 
HETATM    8  N   UNL     1     -43.934 -54.277  13.742  1.00  0.00    -0.275 N 
HETATM    9  O   UNL     1     -41.811 -54.396  13.000  1.00  0.00    -0.246 OA
HETATM   10  C   UNL     1     -45.137 -53.659  13.917  1.00  0.00     0.256 A 
HETATM   11  H   UNL     1     -43.901 -55.270  13.910  1.00  0.00     0.173 HD
HETATM   12  C   UNL     1     -45.164 -52.206  13.635  1.00  0.00     0.022 A 
HETATM   13  O   UNL     1     -46.138 -54.270  14.275  1.00  0.00    -0.267 OA
HETATM   14  C   UNL     1     -44.030 -51.628  13.221  1.00  0.00     0.110 A 
HETATM   15  C   UNL     1     -46.460 -51.490  13.826  1.00  0.00     0.056 C 
ENDBRANCH   1   6
BRANCH   5  16
HETATM   16  C   UNL     1     -39.497 -49.855  14.519  1.00  0.00     0.198 C 
BRANCH  16  17
HETATM   17  O   UNL     1     -38.106 -49.690  14.778  1.00  0.00    -0.398 OA
HETATM   18  H   UNL     1     -37.646 -50.067  14.009  1.00  0.00     0.209 HD
ENDBRANCH  16  17
ENDBRANCH   5  16
BRANCH   4  19
HETATM   19  N   UNL     1     -39.845 -50.028  10.798  1.00  0.00    -0.245 N 
ATOM     20  HN  UNL     1     -40.438 -50.241   9.996  1.00  0.00     0.197 HD
BRANCH  19  21
HETATM   21  N   UNL     1     -38.605 -50.006  10.710  1.00  0.00    -0.248 NA
BRANCH  21  22
HETATM   22  N   UNL     1     -37.468 -49.997  10.619  1.00  0.00    -0.261 N 
ATOM     23  HN2 UNL     1     -38.352 -50.410  10.325  1.00  0.00     0.193 HD
ATOM     24  HN1 UNL     1     -36.451 -49.978  10.547  1.00  0.00     0.193 HD
ENDBRANCH  21  22
ENDBRANCH  19  21
ENDBRANCH   4  19
TORSDOF 6
ENDMDL
MODEL 9
REMARK VINA RESULT:      -5.7      7.079      8.522
REMARK  6 active torsions:
REMARK  status: ('A' for Active; 'I' for Inactive)
REMARK    1  A    between atoms: N_1  and  C_4 
REMARK    2  A    between atoms: N_10  and  N_16 
REMARK    3  A    between atoms: N_10  and  N_13 
REMARK    4  A    between atoms: C_11  and  N_16 
REMARK    5  A    between atoms: C_12  and  C_21 
REMARK    6  A    between atoms: C_21  and  O_22 
ROOT
HETATM    1  C   UNL     1     -41.450 -45.757  11.200  1.00  0.00     0.234 C 
HETATM    2  O   UNL     1     -42.026 -45.165  10.020  1.00  0.00    -0.357 OA
HETATM    3  C   UNL     1     -42.415 -46.862  11.604  1.00  0.00     0.084 C 
HETATM    4  C   UNL     1     -42.817 -47.428  10.256  1.00  0.00     0.149 C 
HETATM    5  C   UNL     1     -42.779 -46.196   9.337  1.00  0.00     0.172 C 
ENDROOT
BRANCH   1   6
HETATM    6  N   UNL     1     -41.234 -44.753  12.237  1.00  0.00    -0.282 N 
HETATM    7  C   UNL     1     -39.981 -44.163  12.289  1.00  0.00     0.331 A 
HETATM    8  N   UNL     1     -39.809 -43.215  13.262  1.00  0.00    -0.275 N 
HETATM    9  O   UNL     1     -39.050 -44.449  11.537  1.00  0.00    -0.246 OA
HETATM   10  C   UNL     1     -40.700 -42.904  14.247  1.00  0.00     0.256 A 
HETATM   11  H   UNL     1     -38.904 -42.774  13.308  1.00  0.00     0.173 HD
HETATM   12  C   UNL     1     -42.011 -43.587  14.171  1.00  0.00     0.022 A 
HETATM   13  O   UNL     1     -40.428 -42.116  15.146  1.00  0.00    -0.267 OA
HETATM   14  C   UNL     1     -42.208 -44.453  13.170  1.00  0.00     0.110 A 
HETATM   15  C   UNL     1     -43.019 -43.265  15.224  1.00  0.00     0.056 C 
ENDBRANCH   1   6
BRANCH   5  16
HETATM   16  C   UNL     1     -44.169 -45.634   9.025  1.00  0.00     0.198 C 
BRANCH  16  17
HETATM   17  O   UNL     1     -44.258 -44.259   9.391  1.00  0.00    -0.398 OA
HETATM   18  H   UNL     1     -45.195 -44.019   9.294  1.00  0.00     0.209 HD
ENDBRANCH  16  17
ENDBRANCH   5  16
BRANCH   4  19
HETATM   19  N   UNL     1     -41.784 -48.399   9.839  1.00  0.00    -0.245 N 
ATOM     20  HN  UNL     1     -41.298 -48.318   8.946  1.00  0.00     0.197 HD
BRANCH  19  21
HETATM   21  N   UNL     1     -41.541 -49.321  10.638  1.00  0.00    -0.248 NA
BRANCH  21  22
HETATM   22  N   UNL     1     -41.313 -50.174  11.359  1.00  0.00    -0.261 N 
ATOM     23  HN2 UNL     1     -41.574 -49.891  10.415  1.00  0.00     0.193 HD
ATOM     24  HN1 UNL     1     -41.107 -50.928  12.014  1.00  0.00     0.193 HD
ENDBRANCH  21  22
ENDBRANCH  19  21
ENDBRANCH   4  19
TORSDOF 6
ENDMDL
