MODEL 1
REMARK VINA RESULT:      -6.7      0.000      0.000
REMARK  5 active torsions:
REMARK  status: ('A' for Active; 'I' for Inactive)
REMARK    1  A    between atoms: O_2  and  C_3 
REMARK    2  A    between atoms: C_6  and  N_7 
REMARK       I    between atoms: N_7  and  C_8 
REMARK       I    between atoms: C_8  and  N_10 
REMARK    3  A    between atoms: N_10  and  C_11 
REMARK    4  A    between atoms: N_14  and  C_15 
REMARK    5  A    between atoms: C_15  and  C_16 
ROOT
HETATM    1  N   UNL     1     -41.560 -50.442  11.409  1.00  0.00    -0.308 N 
HETATM    2  C   UNL     1     -42.451 -50.900  12.347  1.00  0.00     0.321 C 
HETATM    3  O   UNL     1     -42.971 -50.225  13.231  1.00  0.00    -0.247 OA
HETATM    4  N   UNL     1     -42.729 -52.245  12.243  1.00  0.00    -0.336 N 
HETATM    5  H   UNL     1     -41.248 -51.093  10.704  1.00  0.00     0.170 HD
HETATM    6  H   UNL     1     -42.640 -52.689  11.341  1.00  0.00     0.164 HD
ENDROOT
BRANCH   1   7
HETATM    7  C   UNL     1     -41.080 -49.112  11.334  1.00  0.00     0.051 A 
HETATM    8  C   UNL     1     -40.057 -48.616  12.145  1.00  0.00     0.035 A 
HETATM    9  C   UNL     1     -39.645 -47.292  12.037  1.00  0.00     0.058 A 
HETATM   10  C   UNL     1     -40.263 -46.492  11.102  1.00  0.00     0.141 A 
HETATM   11  N   UNL     1     -41.247 -46.922  10.276  1.00  0.00    -0.345 N 
HETATM   12  C   UNL     1     -41.628 -48.219  10.415  1.00  0.00     0.119 A 
ATOM     13  HN  UNL     1     -41.680 -46.305   9.588  1.00  0.00     0.167 HD
BRANCH  10  14
HETATM   14  O   UNL     1     -39.819 -45.189  11.043  1.00  0.00    -0.341 OA
HETATM   15  C   UNL     1     -39.261 -44.844   9.779  1.00  0.00     0.211 C 
ENDBRANCH  10  14
ENDBRANCH   1   7
BRANCH   4  16
HETATM   16  C   UNL     1     -43.671 -52.781  13.206  1.00  0.00     0.116 C 
HETATM   17  C   UNL     1     -43.444 -54.230  13.597  1.00  0.00     0.057 C 
HETATM   18  C   UNL     1     -44.838 -54.756  13.958  1.00  0.00     0.275 C 
HETATM   19  N   UNL     1     -45.819 -53.688  13.691  1.00  0.00     0.099 N 
HETATM   20  C   UNL     1     -45.137 -52.781  12.749  1.00  0.00     0.297 C 
BRANCH  19  21
HETATM   21  C   UNL     1     -46.224 -52.951  14.923  1.00  0.00     0.389 C 
BRANCH  21  22
HETATM   22  C   UNL     1     -46.625 -51.461  14.816  1.00  0.00     0.413 C 
HETATM   23  F   UNL     1     -47.159 -51.138  13.618  1.00  0.00    -0.169 F 
HETATM   24  F   UNL     1     -47.546 -51.153  15.762  1.00  0.00    -0.169 F 
HETATM   25  F   UNL     1     -45.558 -50.653  15.018  1.00  0.00    -0.169 F 
ENDBRANCH  21  22
ENDBRANCH  19  21
ENDBRANCH   4  16
TORSDOF 5
ENDMDL
MODEL 2
REMARK VINA RESULT:      -6.4      2.048      2.406
REMARK  5 active torsions:
REMARK  status: ('A' for Active; 'I' for Inactive)
REMARK    1  A    between atoms: O_2  and  C_3 
REMARK    2  A    between atoms: C_6  and  N_7 
REMARK       I    between atoms: N_7  and  C_8 
REMARK       I    between atoms: C_8  and  N_10 
REMARK    3  A    between atoms: N_10  and  C_11 
REMARK    4  A    between atoms: N_14  and  C_15 
REMARK    5  A    between atoms: C_15  and  C_16 
ROOT
HETATM    1  N   UNL     1     -41.742 -49.251  10.948  1.00  0.00    -0.308 N 
HETATM    2  C   UNL     1     -42.185 -49.995  12.012  1.00  0.00     0.321 C 
HETATM    3  O   UNL     1     -42.681 -49.547  13.043  1.00  0.00    -0.247 OA
HETATM    4  N   UNL     1     -42.015 -51.352  11.855  1.00  0.00    -0.336 N 
HETATM    5  H   UNL     1     -41.402 -49.749  10.140  1.00  0.00     0.170 HD
HETATM    6  H   UNL     1     -41.995 -51.731  10.920  1.00  0.00     0.164 HD
ENDROOT
BRANCH   1   7
HETATM    7  C   UNL     1     -41.764 -47.836  10.888  1.00  0.00     0.051 A 
HETATM    8  C   UNL     1     -40.629 -47.041  11.058  1.00  0.00     0.035 A 
HETATM    9  C   UNL     1     -40.721 -45.654  11.009  1.00  0.00     0.058 A 
HETATM   10  C   UNL     1     -41.956 -45.092  10.774  1.00  0.00     0.141 A 
HETATM   11  N   UNL     1     -43.087 -45.812  10.583  1.00  0.00    -0.345 N 
HETATM   12  C   UNL     1     -42.960 -47.163  10.644  1.00  0.00     0.119 A 
ATOM     13  HN  UNL     1     -43.986 -45.364  10.403  1.00  0.00     0.167 HD
BRANCH  10  14
HETATM   14  O   UNL     1     -41.989 -43.714  10.741  1.00  0.00    -0.341 OA
HETATM   15  C   UNL     1     -40.845 -43.113  11.337  1.00  0.00     0.211 C 
ENDBRANCH  10  14
ENDBRANCH   1   7
BRANCH   4  16
HETATM   16  C   UNL     1     -42.474 -52.187  12.948  1.00  0.00     0.116 C 
HETATM   17  C   UNL     1     -41.385 -52.936  13.694  1.00  0.00     0.057 C 
HETATM   18  C   UNL     1     -42.071 -54.203  14.213  1.00  0.00     0.275 C 
HETATM   19  N   UNL     1     -43.456 -54.220  13.705  1.00  0.00     0.099 N 
HETATM   20  C   UNL     1     -43.439 -53.311  12.544  1.00  0.00     0.297 C 
BRANCH  19  21
HETATM   21  C   UNL     1     -44.451 -53.757  14.716  1.00  0.00     0.389 C 
BRANCH  21  22
HETATM   22  C   UNL     1     -45.901 -54.292  14.650  1.00  0.00     0.413 C 
HETATM   23  F   UNL     1     -46.762 -53.426  14.072  1.00  0.00    -0.169 F 
HETATM   24  F   UNL     1     -45.944 -55.441  13.932  1.00  0.00    -0.169 F 
HETATM   25  F   UNL     1     -46.374 -54.573  15.886  1.00  0.00    -0.169 F 
ENDBRANCH  21  22
ENDBRANCH  19  21
ENDBRANCH   4  16
TORSDOF 5
ENDMDL
MODEL 3
REMARK VINA RESULT:      -6.2      2.992      3.927
REMARK  5 active torsions:
REMARK  status: ('A' for Active; 'I' for Inactive)
REMARK    1  A    between atoms: O_2  and  C_3 
REMARK    2  A    between atoms: C_6  and  N_7 
REMARK       I    between atoms: N_7  and  C_8 
REMARK       I    between atoms: C_8  and  N_10 
REMARK    3  A    between atoms: N_10  and  C_11 
REMARK    4  A    between atoms: N_14  and  C_15 
REMARK    5  A    between atoms: C_15  and  C_16 
ROOT
HETATM    1  N   UNL     1     -40.943 -49.234  10.665  1.00  0.00    -0.308 N 
HETATM    2  C   UNL     1     -41.041 -49.998  11.800  1.00  0.00     0.321 C 
HETATM    3  O   UNL     1     -41.681 -49.707  12.807  1.00  0.00    -0.247 OA
HETATM    4  N   UNL     1     -40.322 -51.171  11.749  1.00  0.00    -0.336 N 
HETATM    5  H   UNL     1     -40.425 -49.616   9.889  1.00  0.00     0.170 HD
HETATM    6  H   UNL     1     -40.143 -51.589  10.847  1.00  0.00     0.164 HD
ENDROOT
BRANCH   1   7
HETATM    7  C   UNL     1     -41.551 -47.967  10.490  1.00  0.00     0.051 A 
HETATM    8  C   UNL     1     -42.774 -47.782   9.842  1.00  0.00     0.035 A 
HETATM    9  C   UNL     1     -43.307 -46.507   9.684  1.00  0.00     0.058 A 
HETATM   10  C   UNL     1     -42.604 -45.440  10.195  1.00  0.00     0.141 A 
HETATM   11  N   UNL     1     -41.423 -45.559  10.848  1.00  0.00    -0.345 N 
HETATM   12  C   UNL     1     -40.930 -46.818  10.978  1.00  0.00     0.119 A 
ATOM     13  HN  UNL     1     -40.931 -44.747  11.222  1.00  0.00     0.167 HD
BRANCH  10  14
HETATM   14  O   UNL     1     -43.177 -44.200  10.005  1.00  0.00    -0.341 OA
HETATM   15  C   UNL     1     -42.807 -43.253  11.001  1.00  0.00     0.211 C 
ENDBRANCH  10  14
ENDBRANCH   1   7
BRANCH   4  16
HETATM   16  C   UNL     1     -40.396 -52.022  12.920  1.00  0.00     0.116 C 
HETATM   17  C   UNL     1     -39.068 -52.311  13.596  1.00  0.00     0.057 C 
HETATM   18  C   UNL     1     -39.254 -53.689  14.242  1.00  0.00     0.275 C 
HETATM   19  N   UNL     1     -40.587 -54.198  13.869  1.00  0.00     0.099 N 
HETATM   20  C   UNL     1     -40.958 -53.428  12.667  1.00  0.00     0.297 C 
BRANCH  19  21
HETATM   21  C   UNL     1     -41.603 -54.007  14.945  1.00  0.00     0.389 C 
BRANCH  21  22
HETATM   22  C   UNL     1     -42.977 -54.708  14.820  1.00  0.00     0.413 C 
HETATM   23  F   UNL     1     -42.947 -56.007  15.188  1.00  0.00    -0.169 F 
HETATM   24  F   UNL     1     -43.892 -54.089  15.606  1.00  0.00    -0.169 F 
HETATM   25  F   UNL     1     -43.439 -54.654  13.549  1.00  0.00    -0.169 F 
ENDBRANCH  21  22
ENDBRANCH  19  21
ENDBRANCH   4  16
TORSDOF 5
ENDMDL
MODEL 4
REMARK VINA RESULT:      -6.1      4.150      8.222
REMARK  5 active torsions:
REMARK  status: ('A' for Active; 'I' for Inactive)
REMARK    1  A    between atoms: O_2  and  C_3 
REMARK    2  A    between atoms: C_6  and  N_7 
REMARK       I    between atoms: N_7  and  C_8 
REMARK       I    between atoms: C_8  and  N_10 
REMARK    3  A    between atoms: N_10  and  C_11 
REMARK    4  A    between atoms: N_14  and  C_15 
REMARK    5  A    between atoms: C_15  and  C_16 
ROOT
HETATM    1  N   UNL     1     -41.968 -51.634  11.788  1.00  0.00    -0.308 N 
HETATM    2  C   UNL     1     -41.833 -50.314  12.134  1.00  0.00     0.321 C 
HETATM    3  O   UNL     1     -41.929 -49.856  13.269  1.00  0.00    -0.247 OA
HETATM    4  N   UNL     1     -41.586 -49.479  11.066  1.00  0.00    -0.336 N 
HETATM    5  H   UNL     1     -41.814 -51.883  10.823  1.00  0.00     0.170 HD
HETATM    6  H   UNL     1     -41.128 -49.860  10.251  1.00  0.00     0.164 HD
ENDROOT
BRANCH   1   7
HETATM    7  C   UNL     1     -42.270 -52.679  12.696  1.00  0.00     0.051 A 
HETATM    8  C   UNL     1     -41.303 -53.347  13.450  1.00  0.00     0.035 A 
HETATM    9  C   UNL     1     -41.662 -54.381  14.309  1.00  0.00     0.058 A 
HETATM   10  C   UNL     1     -42.995 -54.714  14.404  1.00  0.00     0.141 A 
HETATM   11  N   UNL     1     -43.978 -54.090  13.713  1.00  0.00    -0.345 N 
HETATM   12  C   UNL     1     -43.589 -53.090  12.879  1.00  0.00     0.119 A 
ATOM     13  HN  UNL     1     -44.958 -54.357  13.812  1.00  0.00     0.167 HD
BRANCH  10  14
HETATM   14  O   UNL     1     -43.292 -55.748  15.266  1.00  0.00    -0.341 OA
HETATM   15  C   UNL     1     -42.326 -55.910  16.299  1.00  0.00     0.211 C 
ENDBRANCH  10  14
ENDBRANCH   1   7
BRANCH   4  16
HETATM   16  C   UNL     1     -41.426 -48.072  11.376  1.00  0.00     0.116 C 
HETATM   17  C   UNL     1     -42.066 -47.115  10.387  1.00  0.00     0.057 C 
HETATM   18  C   UNL     1     -41.205 -45.849  10.461  1.00  0.00     0.275 C 
HETATM   19  N   UNL     1     -40.076 -46.110  11.373  1.00  0.00     0.099 N 
HETATM   20  C   UNL     1     -39.973 -47.581  11.427  1.00  0.00     0.297 C 
BRANCH  19  21
HETATM   21  C   UNL     1     -40.293 -45.552  12.740  1.00  0.00     0.389 C 
BRANCH  21  22
HETATM   22  C   UNL     1     -39.074 -45.075  13.564  1.00  0.00     0.413 C 
HETATM   23  F   UNL     1     -38.236 -46.077  13.904  1.00  0.00    -0.169 F 
HETATM   24  F   UNL     1     -38.353 -44.172  12.854  1.00  0.00    -0.169 F 
HETATM   25  F   UNL     1     -39.466 -44.464  14.706  1.00  0.00    -0.169 F 
ENDBRANCH  21  22
ENDBRANCH  19  21
ENDBRANCH   4  16
TORSDOF 5
ENDMDL
MODEL 5
REMARK VINA RESULT:      -6.0      4.490      7.777
REMARK  5 active torsions:
REMARK  status: ('A' for Active; 'I' for Inactive)
REMARK    1  A    between atoms: O_2  and  C_3 
REMARK    2  A    between atoms: C_6  and  N_7 
REMARK       I    between atoms: N_7  and  C_8 
REMARK       I    between atoms: C_8  and  N_10 
REMARK    3  A    between atoms: N_10  and  C_11 
REMARK    4  A    between atoms: N_14  and  C_15 
REMARK    5  A    between atoms: C_15  and  C_16 
ROOT
HETATM    1  N   UNL     1     -40.526 -51.083  11.451  1.00  0.00    -0.308 N 
HETATM    2  C   UNL     1     -41.189 -49.897  11.634  1.00  0.00     0.321 C 
HETATM    3  O   UNL     1     -41.758 -49.544  12.664  1.00  0.00    -0.247 OA
HETATM    4  N   UNL     1     -41.197 -49.083  10.522  1.00  0.00    -0.336 N 
HETATM    5  H   UNL     1     -40.058 -51.226  10.569  1.00  0.00     0.170 HD
HETATM    6  H   UNL     1     -40.442 -49.168   9.857  1.00  0.00     0.164 HD
ENDROOT
BRANCH   1   7
HETATM    7  C   UNL     1     -40.418 -52.105  12.425  1.00  0.00     0.051 A 
HETATM    8  C   UNL     1     -41.277 -53.205  12.486  1.00  0.00     0.035 A 
HETATM    9  C   UNL     1     -41.131 -54.165  13.483  1.00  0.00     0.058 A 
HETATM   10  C   UNL     1     -40.111 -54.006  14.394  1.00  0.00     0.141 A 
HETATM   11  N   UNL     1     -39.238 -52.971  14.375  1.00  0.00    -0.345 N 
HETATM   12  C   UNL     1     -39.415 -52.051  13.391  1.00  0.00     0.119 A 
ATOM     13  HN  UNL     1     -38.488 -52.887  15.061  1.00  0.00     0.167 HD
BRANCH  10  14
HETATM   14  O   UNL     1     -40.017 -54.984  15.362  1.00  0.00    -0.341 OA
HETATM   15  C   UNL     1     -38.675 -55.282  15.728  1.00  0.00     0.211 C 
ENDBRANCH  10  14
ENDBRANCH   1   7
BRANCH   4  16
HETATM   16  C   UNL     1     -41.878 -47.811  10.662  1.00  0.00     0.116 C 
HETATM   17  C   UNL     1     -42.983 -47.554   9.654  1.00  0.00     0.057 C 
HETATM   18  C   UNL     1     -43.019 -46.029   9.500  1.00  0.00     0.275 C 
HETATM   19  N   UNL     1     -41.924 -45.457  10.306  1.00  0.00     0.099 N 
HETATM   20  C   UNL     1     -40.982 -46.575  10.503  1.00  0.00     0.297 C 
BRANCH  19  21
HETATM   21  C   UNL     1     -42.387 -44.927  11.621  1.00  0.00     0.389 C 
BRANCH  21  22
HETATM   22  C   UNL     1     -42.625 -43.407  11.782  1.00  0.00     0.413 C 
HETATM   23  F   UNL     1     -41.495 -42.677  11.673  1.00  0.00    -0.169 F 
HETATM   24  F   UNL     1     -43.483 -42.964  10.831  1.00  0.00    -0.169 F 
HETATM   25  F   UNL     1     -43.180 -43.125  12.984  1.00  0.00    -0.169 F 
ENDBRANCH  21  22
ENDBRANCH  19  21
ENDBRANCH   4  16
TORSDOF 5
ENDMDL
MODEL 6
REMARK VINA RESULT:      -5.8      4.716      8.120
REMARK  5 active torsions:
REMARK  status: ('A' for Active; 'I' for Inactive)
REMARK    1  A    between atoms: O_2  and  C_3 
REMARK    2  A    between atoms: C_6  and  N_7 
REMARK       I    between atoms: N_7  and  C_8 
REMARK       I    between atoms: C_8  and  N_10 
REMARK    3  A    between atoms: N_10  and  C_11 
REMARK    4  A    between atoms: N_14  and  C_15 
REMARK    5  A    between atoms: C_15  and  C_16 
ROOT
HETATM    1  N   UNL     1     -41.515 -52.743  13.001  1.00  0.00    -0.308 N 
HETATM    2  C   UNL     1     -41.273 -51.394  12.946  1.00  0.00     0.321 C 
HETATM    3  O   UNL     1     -40.436 -50.788  13.611  1.00  0.00    -0.247 OA
HETATM    4  N   UNL     1     -42.082 -50.716  12.063  1.00  0.00    -0.336 N 
HETATM    5  H   UNL     1     -42.197 -53.122  12.362  1.00  0.00     0.170 HD
HETATM    6  H   UNL     1     -42.458 -51.216  11.270  1.00  0.00     0.164 HD
ENDROOT
BRANCH   1   7
HETATM    7  C   UNL     1     -40.848 -53.648  13.862  1.00  0.00     0.051 A 
HETATM    8  C   UNL     1     -41.404 -54.135  15.047  1.00  0.00     0.035 A 
HETATM    9  C   UNL     1     -40.688 -55.006  15.862  1.00  0.00     0.058 A 
HETATM   10  C   UNL     1     -39.426 -55.384  15.459  1.00  0.00     0.141 A 
HETATM   11  N   UNL     1     -38.842 -54.959  14.314  1.00  0.00    -0.345 N 
HETATM   12  C   UNL     1     -39.569 -54.104  13.547  1.00  0.00     0.119 A 
ATOM     13  HN  UNL     1     -37.908 -55.264  14.041  1.00  0.00     0.167 HD
BRANCH  10  14
HETATM   14  O   UNL     1     -38.761 -56.243  16.308  1.00  0.00    -0.341 OA
HETATM   15  C   UNL     1     -37.658 -55.634  16.970  1.00  0.00     0.211 C 
ENDBRANCH  10  14
ENDBRANCH   1   7
BRANCH   4  16
HETATM   16  C   UNL     1     -41.863 -49.287  11.959  1.00  0.00     0.116 C 
HETATM   17  C   UNL     1     -43.114 -48.431  12.056  1.00  0.00     0.057 C 
HETATM   18  C   UNL     1     -42.793 -47.182  11.228  1.00  0.00     0.275 C 
HETATM   19  N   UNL     1     -41.465 -47.364  10.612  1.00  0.00     0.099 N 
HETATM   20  C   UNL     1     -41.239 -48.821  10.636  1.00  0.00     0.297 C 
BRANCH  19  21
HETATM   21  C   UNL     1     -40.380 -46.655  11.351  1.00  0.00     0.389 C 
BRANCH  21  22
HETATM   22  C   UNL     1     -39.865 -45.297  10.819  1.00  0.00     0.413 C 
HETATM   23  F   UNL     1     -40.857 -44.454  10.462  1.00  0.00    -0.169 F 
HETATM   24  F   UNL     1     -39.128 -44.671  11.768  1.00  0.00    -0.169 F 
HETATM   25  F   UNL     1     -39.066 -45.468   9.740  1.00  0.00    -0.169 F 
ENDBRANCH  21  22
ENDBRANCH  19  21
ENDBRANCH   4  16
TORSDOF 5
ENDMDL
MODEL 7
REMARK VINA RESULT:      -5.8      3.418      4.072
REMARK  5 active torsions:
REMARK  status: ('A' for Active; 'I' for Inactive)
REMARK    1  A    between atoms: O_2  and  C_3 
REMARK    2  A    between atoms: C_6  and  N_7 
REMARK       I    between atoms: N_7  and  C_8 
REMARK       I    between atoms: C_8  and  N_10 
REMARK    3  A    between atoms: N_10  and  C_11 
REMARK    4  A    between atoms: N_14  and  C_15 
REMARK    5  A    between atoms: C_15  and  C_16 
ROOT
HETATM    1  N   UNL     1     -42.687 -48.339  12.228  1.00  0.00    -0.308 N 
HETATM    2  C   UNL     1     -42.295 -49.653  12.236  1.00  0.00     0.321 C 
HETATM    3  O   UNL     1     -41.234 -50.087  11.795  1.00  0.00    -0.247 OA
HETATM    4  N   UNL     1     -43.222 -50.510  12.784  1.00  0.00    -0.336 N 
HETATM    5  H   UNL     1     -43.564 -48.110  12.670  1.00  0.00     0.170 HD
HETATM    6  H   UNL     1     -43.867 -50.149  13.472  1.00  0.00     0.164 HD
ENDROOT
BRANCH   1   7
HETATM    7  C   UNL     1     -41.932 -47.274  11.679  1.00  0.00     0.051 A 
HETATM    8  C   UNL     1     -41.036 -46.503  12.422  1.00  0.00     0.035 A 
HETATM    9  C   UNL     1     -40.339 -45.456  11.827  1.00  0.00     0.058 A 
HETATM   10  C   UNL     1     -40.547 -45.213  10.488  1.00  0.00     0.141 A 
HETATM   11  N   UNL     1     -41.389 -45.939   9.713  1.00  0.00    -0.345 N 
HETATM   12  C   UNL     1     -42.056 -46.948  10.329  1.00  0.00     0.119 A 
ATOM     13  HN  UNL     1     -41.515 -45.737   8.721  1.00  0.00     0.167 HD
BRANCH  10  14
HETATM   14  O   UNL     1     -39.834 -44.161   9.953  1.00  0.00    -0.341 OA
HETATM   15  C   UNL     1     -38.791 -44.578   9.080  1.00  0.00     0.211 C 
ENDBRANCH  10  14
ENDBRANCH   1   7
BRANCH   4  16
HETATM   16  C   UNL     1     -42.855 -51.912  12.825  1.00  0.00     0.116 C 
HETATM   17  C   UNL     1     -43.991 -52.887  12.575  1.00  0.00     0.057 C 
HETATM   18  C   UNL     1     -43.600 -54.147  13.355  1.00  0.00     0.275 C 
HETATM   19  N   UNL     1     -42.352 -53.866  14.090  1.00  0.00     0.099 N 
HETATM   20  C   UNL     1     -42.288 -52.395  14.168  1.00  0.00     0.297 C 
BRANCH  19  21
HETATM   21  C   UNL     1     -41.141 -54.406  13.406  1.00  0.00     0.389 C 
BRANCH  21  22
HETATM   22  C   UNL     1     -39.763 -54.277  14.096  1.00  0.00     0.413 C 
HETATM   23  F   UNL     1     -39.837 -54.309  15.444  1.00  0.00    -0.169 F 
HETATM   24  F   UNL     1     -38.951 -55.293  13.715  1.00  0.00    -0.169 F 
HETATM   25  F   UNL     1     -39.149 -53.122  13.748  1.00  0.00    -0.169 F 
ENDBRANCH  21  22
ENDBRANCH  19  21
ENDBRANCH   4  16
TORSDOF 5
ENDMDL
MODEL 8
REMARK VINA RESULT:      -5.7      3.602      4.059
REMARK  5 active torsions:
REMARK  status: ('A' for Active; 'I' for Inactive)
REMARK    1  A    between atoms: O_2  and  C_3 
REMARK    2  A    between atoms: C_6  and  N_7 
REMARK       I    between atoms: N_7  and  C_8 
REMARK       I    between atoms: C_8  and  N_10 
REMARK    3  A    between atoms: N_10  and  C_11 
REMARK    4  A    between atoms: N_14  and  C_15 
REMARK    5  A    between atoms: C_15  and  C_16 
ROOT
HETATM    1  N   UNL     1     -39.875 -52.756  14.003  1.00  0.00    -0.308 N 
HETATM    2  C   UNL     1     -41.209 -52.769  14.320  1.00  0.00     0.321 C 
HETATM    3  O   UNL     1     -41.793 -51.928  14.999  1.00  0.00    -0.247 OA
HETATM    4  N   UNL     1     -41.893 -53.853  13.818  1.00  0.00    -0.336 N 
HETATM    5  H   UNL     1     -39.533 -53.483  13.393  1.00  0.00     0.170 HD
HETATM    6  H   UNL     1     -41.547 -54.297  12.979  1.00  0.00     0.164 HD
ENDROOT
BRANCH   1   7
HETATM    7  C   UNL     1     -38.951 -51.775  14.439  1.00  0.00     0.051 A 
HETATM    8  C   UNL     1     -38.450 -50.768  13.611  1.00  0.00     0.035 A 
HETATM    9  C   UNL     1     -37.527 -49.846  14.094  1.00  0.00     0.058 A 
HETATM   10  C   UNL     1     -37.136 -49.946  15.411  1.00  0.00     0.141 A 
HETATM   11  N   UNL     1     -37.601 -50.889  16.265  1.00  0.00    -0.345 N 
HETATM   12  C   UNL     1     -38.495 -51.776  15.756  1.00  0.00     0.119 A 
ATOM     13  HN  UNL     1     -37.296 -50.931  17.237  1.00  0.00     0.167 HD
BRANCH  10  14
HETATM   14  O   UNL     1     -36.216 -49.010  15.833  1.00  0.00    -0.341 OA
HETATM   15  C   UNL     1     -36.798 -47.961  16.599  1.00  0.00     0.211 C 
ENDBRANCH  10  14
ENDBRANCH   1   7
BRANCH   4  16
HETATM   16  C   UNL     1     -43.311 -53.912  14.116  1.00  0.00     0.116 C 
HETATM   17  C   UNL     1     -43.861 -55.304  14.373  1.00  0.00     0.057 C 
HETATM   18  C   UNL     1     -45.327 -55.228  13.932  1.00  0.00     0.275 C 
HETATM   19  N   UNL     1     -45.570 -53.889  13.363  1.00  0.00     0.099 N 
HETATM   20  C   UNL     1     -44.230 -53.387  13.004  1.00  0.00     0.297 C 
BRANCH  19  21
HETATM   21  C   UNL     1     -46.234 -52.961  14.324  1.00  0.00     0.389 C 
BRANCH  21  22
HETATM   22  C   UNL     1     -46.478 -51.491  13.909  1.00  0.00     0.413 C 
HETATM   23  F   UNL     1     -46.933 -51.363  12.643  1.00  0.00    -0.169 F 
HETATM   24  F   UNL     1     -47.397 -50.920  14.725  1.00  0.00    -0.169 F 
HETATM   25  F   UNL     1     -45.344 -50.761  14.011  1.00  0.00    -0.169 F 
ENDBRANCH  21  22
ENDBRANCH  19  21
ENDBRANCH   4  16
TORSDOF 5
ENDMDL
MODEL 9
REMARK VINA RESULT:      -5.7      4.024      7.910
REMARK  5 active torsions:
REMARK  status: ('A' for Active; 'I' for Inactive)
REMARK    1  A    between atoms: O_2  and  C_3 
REMARK    2  A    between atoms: C_6  and  N_7 
REMARK       I    between atoms: N_7  and  C_8 
REMARK       I    between atoms: C_8  and  N_10 
REMARK    3  A    between atoms: N_10  and  C_11 
REMARK    4  A    between atoms: N_14  and  C_15 
REMARK    5  A    between atoms: C_15  and  C_16 
ROOT
HETATM    1  N   UNL     1     -41.538 -51.410  11.892  1.00  0.00    -0.308 N 
HETATM    2  C   UNL     1     -42.062 -50.143  11.919  1.00  0.00     0.321 C 
HETATM    3  O   UNL     1     -42.896 -49.729  12.720  1.00  0.00    -0.247 OA
HETATM    4  N   UNL     1     -41.585 -49.319  10.924  1.00  0.00    -0.336 N 
HETATM    5  H   UNL     1     -40.821 -51.605  11.210  1.00  0.00     0.170 HD
HETATM    6  H   UNL     1     -40.667 -49.502  10.545  1.00  0.00     0.164 HD
ENDROOT
BRANCH   1   7
HETATM    7  C   UNL     1     -41.902 -52.453  12.778  1.00  0.00     0.051 A 
HETATM    8  C   UNL     1     -41.034 -52.995  13.728  1.00  0.00     0.035 A 
HETATM    9  C   UNL     1     -41.446 -54.034  14.556  1.00  0.00     0.058 A 
HETATM   10  C   UNL     1     -42.735 -54.501  14.421  1.00  0.00     0.141 A 
HETATM   11  N   UNL     1     -43.626 -54.003  13.531  1.00  0.00    -0.345 N 
HETATM   12  C   UNL     1     -43.186 -52.994  12.736  1.00  0.00     0.119 A 
ATOM     13  HN  UNL     1     -44.577 -54.367  13.462  1.00  0.00     0.167 HD
BRANCH  10  14
HETATM   14  O   UNL     1     -43.087 -55.534  15.263  1.00  0.00    -0.341 OA
HETATM   15  C   UNL     1     -42.717 -55.303  16.618  1.00  0.00     0.211 C 
ENDBRANCH  10  14
ENDBRANCH   1   7
BRANCH   4  16
HETATM   16  C   UNL     1     -42.101 -47.965  10.910  1.00  0.00     0.116 C 
HETATM   17  C   UNL     1     -43.070 -47.651   9.784  1.00  0.00     0.057 C 
HETATM   18  C   UNL     1     -42.889 -46.152   9.523  1.00  0.00     0.275 C 
HETATM   19  N   UNL     1     -41.802 -45.660  10.391  1.00  0.00     0.099 N 
HETATM   20  C   UNL     1     -41.038 -46.868  10.754  1.00  0.00     0.297 C 
BRANCH  19  21
HETATM   21  C   UNL     1     -42.304 -44.972  11.616  1.00  0.00     0.389 C 
BRANCH  21  22
HETATM   22  C   UNL     1     -42.602 -43.455  11.563  1.00  0.00     0.413 C 
HETATM   23  F   UNL     1     -43.509 -43.123  10.618  1.00  0.00    -0.169 F 
HETATM   24  F   UNL     1     -43.090 -43.031  12.754  1.00  0.00    -0.169 F 
HETATM   25  F   UNL     1     -41.477 -42.745  11.316  1.00  0.00    -0.169 F 
ENDBRANCH  21  22
ENDBRANCH  19  21
ENDBRANCH   4  16
TORSDOF 5
ENDMDL
