MODEL 1
REMARK VINA RESULT:      -5.6      0.000      0.000
REMARK  5 active torsions:
REMARK  status: ('A' for Active; 'I' for Inactive)
REMARK    1  A    between atoms: C_4  and  C_5 
REMARK    2  A    between atoms: C_5  and  C_6 
REMARK    3  A    between atoms: C_6  and  N_7 
REMARK       I    between atoms: N_7  and  C_8 
REMARK       I    between atoms: C_8  and  N_10 
REMARK    4  A    between atoms: N_10  and  C_11 
REMARK    5  A    between atoms: C_11  and  C_12 
ROOT
HETATM    1  N   UNL     1     -41.902 -51.348  11.782  1.00  0.00    -0.343 N 
HETATM    2  C   UNL     1     -42.367 -52.416  12.506  1.00  0.00     0.316 C 
HETATM    3  O   UNL     1     -41.755 -52.935  13.428  1.00  0.00    -0.247 OA
HETATM    4  N   UNL     1     -43.583 -52.852  12.050  1.00  0.00    -0.341 N 
HETATM    5  H   UNL     1     -42.302 -51.224  10.864  1.00  0.00     0.164 HD
HETATM    6  H   UNL     1     -44.155 -52.194  11.541  1.00  0.00     0.164 HD
ENDROOT
BRANCH   1   7
HETATM    7  C   UNL     1     -40.525 -50.916  11.985  1.00  0.00     0.129 C 
BRANCH   7   8
HETATM    8  C   UNL     1     -40.399 -49.571  12.702  1.00  0.00     0.061 C 
BRANCH   8   9
HETATM    9  C   UNL     1     -40.536 -48.389  11.799  1.00  0.00    -0.023 A 
HETATM   10  C   UNL     1     -39.813 -47.212  11.802  1.00  0.00     0.118 A 
HETATM   11  N   UNL     1     -40.320 -46.445  10.795  1.00  0.00    -0.308 N 
HETATM   12  C   UNL     1     -39.885 -45.126  10.399  1.00  0.00     0.177 C 
HETATM   13  N   UNL     1     -41.330 -47.035  10.134  1.00  0.00    -0.310 N 
HETATM   14  C   UNL     1     -41.468 -48.209  10.751  1.00  0.00     0.115 A 
ATOM     15  HN  UNL     1     -41.865 -46.671   9.345  1.00  0.00     0.186 HD
ENDBRANCH   8   9
ENDBRANCH   7   8
ENDBRANCH   1   7
BRANCH   4  16
HETATM   16  C   UNL     1     -44.303 -53.902  12.754  1.00  0.00     0.156 C 
BRANCH  16  17
HETATM   17  C   UNL     1     -45.627 -53.417  13.346  1.00  0.00     0.139 C 
HETATM   18  C   UNL     1     -45.973 -51.966  13.043  1.00  0.00     0.035 C 
HETATM   19  C   UNL     1     -46.676 -51.474  14.293  1.00  0.00     0.029 C 
HETATM   20  C   UNL     1     -46.669 -52.660  15.235  1.00  0.00     0.168 C 
HETATM   21  O   UNL     1     -45.619 -53.518  14.781  1.00  0.00    -0.384 OA
ENDBRANCH  16  17
ENDBRANCH   4  16
TORSDOF 5
ENDMDL
MODEL 2
REMARK VINA RESULT:      -5.6      1.391      1.723
REMARK  5 active torsions:
REMARK  status: ('A' for Active; 'I' for Inactive)
REMARK    1  A    between atoms: C_4  and  C_5 
REMARK    2  A    between atoms: C_5  and  C_6 
REMARK    3  A    between atoms: C_6  and  N_7 
REMARK       I    between atoms: N_7  and  C_8 
REMARK       I    between atoms: C_8  and  N_10 
REMARK    4  A    between atoms: N_10  and  C_11 
REMARK    5  A    between atoms: C_11  and  C_12 
ROOT
HETATM    1  N   UNL     1     -42.028 -51.267  11.698  1.00  0.00    -0.343 N 
HETATM    2  C   UNL     1     -42.459 -52.271  12.527  1.00  0.00     0.316 C 
HETATM    3  O   UNL     1     -41.941 -52.541  13.599  1.00  0.00    -0.247 OA
HETATM    4  N   UNL     1     -43.519 -52.955  11.992  1.00  0.00    -0.341 N 
HETATM    5  H   UNL     1     -42.289 -51.349  10.726  1.00  0.00     0.164 HD
HETATM    6  H   UNL     1     -44.083 -52.479  11.304  1.00  0.00     0.164 HD
ENDROOT
BRANCH   1   7
HETATM    7  C   UNL     1     -40.770 -50.600  12.008  1.00  0.00     0.129 C 
BRANCH   7   8
HETATM    8  C   UNL     1     -40.919 -49.109  12.307  1.00  0.00     0.061 C 
BRANCH   8   9
HETATM    9  C   UNL     1     -41.948 -48.424  11.468  1.00  0.00    -0.023 A 
HETATM   10  C   UNL     1     -41.912 -48.143  10.116  1.00  0.00     0.118 A 
HETATM   11  N   UNL     1     -43.079 -47.498   9.825  1.00  0.00    -0.308 N 
HETATM   12  C   UNL     1     -43.507 -47.009   8.536  1.00  0.00     0.177 C 
HETATM   13  N   UNL     1     -43.876 -47.331  10.894  1.00  0.00    -0.310 N 
HETATM   14  C   UNL     1     -43.183 -47.882  11.893  1.00  0.00     0.115 A 
ATOM     15  HN  UNL     1     -44.793 -46.889  10.933  1.00  0.00     0.186 HD
ENDBRANCH   8   9
ENDBRANCH   7   8
ENDBRANCH   1   7
BRANCH   4  16
HETATM   16  C   UNL     1     -44.199 -53.984  12.765  1.00  0.00     0.156 C 
BRANCH  16  17
HETATM   17  C   UNL     1     -45.501 -53.488  13.396  1.00  0.00     0.139 C 
HETATM   18  C   UNL     1     -46.091 -52.241  12.752  1.00  0.00     0.035 C 
HETATM   19  C   UNL     1     -46.706 -51.473  13.905  1.00  0.00     0.029 C 
HETATM   20  C   UNL     1     -46.412 -52.312  15.132  1.00  0.00     0.168 C 
HETATM   21  O   UNL     1     -45.307 -53.149  14.781  1.00  0.00    -0.384 OA
ENDBRANCH  16  17
ENDBRANCH   4  16
TORSDOF 5
ENDMDL
MODEL 3
REMARK VINA RESULT:      -5.6      2.661      3.933
REMARK  5 active torsions:
REMARK  status: ('A' for Active; 'I' for Inactive)
REMARK    1  A    between atoms: C_4  and  C_5 
REMARK    2  A    between atoms: C_5  and  C_6 
REMARK    3  A    between atoms: C_6  and  N_7 
REMARK       I    between atoms: N_7  and  C_8 
REMARK       I    between atoms: C_8  and  N_10 
REMARK    4  A    between atoms: N_10  and  C_11 
REMARK    5  A    between atoms: C_11  and  C_12 
ROOT
HETATM    1  N   UNL     1     -42.270 -49.585  11.530  1.00  0.00    -0.343 N 
HETATM    2  C   UNL     1     -41.388 -50.516  12.015  1.00  0.00     0.316 C 
HETATM    3  O   UNL     1     -40.380 -50.239  12.646  1.00  0.00    -0.247 OA
HETATM    4  N   UNL     1     -41.756 -51.792  11.679  1.00  0.00    -0.341 N 
HETATM    5  H   UNL     1     -42.853 -49.882  10.761  1.00  0.00     0.164 HD
HETATM    6  H   UNL     1     -42.730 -51.958  11.470  1.00  0.00     0.164 HD
ENDROOT
BRANCH   1   7
HETATM    7  C   UNL     1     -41.902 -48.177  11.597  1.00  0.00     0.129 C 
BRANCH   7   8
HETATM    8  C   UNL     1     -41.920 -47.468  10.243  1.00  0.00     0.061 C 
BRANCH   8   9
HETATM    9  C   UNL     1     -43.227 -47.568   9.525  1.00  0.00    -0.023 A 
HETATM   10  C   UNL     1     -44.503 -47.413  10.030  1.00  0.00     0.118 A 
HETATM   11  N   UNL     1     -45.358 -47.612   8.986  1.00  0.00    -0.308 N 
HETATM   12  C   UNL     1     -46.800 -47.547   9.015  1.00  0.00     0.177 C 
HETATM   13  N   UNL     1     -44.731 -47.892   7.831  1.00  0.00    -0.310 N 
HETATM   14  C   UNL     1     -43.439 -47.878   8.162  1.00  0.00     0.115 A 
ATOM     15  HN  UNL     1     -45.145 -48.073   6.917  1.00  0.00     0.186 HD
ENDBRANCH   8   9
ENDBRANCH   7   8
ENDBRANCH   1   7
BRANCH   4  16
HETATM   16  C   UNL     1     -41.017 -52.935  12.195  1.00  0.00     0.156 C 
BRANCH  16  17
HETATM   17  C   UNL     1     -41.822 -53.754  13.205  1.00  0.00     0.139 C 
HETATM   18  C   UNL     1     -43.311 -53.858  12.906  1.00  0.00     0.035 C 
HETATM   19  C   UNL     1     -43.974 -53.856  14.270  1.00  0.00     0.029 C 
HETATM   20  C   UNL     1     -42.831 -53.729  15.256  1.00  0.00     0.168 C 
HETATM   21  O   UNL     1     -41.735 -53.180  14.521  1.00  0.00    -0.384 OA
ENDBRANCH  16  17
ENDBRANCH   4  16
TORSDOF 5
ENDMDL
MODEL 4
REMARK VINA RESULT:      -5.5      2.880      3.757
REMARK  5 active torsions:
REMARK  status: ('A' for Active; 'I' for Inactive)
REMARK    1  A    between atoms: C_4  and  C_5 
REMARK    2  A    between atoms: C_5  and  C_6 
REMARK    3  A    between atoms: C_6  and  N_7 
REMARK       I    between atoms: N_7  and  C_8 
REMARK       I    between atoms: C_8  and  N_10 
REMARK    4  A    between atoms: N_10  and  C_11 
REMARK    5  A    between atoms: C_11  and  C_12 
ROOT
HETATM    1  N   UNL     1     -42.160 -49.266  11.143  1.00  0.00    -0.343 N 
HETATM    2  C   UNL     1     -42.246 -49.471  12.496  1.00  0.00     0.316 C 
HETATM    3  O   UNL     1     -41.811 -48.695  13.333  1.00  0.00    -0.247 OA
HETATM    4  N   UNL     1     -42.847 -50.665  12.794  1.00  0.00    -0.341 N 
HETATM    5  H   UNL     1     -42.232 -50.088  10.562  1.00  0.00     0.164 HD
HETATM    6  H   UNL     1     -43.460 -51.067  12.100  1.00  0.00     0.164 HD
ENDROOT
BRANCH   1   7
HETATM    7  C   UNL     1     -41.344 -48.161  10.656  1.00  0.00     0.129 C 
BRANCH   7   8
HETATM    8  C   UNL     1     -42.155 -46.960  10.170  1.00  0.00     0.061 C 
BRANCH   8   9
HETATM    9  C   UNL     1     -43.405 -47.331   9.440  1.00  0.00    -0.023 A 
HETATM   10  C   UNL     1     -44.702 -47.376   9.916  1.00  0.00     0.118 A 
HETATM   11  N   UNL     1     -45.482 -47.782   8.873  1.00  0.00    -0.308 N 
HETATM   12  C   UNL     1     -46.913 -47.972   8.877  1.00  0.00     0.177 C 
HETATM   13  N   UNL     1     -44.786 -48.012   7.747  1.00  0.00    -0.310 N 
HETATM   14  C   UNL     1     -43.525 -47.750   8.095  1.00  0.00     0.115 A 
ATOM     15  HN  UNL     1     -45.139 -48.314   6.839  1.00  0.00     0.186 HD
ENDBRANCH   8   9
ENDBRANCH   7   8
ENDBRANCH   1   7
BRANCH   4  16
HETATM   16  C   UNL     1     -43.139 -51.020  14.176  1.00  0.00     0.156 C 
BRANCH  16  17
HETATM   17  C   UNL     1     -44.508 -51.682  14.340  1.00  0.00     0.139 C 
HETATM   18  C   UNL     1     -45.394 -51.640  13.102  1.00  0.00     0.035 C 
HETATM   19  C   UNL     1     -46.800 -51.481  13.646  1.00  0.00     0.029 C 
HETATM   20  C   UNL     1     -46.630 -51.419  15.150  1.00  0.00     0.168 C 
HETATM   21  O   UNL     1     -45.270 -51.040  15.378  1.00  0.00    -0.384 OA
ENDBRANCH  16  17
ENDBRANCH   4  16
TORSDOF 5
ENDMDL
MODEL 5
REMARK VINA RESULT:      -5.4      2.731      6.989
REMARK  5 active torsions:
REMARK  status: ('A' for Active; 'I' for Inactive)
REMARK    1  A    between atoms: C_4  and  C_5 
REMARK    2  A    between atoms: C_5  and  C_6 
REMARK    3  A    between atoms: C_6  and  N_7 
REMARK       I    between atoms: N_7  and  C_8 
REMARK       I    between atoms: C_8  and  N_10 
REMARK    4  A    between atoms: N_10  and  C_11 
REMARK    5  A    between atoms: C_11  and  C_12 
ROOT
HETATM    1  N   UNL     1     -44.669 -52.742  12.099  1.00  0.00    -0.343 N 
HETATM    2  C   UNL     1     -43.408 -52.969  12.587  1.00  0.00     0.316 C 
HETATM    3  O   UNL     1     -43.177 -53.513  13.656  1.00  0.00    -0.247 OA
HETATM    4  N   UNL     1     -42.440 -52.483  11.748  1.00  0.00    -0.341 N 
HETATM    5  H   UNL     1     -44.755 -52.011  11.408  1.00  0.00     0.164 HD
HETATM    6  H   UNL     1     -42.681 -52.367  10.775  1.00  0.00     0.164 HD
ENDROOT
BRANCH   1   7
HETATM    7  C   UNL     1     -45.809 -52.986  12.973  1.00  0.00     0.129 C 
BRANCH   7   8
HETATM    8  C   UNL     1     -46.533 -51.713  13.414  1.00  0.00     0.061 C 
BRANCH   8   9
HETATM    9  C   UNL     1     -46.326 -51.368  14.853  1.00  0.00    -0.023 A 
HETATM   10  C   UNL     1     -47.247 -51.372  15.883  1.00  0.00     0.118 A 
HETATM   11  N   UNL     1     -46.577 -50.970  17.001  1.00  0.00    -0.308 N 
HETATM   12  C   UNL     1     -47.112 -50.825  18.334  1.00  0.00     0.177 C 
HETATM   13  N   UNL     1     -45.280 -50.698  16.776  1.00  0.00    -0.310 N 
HETATM   14  C   UNL     1     -45.132 -50.928  15.470  1.00  0.00     0.115 A 
ATOM     15  HN  UNL     1     -44.575 -50.390  17.445  1.00  0.00     0.186 HD
ENDBRANCH   8   9
ENDBRANCH   7   8
ENDBRANCH   1   7
BRANCH   4  16
HETATM   16  C   UNL     1     -41.032 -52.724  12.027  1.00  0.00     0.156 C 
BRANCH  16  17
HETATM   17  C   UNL     1     -40.297 -51.467  12.495  1.00  0.00     0.139 C 
HETATM   18  C   UNL     1     -40.421 -50.268  11.565  1.00  0.00     0.035 C 
HETATM   19  C   UNL     1     -39.079 -49.571  11.663  1.00  0.00     0.029 C 
HETATM   20  C   UNL     1     -38.269 -50.421  12.620  1.00  0.00     0.168 C 
HETATM   21  O   UNL     1     -38.885 -51.711  12.620  1.00  0.00    -0.384 OA
ENDBRANCH  16  17
ENDBRANCH   4  16
TORSDOF 5
ENDMDL
MODEL 6
REMARK VINA RESULT:      -5.4      2.471      6.750
REMARK  5 active torsions:
REMARK  status: ('A' for Active; 'I' for Inactive)
REMARK    1  A    between atoms: C_4  and  C_5 
REMARK    2  A    between atoms: C_5  and  C_6 
REMARK    3  A    between atoms: C_6  and  N_7 
REMARK       I    between atoms: N_7  and  C_8 
REMARK       I    between atoms: C_8  and  N_10 
REMARK    4  A    between atoms: N_10  and  C_11 
REMARK    5  A    between atoms: C_11  and  C_12 
ROOT
HETATM    1  N   UNL     1     -41.645 -53.097  12.062  1.00  0.00    -0.343 N 
HETATM    2  C   UNL     1     -40.707 -52.098  12.100  1.00  0.00     0.316 C 
HETATM    3  O   UNL     1     -39.665 -52.163  12.735  1.00  0.00    -0.247 OA
HETATM    4  N   UNL     1     -41.094 -51.006  11.369  1.00  0.00    -0.341 N 
HETATM    5  H   UNL     1     -42.582 -52.820  11.806  1.00  0.00     0.164 HD
HETATM    6  H   UNL     1     -41.766 -51.152  10.630  1.00  0.00     0.164 HD
ENDROOT
BRANCH   1   7
HETATM    7  C   UNL     1     -41.497 -54.226  12.970  1.00  0.00     0.129 C 
BRANCH   7   8
HETATM    8  C   UNL     1     -42.347 -54.116  14.237  1.00  0.00     0.061 C 
BRANCH   8   9
HETATM    9  C   UNL     1     -43.745 -53.653  13.988  1.00  0.00    -0.023 A 
HETATM   10  C   UNL     1     -44.327 -52.446  14.324  1.00  0.00     0.118 A 
HETATM   11  N   UNL     1     -45.621 -52.508  13.895  1.00  0.00    -0.308 N 
HETATM   12  C   UNL     1     -46.629 -51.482  14.012  1.00  0.00     0.177 C 
HETATM   13  N   UNL     1     -45.929 -53.675  13.304  1.00  0.00    -0.310 N 
HETATM   14  C   UNL     1     -44.794 -54.373  13.372  1.00  0.00     0.115 A 
ATOM     15  HN  UNL     1     -46.820 -53.960  12.898  1.00  0.00     0.186 HD
ENDBRANCH   8   9
ENDBRANCH   7   8
ENDBRANCH   1   7
BRANCH   4  16
HETATM   16  C   UNL     1     -40.188 -49.881  11.186  1.00  0.00     0.156 C 
BRANCH  16  17
HETATM   17  C   UNL     1     -40.853 -48.533  11.471  1.00  0.00     0.139 C 
HETATM   18  C   UNL     1     -42.009 -48.179  10.547  1.00  0.00     0.035 C 
HETATM   19  C   UNL     1     -41.910 -46.677  10.372  1.00  0.00     0.029 C 
HETATM   20  C   UNL     1     -40.697 -46.271  11.184  1.00  0.00     0.168 C 
HETATM   21  O   UNL     1     -39.910 -47.454  11.337  1.00  0.00    -0.384 OA
ENDBRANCH  16  17
ENDBRANCH   4  16
TORSDOF 5
ENDMDL
MODEL 7
REMARK VINA RESULT:      -5.2      2.965      6.518
REMARK  5 active torsions:
REMARK  status: ('A' for Active; 'I' for Inactive)
REMARK    1  A    between atoms: C_4  and  C_5 
REMARK    2  A    between atoms: C_5  and  C_6 
REMARK    3  A    between atoms: C_6  and  N_7 
REMARK       I    between atoms: N_7  and  C_8 
REMARK       I    between atoms: C_8  and  N_10 
REMARK    4  A    between atoms: N_10  and  C_11 
REMARK    5  A    between atoms: C_11  and  C_12 
ROOT
HETATM    1  N   UNL     1     -41.362 -51.059  11.365  1.00  0.00    -0.343 N 
HETATM    2  C   UNL     1     -41.035 -49.731  11.464  1.00  0.00     0.316 C 
HETATM    3  O   UNL     1     -40.116 -49.303  12.146  1.00  0.00    -0.247 OA
HETATM    4  N   UNL     1     -41.883 -48.941  10.734  1.00  0.00    -0.341 N 
HETATM    5  H   UNL     1     -42.305 -51.265  11.071  1.00  0.00     0.164 HD
HETATM    6  H   UNL     1     -42.373 -49.369   9.962  1.00  0.00     0.164 HD
ENDROOT
BRANCH   1   7
HETATM    7  C   UNL     1     -40.709 -52.006  12.260  1.00  0.00     0.129 C 
BRANCH   7   8
HETATM    8  C   UNL     1     -41.491 -52.280  13.545  1.00  0.00     0.061 C 
BRANCH   8   9
HETATM    9  C   UNL     1     -42.967 -52.395  13.342  1.00  0.00    -0.023 A 
HETATM   10  C   UNL     1     -43.970 -51.571  13.815  1.00  0.00     0.118 A 
HETATM   11  N   UNL     1     -45.146 -52.101  13.371  1.00  0.00    -0.308 N 
HETATM   12  C   UNL     1     -46.475 -51.588  13.601  1.00  0.00     0.177 C 
HETATM   13  N   UNL     1     -44.984 -53.219  12.644  1.00  0.00    -0.310 N 
HETATM   14  C   UNL     1     -43.663 -53.404  12.638  1.00  0.00     0.115 A 
ATOM     15  HN  UNL     1     -45.702 -53.792  12.201  1.00  0.00     0.186 HD
ENDBRANCH   8   9
ENDBRANCH   7   8
ENDBRANCH   1   7
BRANCH   4  16
HETATM   16  C   UNL     1     -41.638 -47.511  10.613  1.00  0.00     0.156 C 
BRANCH  16  17
HETATM   17  C   UNL     1     -42.918 -46.710  10.369  1.00  0.00     0.139 C 
HETATM   18  C   UNL     1     -44.174 -47.549  10.180  1.00  0.00     0.035 C 
HETATM   19  C   UNL     1     -44.993 -46.784   9.159  1.00  0.00     0.029 C 
HETATM   20  C   UNL     1     -44.149 -45.574   8.813  1.00  0.00     0.168 C 
HETATM   21  O   UNL     1     -42.809 -45.911   9.178  1.00  0.00    -0.384 OA
ENDBRANCH  16  17
ENDBRANCH   4  16
TORSDOF 5
ENDMDL
MODEL 8
REMARK VINA RESULT:      -5.0      4.309      6.112
REMARK  5 active torsions:
REMARK  status: ('A' for Active; 'I' for Inactive)
REMARK    1  A    between atoms: C_4  and  C_5 
REMARK    2  A    between atoms: C_5  and  C_6 
REMARK    3  A    between atoms: C_6  and  N_7 
REMARK       I    between atoms: N_7  and  C_8 
REMARK       I    between atoms: C_8  and  N_10 
REMARK    4  A    between atoms: N_10  and  C_11 
REMARK    5  A    between atoms: C_11  and  C_12 
ROOT
HETATM    1  N   UNL     1     -41.703 -47.829  11.002  1.00  0.00    -0.343 N 
HETATM    2  C   UNL     1     -40.409 -47.934  11.444  1.00  0.00     0.316 C 
HETATM    3  O   UNL     1     -39.802 -47.032  12.001  1.00  0.00    -0.247 OA
HETATM    4  N   UNL     1     -39.870 -49.160  11.157  1.00  0.00    -0.341 N 
HETATM    5  H   UNL     1     -41.982 -48.477  10.280  1.00  0.00     0.164 HD
HETATM    6  H   UNL     1     -40.507 -49.931  11.017  1.00  0.00     0.164 HD
ENDROOT
BRANCH   1   7
HETATM    7  C   UNL     1     -42.340 -46.518  11.019  1.00  0.00     0.129 C 
BRANCH   7   8
HETATM    8  C   UNL     1     -42.763 -46.019   9.637  1.00  0.00     0.061 C 
BRANCH   8   9
HETATM    9  C   UNL     1     -43.710 -46.932   8.928  1.00  0.00    -0.023 A 
HETATM   10  C   UNL     1     -44.968 -47.345   9.322  1.00  0.00     0.118 A 
HETATM   11  N   UNL     1     -45.422 -48.181   8.344  1.00  0.00    -0.308 N 
HETATM   12  C   UNL     1     -46.695 -48.860   8.299  1.00  0.00     0.177 C 
HETATM   13  N   UNL     1     -44.547 -48.349   7.338  1.00  0.00    -0.310 N 
HETATM   14  C   UNL     1     -43.504 -47.600   7.700  1.00  0.00     0.115 A 
ATOM     15  HN  UNL     1     -44.655 -48.914   6.496  1.00  0.00     0.186 HD
ENDBRANCH   8   9
ENDBRANCH   7   8
ENDBRANCH   1   7
BRANCH   4  16
HETATM   16  C   UNL     1     -38.545 -49.517  11.643  1.00  0.00     0.156 C 
BRANCH  16  17
HETATM   17  C   UNL     1     -38.552 -50.775  12.513  1.00  0.00     0.139 C 
HETATM   18  C   UNL     1     -39.910 -51.448  12.655  1.00  0.00     0.035 C 
HETATM   19  C   UNL     1     -39.920 -51.986  14.073  1.00  0.00     0.029 C 
HETATM   20  C   UNL     1     -38.586 -51.569  14.656  1.00  0.00     0.168 C 
HETATM   21  O   UNL     1     -38.129 -50.476  13.855  1.00  0.00    -0.384 OA
ENDBRANCH  16  17
ENDBRANCH   4  16
TORSDOF 5
ENDMDL
MODEL 9
REMARK VINA RESULT:      -5.0      2.900      3.572
REMARK  5 active torsions:
REMARK  status: ('A' for Active; 'I' for Inactive)
REMARK    1  A    between atoms: C_4  and  C_5 
REMARK    2  A    between atoms: C_5  and  C_6 
REMARK    3  A    between atoms: C_6  and  N_7 
REMARK       I    between atoms: N_7  and  C_8 
REMARK       I    between atoms: C_8  and  N_10 
REMARK    4  A    between atoms: N_10  and  C_11 
REMARK    5  A    between atoms: C_11  and  C_12 
ROOT
HETATM    1  N   UNL     1     -40.661 -50.755  11.101  1.00  0.00    -0.343 N 
HETATM    2  C   UNL     1     -41.489 -51.184  12.106  1.00  0.00     0.316 C 
HETATM    3  O   UNL     1     -41.589 -50.631  13.191  1.00  0.00    -0.247 OA
HETATM    4  N   UNL     1     -42.164 -52.325  11.761  1.00  0.00    -0.341 N 
HETATM    5  H   UNL     1     -40.403 -51.446  10.411  1.00  0.00     0.164 HD
HETATM    6  H   UNL     1     -42.288 -52.515  10.777  1.00  0.00     0.164 HD
ENDROOT
BRANCH   1   7
HETATM    7  C   UNL     1     -39.703 -49.697  11.392  1.00  0.00     0.129 C 
BRANCH   7   8
HETATM    8  C   UNL     1     -38.319 -50.208  11.791  1.00  0.00     0.061 C 
BRANCH   8   9
HETATM    9  C   UNL     1     -37.926 -49.860  13.189  1.00  0.00    -0.023 A 
HETATM   10  C   UNL     1     -37.625 -48.620  13.719  1.00  0.00     0.118 A 
HETATM   11  N   UNL     1     -37.317 -48.825  15.032  1.00  0.00    -0.308 N 
HETATM   12  C   UNL     1     -36.943 -47.828  16.006  1.00  0.00     0.177 C 
HETATM   13  N   UNL     1     -37.389 -50.115  15.400  1.00  0.00    -0.310 N 
HETATM   14  C   UNL     1     -37.747 -50.744  14.278  1.00  0.00     0.115 A 
ATOM     15  HN  UNL     1     -37.213 -50.519  16.319  1.00  0.00     0.186 HD
ENDBRANCH   8   9
ENDBRANCH   7   8
ENDBRANCH   1   7
BRANCH   4  16
HETATM   16  C   UNL     1     -43.180 -52.879  12.644  1.00  0.00     0.156 C 
BRANCH  16  17
HETATM   17  C   UNL     1     -44.498 -52.105  12.589  1.00  0.00     0.139 C 
HETATM   18  C   UNL     1     -44.923 -51.467  13.904  1.00  0.00     0.035 C 
HETATM   19  C   UNL     1     -46.436 -51.575  13.907  1.00  0.00     0.029 C 
HETATM   20  C   UNL     1     -46.777 -52.284  12.612  1.00  0.00     0.168 C 
HETATM   21  O   UNL     1     -45.587 -52.966  12.211  1.00  0.00    -0.384 OA
ENDBRANCH  16  17
ENDBRANCH   4  16
TORSDOF 5
ENDMDL
