MODEL 1
REMARK VINA RESULT:      -7.0      0.000      0.000
REMARK  5 active torsions:
REMARK  status: ('A' for Active; 'I' for Inactive)
REMARK    1  A    between atoms: N_2  and  C_16 
REMARK    2  A    between atoms: C_6  and  N_7 
REMARK    3  A    between atoms: C_13  and  O_22 
REMARK    4  A    between atoms: C_16  and  C_20 
REMARK    5  A    between atoms: C_20  and  O_25 
ROOT
HETATM    1  C   UNL     1     -42.073 -48.614  12.803  1.00  0.00     0.117 A 
HETATM    2  N   UNL     1     -42.861 -50.505  13.574  1.00  0.00    -0.324 N 
HETATM    3  C   UNL     1     -42.041 -49.989  12.610  1.00  0.00     0.140 A 
HETATM    4  N   UNL     1     -42.945 -48.304  13.833  1.00  0.00    -0.346 N 
ATOM      5  HN  UNL     1     -43.195 -47.375  14.171  1.00  0.00     0.167 HD
HETATM    6  C   UNL     1     -41.248 -47.828  11.956  1.00  0.00     0.114 A 
HETATM    7  C   UNL     1     -43.381 -49.459  14.284  1.00  0.00     0.185 A 
HETATM    8  N   UNL     1     -41.338 -50.678  11.699  1.00  0.00    -0.336 N 
ATOM      9  HN  UNL     1     -41.349 -51.694  11.605  1.00  0.00     0.168 HD
HETATM   10  N   UNL     1     -40.541 -48.502  10.997  1.00  0.00    -0.341 N 
ATOM     11  HN  UNL     1     -39.958 -47.990  10.336  1.00  0.00     0.167 HD
HETATM   12  C   UNL     1     -40.619 -49.847  10.928  1.00  0.00     0.183 A 
ENDROOT
BRANCH   6  13
HETATM   13  N   UNL     1     -41.145 -46.426  12.048  1.00  0.00    -0.267 NA
HETATM   14  C   UNL     1     -42.107 -45.698  11.208  1.00  0.00     0.104 C 
HETATM   15  C   UNL     1     -42.093 -44.221  11.618  1.00  0.00     0.034 C 
HETATM   16  C   UNL     1     -40.675 -43.628  11.494  1.00  0.00     0.064 C 
HETATM   17  C   UNL     1     -43.122 -43.401  10.831  1.00  0.00     0.009 C 
HETATM   18  C   UNL     1     -40.674 -42.166  11.973  1.00  0.00     0.038 C 
HETATM   19  C   UNL     1     -39.690 -44.467  12.320  1.00  0.00     0.053 C 
HETATM   20  C   UNL     1     -41.722 -41.318  11.243  1.00  0.00     0.003 C 
HETATM   21  C   UNL     1     -43.113 -41.942  11.294  1.00  0.00     0.001 C 
HETATM   22  C   UNL     1     -39.759 -45.943  11.924  1.00  0.00     0.100 C 
BRANCH  16  23
HETATM   23  O   UNL     1     -40.209 -43.666  10.137  1.00  0.00    -0.389 OA
HETATM   24  H   UNL     1     -40.970 -43.623   9.536  1.00  0.00     0.210 HD
ENDBRANCH  16  23
ENDBRANCH   6  13
BRANCH   2  25
HETATM   25  C   UNL     1     -42.996 -51.910  13.895  1.00  0.00     0.169 C 
BRANCH  25  26
HETATM   26  C   UNL     1     -44.010 -52.704  13.040  1.00  0.00     0.078 C 
HETATM   27  C   UNL     1     -45.299 -51.872  12.910  1.00  0.00     0.066 C 
HETATM   28  C   UNL     1     -46.165 -51.963  14.154  1.00  0.00     0.170 C 
HETATM   29  O   UNL     1     -46.507 -53.322  14.395  1.00  0.00    -0.391 OA
HETATM   30  C   UNL     1     -45.369 -54.127  14.692  1.00  0.00     0.170 C 
HETATM   31  C   UNL     1     -44.362 -54.115  13.552  1.00  0.00     0.066 C 
BRANCH  26  32
HETATM   32  O   UNL     1     -43.466 -52.810  11.711  1.00  0.00    -0.388 OA
HETATM   33  H   UNL     1     -44.025 -53.414  11.189  1.00  0.00     0.210 HD
ENDBRANCH  26  32
ENDBRANCH  25  26
ENDBRANCH   2  25
TORSDOF 5
ENDMDL
MODEL 2
REMARK VINA RESULT:      -6.9      1.718      8.393
REMARK  5 active torsions:
REMARK  status: ('A' for Active; 'I' for Inactive)
REMARK    1  A    between atoms: N_2  and  C_16 
REMARK    2  A    between atoms: C_6  and  N_7 
REMARK    3  A    between atoms: C_13  and  O_22 
REMARK    4  A    between atoms: C_16  and  C_20 
REMARK    5  A    between atoms: C_20  and  O_25 
ROOT
HETATM    1  C   UNL     1     -42.258 -49.053  11.730  1.00  0.00     0.117 A 
HETATM    2  N   UNL     1     -42.039 -47.021  10.948  1.00  0.00    -0.324 N 
HETATM    3  C   UNL     1     -41.316 -48.083  11.415  1.00  0.00     0.140 A 
HETATM    4  N   UNL     1     -43.533 -48.560  11.509  1.00  0.00    -0.346 N 
ATOM      5  HN  UNL     1     -44.418 -49.035  11.686  1.00  0.00     0.167 HD
HETATM    6  C   UNL     1     -41.763 -50.301  12.192  1.00  0.00     0.114 A 
HETATM    7  C   UNL     1     -43.363 -47.351  11.022  1.00  0.00     0.185 A 
HETATM    8  N   UNL     1     -39.981 -48.166  11.513  1.00  0.00    -0.336 N 
ATOM      9  HN  UNL     1     -39.333 -47.419  11.261  1.00  0.00     0.168 HD
HETATM   10  N   UNL     1     -40.405 -50.405  12.330  1.00  0.00    -0.341 N 
ATOM     11  HN  UNL     1     -39.992 -51.265  12.690  1.00  0.00     0.167 HD
HETATM   12  C   UNL     1     -39.615 -49.367  11.988  1.00  0.00     0.183 A 
ENDROOT
BRANCH   6  13
HETATM   13  N   UNL     1     -42.589 -51.395  12.521  1.00  0.00    -0.267 NA
HETATM   14  C   UNL     1     -43.655 -51.074  13.480  1.00  0.00     0.104 C 
HETATM   15  C   UNL     1     -44.643 -52.245  13.522  1.00  0.00     0.034 C 
HETATM   16  C   UNL     1     -43.924 -53.558  13.897  1.00  0.00     0.064 C 
HETATM   17  C   UNL     1     -45.827 -51.961  14.453  1.00  0.00     0.009 C 
HETATM   18  C   UNL     1     -44.923 -54.728  13.869  1.00  0.00     0.038 C 
HETATM   19  C   UNL     1     -42.767 -53.811  12.921  1.00  0.00     0.053 C 
HETATM   20  C   UNL     1     -46.147 -54.466  14.751  1.00  0.00     0.003 C 
HETATM   21  C   UNL     1     -46.814 -53.130  14.439  1.00  0.00     0.001 C 
HETATM   22  C   UNL     1     -41.825 -52.607  12.862  1.00  0.00     0.100 C 
BRANCH  16  23
HETATM   23  O   UNL     1     -43.346 -53.480  15.208  1.00  0.00    -0.389 OA
HETATM   24  H   UNL     1     -43.068 -54.367  15.488  1.00  0.00     0.210 HD
ENDBRANCH  16  23
ENDBRANCH   6  13
BRANCH   2  25
HETATM   25  C   UNL     1     -41.484 -45.843  10.316  1.00  0.00     0.169 C 
BRANCH  25  26
HETATM   26  C   UNL     1     -41.654 -44.516  11.092  1.00  0.00     0.078 C 
HETATM   27  C   UNL     1     -40.318 -43.752  11.054  1.00  0.00     0.066 C 
HETATM   28  C   UNL     1     -39.321 -44.298  12.061  1.00  0.00     0.170 C 
HETATM   29  O   UNL     1     -39.872 -44.213  13.369  1.00  0.00    -0.391 OA
HETATM   30  C   UNL     1     -41.026 -45.034  13.529  1.00  0.00     0.170 C 
HETATM   31  C   UNL     1     -42.127 -44.647  12.553  1.00  0.00     0.066 C 
BRANCH  26  32
HETATM   32  O   UNL     1     -42.598 -43.707  10.364  1.00  0.00    -0.388 OA
HETATM   33  H   UNL     1     -43.169 -43.241  11.001  1.00  0.00     0.210 HD
ENDBRANCH  26  32
ENDBRANCH  25  26
ENDBRANCH   2  25
TORSDOF 5
ENDMDL
MODEL 3
REMARK VINA RESULT:      -6.9      1.921      8.279
REMARK  5 active torsions:
REMARK  status: ('A' for Active; 'I' for Inactive)
REMARK    1  A    between atoms: N_2  and  C_16 
REMARK    2  A    between atoms: C_6  and  N_7 
REMARK    3  A    between atoms: C_13  and  O_22 
REMARK    4  A    between atoms: C_16  and  C_20 
REMARK    5  A    between atoms: C_20  and  O_25 
ROOT
HETATM    1  C   UNL     1     -40.365 -49.283  12.881  1.00  0.00     0.117 A 
HETATM    2  N   UNL     1     -40.089 -47.118  12.723  1.00  0.00    -0.324 N 
HETATM    3  C   UNL     1     -39.558 -48.308  12.311  1.00  0.00     0.140 A 
HETATM    4  N   UNL     1     -41.335 -48.688  13.671  1.00  0.00    -0.346 N 
ATOM      5  HN  UNL     1     -42.042 -49.156  14.238  1.00  0.00     0.167 HD
HETATM    6  C   UNL     1     -40.063 -50.633  12.562  1.00  0.00     0.114 A 
HETATM    7  C   UNL     1     -41.152 -47.394  13.536  1.00  0.00     0.185 A 
HETATM    8  N   UNL     1     -38.501 -48.480  11.504  1.00  0.00    -0.336 N 
ATOM      9  HN  UNL     1     -37.944 -47.723  11.108  1.00  0.00     0.168 HD
HETATM   10  N   UNL     1     -38.971 -50.841  11.763  1.00  0.00    -0.341 N 
ATOM     11  HN  UNL     1     -38.683 -51.790  11.527  1.00  0.00     0.167 HD
HETATM   12  C   UNL     1     -38.277 -49.786  11.289  1.00  0.00     0.183 A 
ENDROOT
BRANCH   6  13
HETATM   13  N   UNL     1     -40.808 -51.733  13.033  1.00  0.00    -0.267 NA
HETATM   14  C   UNL     1     -42.239 -51.674  12.701  1.00  0.00     0.104 C 
HETATM   15  C   UNL     1     -42.866 -53.039  13.001  1.00  0.00     0.034 C 
HETATM   16  C   UNL     1     -42.646 -53.435  14.475  1.00  0.00     0.064 C 
HETATM   17  C   UNL     1     -44.349 -53.083  12.617  1.00  0.00     0.009 C 
HETATM   18  C   UNL     1     -43.226 -54.836  14.734  1.00  0.00     0.038 C 
HETATM   19  C   UNL     1     -41.146 -53.402  14.801  1.00  0.00     0.053 C 
HETATM   20  C   UNL     1     -44.698 -54.939  14.322  1.00  0.00     0.003 C 
HETATM   21  C   UNL     1     -44.933 -54.471  12.888  1.00  0.00     0.001 C 
HETATM   22  C   UNL     1     -40.536 -52.045  14.447  1.00  0.00     0.100 C 
BRANCH  16  23
HETATM   23  O   UNL     1     -43.279 -52.505  15.366  1.00  0.00    -0.389 OA
HETATM   24  H   UNL     1     -44.104 -52.892  15.700  1.00  0.00     0.210 HD
ENDBRANCH  16  23
ENDBRANCH   6  13
BRANCH   2  25
HETATM   25  C   UNL     1     -39.704 -45.813  12.229  1.00  0.00     0.169 C 
BRANCH  25  26
HETATM   26  C   UNL     1     -40.158 -45.473  10.791  1.00  0.00     0.078 C 
HETATM   27  C   UNL     1     -40.176 -43.942  10.631  1.00  0.00     0.066 C 
HETATM   28  C   UNL     1     -41.416 -43.319  11.249  1.00  0.00     0.170 C 
HETATM   29  O   UNL     1     -42.577 -43.867  10.638  1.00  0.00    -0.391 OA
HETATM   30  C   UNL     1     -42.717 -45.263  10.887  1.00  0.00     0.170 C 
HETATM   31  C   UNL     1     -41.523 -46.048  10.363  1.00  0.00     0.066 C 
BRANCH  26  32
HETATM   32  O   UNL     1     -39.143 -45.958   9.891  1.00  0.00    -0.388 OA
HETATM   33  H   UNL     1     -38.390 -46.287  10.414  1.00  0.00     0.210 HD
ENDBRANCH  26  32
ENDBRANCH  25  26
ENDBRANCH   2  25
TORSDOF 5
ENDMDL
MODEL 4
REMARK VINA RESULT:      -6.8      1.458      2.163
REMARK  5 active torsions:
REMARK  status: ('A' for Active; 'I' for Inactive)
REMARK    1  A    between atoms: N_2  and  C_16 
REMARK    2  A    between atoms: C_6  and  N_7 
REMARK    3  A    between atoms: C_13  and  O_22 
REMARK    4  A    between atoms: C_16  and  C_20 
REMARK    5  A    between atoms: C_20  and  O_25 
ROOT
HETATM    1  C   UNL     1     -42.228 -49.890  12.500  1.00  0.00     0.117 A 
HETATM    2  N   UNL     1     -43.332 -51.490  13.505  1.00  0.00    -0.324 N 
HETATM    3  C   UNL     1     -42.292 -51.269  12.646  1.00  0.00     0.140 A 
HETATM    4  N   UNL     1     -43.252 -49.293  13.217  1.00  0.00    -0.346 N 
ATOM      5  HN  UNL     1     -43.473 -48.299  13.266  1.00  0.00     0.167 HD
HETATM    6  C   UNL     1     -41.180 -49.379  11.691  1.00  0.00     0.114 A 
HETATM    7  C   UNL     1     -43.878 -50.279  13.821  1.00  0.00     0.185 A 
HETATM    8  N   UNL     1     -41.494 -52.195  12.096  1.00  0.00    -0.336 N 
ATOM      9  HN  UNL     1     -41.584 -53.201  12.242  1.00  0.00     0.168 HD
HETATM   10  N   UNL     1     -40.367 -50.302  11.091  1.00  0.00    -0.341 N 
ATOM     11  HN  UNL     1     -39.617 -49.998  10.471  1.00  0.00     0.167 HD
HETATM   12  C   UNL     1     -40.560 -51.617  11.325  1.00  0.00     0.183 A 
ENDROOT
BRANCH   6  13
HETATM   13  N   UNL     1     -40.962 -48.004  11.472  1.00  0.00    -0.267 NA
HETATM   14  C   UNL     1     -40.600 -47.255  12.684  1.00  0.00     0.104 C 
HETATM   15  C   UNL     1     -40.107 -45.864  12.269  1.00  0.00     0.034 C 
HETATM   16  C   UNL     1     -41.181 -45.122  11.448  1.00  0.00     0.064 C 
HETATM   17  C   UNL     1     -39.645 -45.039  13.475  1.00  0.00     0.009 C 
HETATM   18  C   UNL     1     -40.639 -43.757  10.988  1.00  0.00     0.038 C 
HETATM   19  C   UNL     1     -41.590 -45.975  10.239  1.00  0.00     0.053 C 
HETATM   20  C   UNL     1     -40.122 -42.915  12.159  1.00  0.00     0.003 C 
HETATM   21  C   UNL     1     -39.119 -43.675  13.023  1.00  0.00     0.001 C 
HETATM   22  C   UNL     1     -42.030 -47.373  10.678  1.00  0.00     0.100 C 
BRANCH  16  23
HETATM   23  O   UNL     1     -42.372 -44.905  12.219  1.00  0.00    -0.389 OA
HETATM   24  H   UNL     1     -43.092 -44.632  11.628  1.00  0.00     0.210 HD
ENDBRANCH  16  23
ENDBRANCH   6  13
BRANCH   2  25
HETATM   25  C   UNL     1     -43.664 -52.764  14.109  1.00  0.00     0.169 C 
BRANCH  25  26
HETATM   26  C   UNL     1     -44.700 -53.624  13.350  1.00  0.00     0.078 C 
HETATM   27  C   UNL     1     -45.866 -52.716  12.916  1.00  0.00     0.066 C 
HETATM   28  C   UNL     1     -46.826 -52.437  14.059  1.00  0.00     0.170 C 
HETATM   29  O   UNL     1     -47.346 -53.665  14.552  1.00  0.00    -0.391 OA
HETATM   30  C   UNL     1     -46.339 -54.493  15.127  1.00  0.00     0.170 C 
HETATM   31  C   UNL     1     -45.256 -54.840  14.116  1.00  0.00     0.066 C 
BRANCH  26  32
HETATM   32  O   UNL     1     -44.075 -54.081  12.135  1.00  0.00    -0.388 OA
HETATM   33  H   UNL     1     -43.241 -53.592  12.008  1.00  0.00     0.210 HD
ENDBRANCH  26  32
ENDBRANCH  25  26
ENDBRANCH   2  25
TORSDOF 5
ENDMDL
MODEL 5
REMARK VINA RESULT:      -6.7      1.840      8.623
REMARK  5 active torsions:
REMARK  status: ('A' for Active; 'I' for Inactive)
REMARK    1  A    between atoms: N_2  and  C_16 
REMARK    2  A    between atoms: C_6  and  N_7 
REMARK    3  A    between atoms: C_13  and  O_22 
REMARK    4  A    between atoms: C_16  and  C_20 
REMARK    5  A    between atoms: C_20  and  O_25 
ROOT
HETATM    1  C   UNL     1     -41.164 -47.511  12.164  1.00  0.00     0.117 A 
HETATM    2  N   UNL     1     -40.231 -45.544  11.931  1.00  0.00    -0.324 N 
HETATM    3  C   UNL     1     -41.060 -46.429  11.299  1.00  0.00     0.140 A 
HETATM    4  N   UNL     1     -40.364 -47.303  13.275  1.00  0.00    -0.346 N 
ATOM      5  HN  UNL     1     -40.214 -47.942  14.056  1.00  0.00     0.167 HD
HETATM    6  C   UNL     1     -42.026 -48.567  11.769  1.00  0.00     0.114 A 
HETATM    7  C   UNL     1     -39.839 -46.109  13.112  1.00  0.00     0.185 A 
HETATM    8  N   UNL     1     -41.660 -46.261  10.112  1.00  0.00    -0.336 N 
ATOM      9  HN  UNL     1     -41.550 -45.439   9.518  1.00  0.00     0.168 HD
HETATM   10  N   UNL     1     -42.630 -48.436  10.547  1.00  0.00    -0.341 N 
ATOM     11  HN  UNL     1     -43.234 -49.177  10.193  1.00  0.00     0.167 HD
HETATM   12  C   UNL     1     -42.424 -47.323   9.813  1.00  0.00     0.183 A 
ENDROOT
BRANCH   6  13
HETATM   13  N   UNL     1     -42.263 -49.715  12.550  1.00  0.00    -0.267 NA
HETATM   14  C   UNL     1     -41.579 -50.922  12.065  1.00  0.00     0.104 C 
HETATM   15  C   UNL     1     -41.673 -52.005  13.145  1.00  0.00     0.034 C 
HETATM   16  C   UNL     1     -43.144 -52.297  13.505  1.00  0.00     0.064 C 
HETATM   17  C   UNL     1     -40.923 -53.280  12.743  1.00  0.00     0.009 C 
HETATM   18  C   UNL     1     -43.210 -53.338  14.636  1.00  0.00     0.038 C 
HETATM   19  C   UNL     1     -43.842 -50.996  13.926  1.00  0.00     0.053 C 
HETATM   20  C   UNL     1     -42.433 -54.614  14.295  1.00  0.00     0.003 C 
HETATM   21  C   UNL     1     -41.000 -54.323  13.860  1.00  0.00     0.001 C 
HETATM   22  C   UNL     1     -43.691 -49.919  12.851  1.00  0.00     0.100 C 
BRANCH  16  23
HETATM   23  O   UNL     1     -43.868 -52.803  12.374  1.00  0.00    -0.389 OA
HETATM   24  H   UNL     1     -43.746 -52.204  11.621  1.00  0.00     0.210 HD
ENDBRANCH  16  23
ENDBRANCH   6  13
BRANCH   2  25
HETATM   25  C   UNL     1     -39.977 -44.184  11.506  1.00  0.00     0.169 C 
BRANCH  25  26
HETATM   26  C   UNL     1     -41.123 -43.175  11.749  1.00  0.00     0.078 C 
HETATM   27  C   UNL     1     -40.521 -41.759  11.825  1.00  0.00     0.066 C 
HETATM   28  C   UNL     1     -39.889 -41.481  13.177  1.00  0.00     0.170 C 
HETATM   29  O   UNL     1     -40.868 -41.628  14.198  1.00  0.00    -0.391 OA
HETATM   30  C   UNL     1     -41.353 -42.965  14.299  1.00  0.00     0.170 C 
HETATM   31  C   UNL     1     -41.990 -43.429  12.998  1.00  0.00     0.066 C 
BRANCH  26  32
HETATM   32  O   UNL     1     -41.967 -43.189  10.582  1.00  0.00    -0.388 OA
HETATM   33  H   UNL     1     -42.748 -43.742  10.766  1.00  0.00     0.210 HD
ENDBRANCH  26  32
ENDBRANCH  25  26
ENDBRANCH   2  25
TORSDOF 5
ENDMDL
MODEL 6
REMARK VINA RESULT:      -6.6      1.271      8.446
REMARK  5 active torsions:
REMARK  status: ('A' for Active; 'I' for Inactive)
REMARK    1  A    between atoms: N_2  and  C_16 
REMARK    2  A    between atoms: C_6  and  N_7 
REMARK    3  A    between atoms: C_13  and  O_22 
REMARK    4  A    between atoms: C_16  and  C_20 
REMARK    5  A    between atoms: C_20  and  O_25 
ROOT
HETATM    1  C   UNL     1     -41.585 -48.855  13.109  1.00  0.00     0.117 A 
HETATM    2  N   UNL     1     -40.504 -46.962  12.914  1.00  0.00    -0.324 N 
HETATM    3  C   UNL     1     -40.621 -48.203  12.353  1.00  0.00     0.140 A 
HETATM    4  N   UNL     1     -42.001 -48.037  14.147  1.00  0.00    -0.346 N 
ATOM      5  HN  UNL     1     -42.672 -48.265  14.881  1.00  0.00     0.167 HD
HETATM    6  C   UNL     1     -41.945 -50.165  12.698  1.00  0.00     0.114 A 
HETATM    7  C   UNL     1     -41.350 -46.907  13.986  1.00  0.00     0.185 A 
HETATM    8  N   UNL     1     -39.961 -48.665  11.281  1.00  0.00    -0.336 N 
ATOM      9  HN  UNL     1     -39.262 -48.137  10.757  1.00  0.00     0.168 HD
HETATM   10  N   UNL     1     -41.266 -50.675  11.624  1.00  0.00    -0.341 N 
ATOM     11  HN  UNL     1     -41.456 -51.624  11.302  1.00  0.00     0.167 HD
HETATM   12  C   UNL     1     -40.346 -49.918  10.992  1.00  0.00     0.183 A 
ENDROOT
BRANCH   6  13
HETATM   13  N   UNL     1     -42.928 -50.943  13.341  1.00  0.00    -0.267 NA
HETATM   14  C   UNL     1     -43.181 -52.240  12.698  1.00  0.00     0.104 C 
HETATM   15  C   UNL     1     -44.032 -53.096  13.642  1.00  0.00     0.034 C 
HETATM   16  C   UNL     1     -45.350 -52.378  13.999  1.00  0.00     0.064 C 
HETATM   17  C   UNL     1     -44.286 -54.496  13.072  1.00  0.00     0.009 C 
HETATM   18  C   UNL     1     -46.156 -53.227  14.998  1.00  0.00     0.038 C 
HETATM   19  C   UNL     1     -45.042 -50.995  14.590  1.00  0.00     0.053 C 
HETATM   20  C   UNL     1     -46.393 -54.652  14.487  1.00  0.00     0.003 C 
HETATM   21  C   UNL     1     -45.100 -55.338  14.057  1.00  0.00     0.001 C 
HETATM   22  C   UNL     1     -44.151 -50.182  13.649  1.00  0.00     0.100 C 
BRANCH  16  23
HETATM   23  O   UNL     1     -46.156 -52.155  12.832  1.00  0.00    -0.389 OA
HETATM   24  H   UNL     1     -45.585 -52.133  12.048  1.00  0.00     0.210 HD
ENDBRANCH  16  23
ENDBRANCH   6  13
BRANCH   2  25
HETATM   25  C   UNL     1     -39.760 -45.855  12.353  1.00  0.00     0.169 C 
BRANCH  25  26
HETATM   26  C   UNL     1     -40.365 -45.206  11.086  1.00  0.00     0.078 C 
HETATM   27  C   UNL     1     -39.807 -43.777  10.954  1.00  0.00     0.066 C 
HETATM   28  C   UNL     1     -40.513 -42.802  11.880  1.00  0.00     0.170 C 
HETATM   29  O   UNL     1     -41.904 -42.791  11.587  1.00  0.00    -0.391 OA
HETATM   30  C   UNL     1     -42.527 -44.046  11.848  1.00  0.00     0.170 C 
HETATM   31  C   UNL     1     -41.904 -45.163  11.023  1.00  0.00     0.066 C 
BRANCH  26  32
HETATM   32  O   UNL     1     -39.869 -45.936   9.948  1.00  0.00    -0.388 OA
HETATM   33  H   UNL     1     -40.361 -45.654   9.155  1.00  0.00     0.210 HD
ENDBRANCH  26  32
ENDBRANCH  25  26
ENDBRANCH   2  25
TORSDOF 5
ENDMDL
MODEL 7
REMARK VINA RESULT:      -6.5      2.877      8.802
REMARK  5 active torsions:
REMARK  status: ('A' for Active; 'I' for Inactive)
REMARK    1  A    between atoms: N_2  and  C_16 
REMARK    2  A    between atoms: C_6  and  N_7 
REMARK    3  A    between atoms: C_13  and  O_22 
REMARK    4  A    between atoms: C_16  and  C_20 
REMARK    5  A    between atoms: C_20  and  O_25 
ROOT
HETATM    1  C   UNL     1     -40.501 -45.138  12.292  1.00  0.00     0.117 A 
HETATM    2  N   UNL     1     -40.575 -42.973  12.607  1.00  0.00    -0.324 N 
HETATM    3  C   UNL     1     -40.216 -43.920  11.689  1.00  0.00     0.140 A 
HETATM    4  N   UNL     1     -40.973 -44.927  13.577  1.00  0.00    -0.346 N 
ATOM      5  HN  UNL     1     -41.227 -45.636  14.265  1.00  0.00     0.167 HD
HETATM    6  C   UNL     1     -40.271 -46.305  11.518  1.00  0.00     0.114 A 
HETATM    7  C   UNL     1     -41.023 -43.622  13.723  1.00  0.00     0.185 A 
HETATM    8  N   UNL     1     -39.723 -43.702  10.461  1.00  0.00    -0.336 N 
ATOM      9  HN  UNL     1     -39.537 -42.780  10.066  1.00  0.00     0.168 HD
HETATM   10  N   UNL     1     -39.740 -46.115  10.271  1.00  0.00    -0.341 N 
ATOM     11  HN  UNL     1     -39.521 -46.917   9.680  1.00  0.00     0.167 HD
HETATM   12  C   UNL     1     -39.509 -44.864   9.824  1.00  0.00     0.183 A 
ENDROOT
BRANCH   6  13
HETATM   13  N   UNL     1     -40.541 -47.611  11.976  1.00  0.00    -0.267 NA
HETATM   14  C   UNL     1     -39.363 -48.488  12.012  1.00  0.00     0.104 C 
HETATM   15  C   UNL     1     -39.723 -49.757  12.792  1.00  0.00     0.034 C 
HETATM   16  C   UNL     1     -40.936 -50.468  12.158  1.00  0.00     0.064 C 
HETATM   17  C   UNL     1     -38.523 -50.700  12.934  1.00  0.00     0.009 C 
HETATM   18  C   UNL     1     -41.318 -51.701  12.997  1.00  0.00     0.038 C 
HETATM   19  C   UNL     1     -42.116 -49.491  12.064  1.00  0.00     0.053 C 
HETATM   20  C   UNL     1     -40.133 -52.650  13.203  1.00  0.00     0.003 C 
HETATM   21  C   UNL     1     -38.903 -51.934  13.754  1.00  0.00     0.001 C 
HETATM   22  C   UNL     1     -41.715 -48.215  11.323  1.00  0.00     0.100 C 
BRANCH  16  23
HETATM   23  O   UNL     1     -40.649 -50.896  10.819  1.00  0.00    -0.389 OA
HETATM   24  H   UNL     1     -41.388 -51.431  10.488  1.00  0.00     0.210 HD
ENDBRANCH  16  23
ENDBRANCH   6  13
BRANCH   2  25
HETATM   25  C   UNL     1     -40.643 -41.548  12.359  1.00  0.00     0.169 C 
BRANCH  25  26
HETATM   26  C   UNL     1     -41.867 -41.060  11.551  1.00  0.00     0.078 C 
HETATM   27  C   UNL     1     -41.910 -39.522  11.608  1.00  0.00     0.066 C 
HETATM   28  C   UNL     1     -42.483 -39.016  12.921  1.00  0.00     0.170 C 
HETATM   29  O   UNL     1     -43.798 -39.528  13.094  1.00  0.00    -0.391 OA
HETATM   30  C   UNL     1     -43.819 -40.948  13.218  1.00  0.00     0.170 C 
HETATM   31  C   UNL     1     -43.232 -41.626  11.989  1.00  0.00     0.066 C 
BRANCH  26  32
HETATM   32  O   UNL     1     -41.639 -41.403  10.171  1.00  0.00    -0.388 OA
HETATM   33  H   UNL     1     -42.256 -40.894   9.614  1.00  0.00     0.210 HD
ENDBRANCH  26  32
ENDBRANCH  25  26
ENDBRANCH   2  25
TORSDOF 5
ENDMDL
MODEL 8
REMARK VINA RESULT:      -6.5      2.368      3.140
REMARK  5 active torsions:
REMARK  status: ('A' for Active; 'I' for Inactive)
REMARK    1  A    between atoms: N_2  and  C_16 
REMARK    2  A    between atoms: C_6  and  N_7 
REMARK    3  A    between atoms: C_13  and  O_22 
REMARK    4  A    between atoms: C_16  and  C_20 
REMARK    5  A    between atoms: C_20  and  O_25 
ROOT
HETATM    1  C   UNL     1     -41.647 -47.847  12.855  1.00  0.00     0.117 A 
HETATM    2  N   UNL     1     -42.018 -49.963  13.273  1.00  0.00    -0.324 N 
HETATM    3  C   UNL     1     -41.955 -49.058  12.250  1.00  0.00     0.140 A 
HETATM    4  N   UNL     1     -41.582 -48.010  14.229  1.00  0.00    -0.346 N 
ATOM      5  HN  UNL     1     -41.411 -47.289  14.929  1.00  0.00     0.167 HD
HETATM    6  C   UNL     1     -41.465 -46.730  11.998  1.00  0.00     0.114 A 
HETATM    7  C   UNL     1     -41.788 -49.291  14.440  1.00  0.00     0.185 A 
HETATM    8  N   UNL     1     -42.125 -49.308  10.944  1.00  0.00    -0.336 N 
ATOM      9  HN  UNL     1     -42.347 -50.224  10.552  1.00  0.00     0.168 HD
HETATM   10  N   UNL     1     -41.661 -46.949  10.661  1.00  0.00    -0.341 N 
ATOM     11  HN  UNL     1     -41.578 -46.178   9.999  1.00  0.00     0.167 HD
HETATM   12  C   UNL     1     -41.965 -48.188  10.223  1.00  0.00     0.183 A 
ENDROOT
BRANCH   6  13
HETATM   13  N   UNL     1     -41.118 -45.443  12.456  1.00  0.00    -0.267 NA
HETATM   14  C   UNL     1     -42.177 -44.439  12.278  1.00  0.00     0.104 C 
HETATM   15  C   UNL     1     -41.796 -43.184  13.071  1.00  0.00     0.034 C 
HETATM   16  C   UNL     1     -40.424 -42.642  12.619  1.00  0.00     0.064 C 
HETATM   17  C   UNL     1     -42.885 -42.107  12.992  1.00  0.00     0.009 C 
HETATM   18  C   UNL     1     -40.036 -41.422  13.472  1.00  0.00     0.038 C 
HETATM   19  C   UNL     1     -39.366 -43.747  12.742  1.00  0.00     0.053 C 
HETATM   20  C   UNL     1     -41.118 -40.338  13.460  1.00  0.00     0.003 C 
HETATM   21  C   UNL     1     -42.494 -40.886  13.828  1.00  0.00     0.001 C 
HETATM   22  C   UNL     1     -39.794 -45.004  11.983  1.00  0.00     0.100 C 
BRANCH  16  23
HETATM   23  O   UNL     1     -40.447 -42.247  11.239  1.00  0.00    -0.389 OA
HETATM   24  H   UNL     1     -40.642 -41.298  11.181  1.00  0.00     0.210 HD
ENDBRANCH  16  23
ENDBRANCH   6  13
BRANCH   2  25
HETATM   25  C   UNL     1     -42.120 -51.399  13.116  1.00  0.00     0.169 C 
BRANCH  25  26
HETATM   26  C   UNL     1     -40.900 -52.097  12.474  1.00  0.00     0.078 C 
HETATM   27  C   UNL     1     -40.812 -53.533  13.025  1.00  0.00     0.066 C 
HETATM   28  C   UNL     1     -40.198 -53.574  14.413  1.00  0.00     0.170 C 
HETATM   29  O   UNL     1     -38.895 -53.007  14.374  1.00  0.00    -0.391 OA
HETATM   30  C   UNL     1     -38.912 -51.624  14.032  1.00  0.00     0.170 C 
HETATM   31  C   UNL     1     -39.543 -51.392  12.666  1.00  0.00     0.066 C 
BRANCH  26  32
HETATM   32  O   UNL     1     -41.166 -52.225  11.064  1.00  0.00    -0.388 OA
HETATM   33  H   UNL     1     -41.588 -51.405  10.749  1.00  0.00     0.210 HD
ENDBRANCH  26  32
ENDBRANCH  25  26
ENDBRANCH   2  25
TORSDOF 5
ENDMDL
MODEL 9
REMARK VINA RESULT:      -6.4      4.195      5.509
REMARK  5 active torsions:
REMARK  status: ('A' for Active; 'I' for Inactive)
REMARK    1  A    between atoms: N_2  and  C_16 
REMARK    2  A    between atoms: C_6  and  N_7 
REMARK    3  A    between atoms: C_13  and  O_22 
REMARK    4  A    between atoms: C_16  and  C_20 
REMARK    5  A    between atoms: C_20  and  O_25 
ROOT
HETATM    1  C   UNL     1     -41.492 -50.845  13.649  1.00  0.00     0.117 A 
HETATM    2  N   UNL     1     -43.579 -51.506  13.646  1.00  0.00    -0.324 N 
HETATM    3  C   UNL     1     -42.415 -51.598  12.935  1.00  0.00     0.140 A 
HETATM    4  N   UNL     1     -42.108 -50.262  14.744  1.00  0.00    -0.346 N 
ATOM      5  HN  UNL     1     -41.686 -49.630  15.425  1.00  0.00     0.167 HD
HETATM    6  C   UNL     1     -40.164 -50.819  13.151  1.00  0.00     0.114 A 
HETATM    7  C   UNL     1     -43.348 -50.696  14.722  1.00  0.00     0.185 A 
HETATM    8  N   UNL     1     -42.215 -52.295  11.807  1.00  0.00    -0.336 N 
ATOM      9  HN  UNL     1     -42.933 -52.837  11.325  1.00  0.00     0.168 HD
HETATM   10  N   UNL     1     -39.936 -51.498  11.984  1.00  0.00    -0.341 N 
ATOM     11  HN  UNL     1     -39.010 -51.488  11.558  1.00  0.00     0.167 HD
HETATM   12  C   UNL     1     -40.942 -52.181  11.399  1.00  0.00     0.183 A 
ENDROOT
BRANCH   6  13
HETATM   13  N   UNL     1     -39.107 -50.129  13.779  1.00  0.00    -0.267 NA
HETATM   14  C   UNL     1     -38.726 -50.680  15.087  1.00  0.00     0.104 C 
HETATM   15  C   UNL     1     -37.401 -50.043  15.518  1.00  0.00     0.034 C 
HETATM   16  C   UNL     1     -37.519 -48.506  15.567  1.00  0.00     0.064 C 
HETATM   17  C   UNL     1     -36.898 -50.616  16.848  1.00  0.00     0.009 C 
HETATM   18  C   UNL     1     -36.160 -47.887  15.938  1.00  0.00     0.038 C 
HETATM   19  C   UNL     1     -37.999 -47.981  14.207  1.00  0.00     0.053 C 
HETATM   20  C   UNL     1     -35.596 -48.466  17.240  1.00  0.00     0.003 C 
HETATM   21  C   UNL     1     -35.553 -49.992  17.227  1.00  0.00     0.001 C 
HETATM   22  C   UNL     1     -39.296 -48.668  13.779  1.00  0.00     0.100 C 
BRANCH  16  23
HETATM   23  O   UNL     1     -38.492 -48.087  16.535  1.00  0.00    -0.389 OA
HETATM   24  H   UNL     1     -39.331 -48.546  16.366  1.00  0.00     0.210 HD
ENDBRANCH  16  23
ENDBRANCH   6  13
BRANCH   2  25
HETATM   25  C   UNL     1     -44.776 -52.282  13.399  1.00  0.00     0.169 C 
BRANCH  25  26
HETATM   26  C   UNL     1     -44.643 -53.810  13.593  1.00  0.00     0.078 C 
HETATM   27  C   UNL     1     -46.000 -54.363  14.065  1.00  0.00     0.066 C 
HETATM   28  C   UNL     1     -46.231 -54.121  15.546  1.00  0.00     0.170 C 
HETATM   29  O   UNL     1     -45.189 -54.733  16.295  1.00  0.00    -0.391 OA
HETATM   30  C   UNL     1     -43.914 -54.153  16.033  1.00  0.00     0.170 C 
HETATM   31  C   UNL     1     -43.538 -54.271  14.563  1.00  0.00     0.066 C 
BRANCH  26  32
HETATM   32  O   UNL     1     -44.402 -54.391  12.297  1.00  0.00    -0.388 OA
HETATM   33  H   UNL     1     -44.405 -55.362  12.383  1.00  0.00     0.210 HD
ENDBRANCH  26  32
ENDBRANCH  25  26
ENDBRANCH   2  25
TORSDOF 5
ENDMDL
