MODEL 1
REMARK VINA RESULT:      -5.4      0.000      0.000
REMARK  7 active torsions:
REMARK  status: ('A' for Active; 'I' for Inactive)
REMARK    1  A    between atoms: C_2  and  C_3 
REMARK    2  A    between atoms: C_2  and  N_10 
REMARK    3  A    between atoms: C_3  and  N_4 
REMARK    4  A    between atoms: N_10  and  C_11 
REMARK    5  A    between atoms: C_11  and  C_12 
REMARK    6  A    between atoms: C_12  and  C_13 
REMARK    7  A    between atoms: C_13  and  N_14 
ROOT
HETATM    1  N   UNL     1     -40.674 -51.955  11.419  1.00  0.00     0.089 N 
HETATM    2  H   UNL     1     -39.746 -52.341  11.239  1.00  0.00     0.316 HD
ENDROOT
BRANCH   1   3
HETATM    3  C   UNL     1     -40.514 -50.651  12.103  1.00  0.00     0.236 C 
HETATM    4  C   UNL     1     -39.283 -50.792  13.012  1.00  0.00     0.044 C 
BRANCH   3   5
HETATM    5  C   UNL     1     -40.342 -49.468  11.121  1.00  0.00     0.183 C 
BRANCH   5   6
HETATM    6  N   UNL     1     -41.569 -48.736  10.870  1.00  0.00    -0.302 N 
HETATM    7  C   UNL     1     -42.555 -48.456  11.773  1.00  0.00     0.111 A 
HETATM    8  C   UNL     1     -43.515 -47.757  11.085  1.00  0.00     0.037 A 
HETATM    9  C   UNL     1     -43.009 -47.650   9.775  1.00  0.00     0.108 A 
HETATM   10  N   UNL     1     -41.816 -48.238   9.642  1.00  0.00    -0.310 N 
ATOM     11  HN  UNL     1     -41.232 -48.295   8.808  1.00  0.00     0.186 HD
ENDBRANCH   5   6
ENDBRANCH   3   5
ENDBRANCH   1   3
BRANCH   1  12
HETATM   12  C   UNL     1     -41.452 -52.928  12.185  1.00  0.00     0.272 C 
BRANCH  12  13
HETATM   13  C   UNL     1     -42.777 -52.292  12.610  1.00  0.00     0.050 C 
BRANCH  13  14
HETATM   14  C   UNL     1     -43.796 -53.372  12.959  1.00  0.00     0.127 C 
BRANCH  14  15
HETATM   15  N   UNL     1     -44.962 -52.875  13.674  1.00  0.00    -0.352 N 
HETATM   16  C   UNL     1     -44.844 -52.255  14.972  1.00  0.00     0.126 C 
HETATM   17  C   UNL     1     -46.199 -51.630  15.230  1.00  0.00     0.029 C 
HETATM   18  C   UNL     1     -46.817 -51.439  13.855  1.00  0.00     0.104 C 
HETATM   19  C   UNL     1     -46.064 -52.397  12.971  1.00  0.00     0.219 C 
HETATM   20  O   UNL     1     -46.341 -52.635  11.807  1.00  0.00    -0.273 OA
ENDBRANCH  14  15
ENDBRANCH  13  14
ENDBRANCH  12  13
ENDBRANCH   1  12
TORSDOF 7
ENDMDL
MODEL 2
REMARK VINA RESULT:      -5.3      2.127      3.008
REMARK  7 active torsions:
REMARK  status: ('A' for Active; 'I' for Inactive)
REMARK    1  A    between atoms: C_2  and  C_3 
REMARK    2  A    between atoms: C_2  and  N_10 
REMARK    3  A    between atoms: C_3  and  N_4 
REMARK    4  A    between atoms: N_10  and  C_11 
REMARK    5  A    between atoms: C_11  and  C_12 
REMARK    6  A    between atoms: C_12  and  C_13 
REMARK    7  A    between atoms: C_13  and  N_14 
ROOT
HETATM    1  N   UNL     1     -42.815 -52.818  12.160  1.00  0.00     0.089 N 
HETATM    2  H   UNL     1     -43.041 -53.112  11.208  1.00  0.00     0.316 HD
ENDROOT
BRANCH   1   3
HETATM    3  C   UNL     1     -41.817 -51.727  12.088  1.00  0.00     0.236 C 
HETATM    4  C   UNL     1     -42.442 -50.526  12.814  1.00  0.00     0.044 C 
BRANCH   3   5
HETATM    5  C   UNL     1     -40.457 -52.106  12.719  1.00  0.00     0.183 C 
BRANCH   5   6
HETATM    6  N   UNL     1     -39.460 -51.055  12.632  1.00  0.00    -0.302 N 
HETATM    7  C   UNL     1     -38.776 -50.488  13.669  1.00  0.00     0.111 A 
HETATM    8  C   UNL     1     -37.955 -49.540  13.110  1.00  0.00     0.037 A 
HETATM    9  C   UNL     1     -38.202 -49.623  11.727  1.00  0.00     0.108 A 
HETATM   10  N   UNL     1     -39.113 -50.554  11.429  1.00  0.00    -0.310 N 
ATOM     11  HN  UNL     1     -39.463 -50.822  10.509  1.00  0.00     0.186 HD
ENDBRANCH   5   6
ENDBRANCH   3   5
ENDBRANCH   1   3
BRANCH   1  12
HETATM   12  C   UNL     1     -42.359 -53.983  12.920  1.00  0.00     0.272 C 
BRANCH  12  13
HETATM   13  C   UNL     1     -43.260 -54.172  14.142  1.00  0.00     0.050 C 
BRANCH  13  14
HETATM   14  C   UNL     1     -44.671 -54.552  13.706  1.00  0.00     0.127 C 
BRANCH  14  15
HETATM   15  N   UNL     1     -45.680 -53.560  14.044  1.00  0.00    -0.352 N 
HETATM   16  C   UNL     1     -45.813 -53.046  15.386  1.00  0.00     0.126 C 
HETATM   17  C   UNL     1     -46.746 -51.860  15.259  1.00  0.00     0.029 C 
HETATM   18  C   UNL     1     -46.642 -51.426  13.806  1.00  0.00     0.104 C 
HETATM   19  C   UNL     1     -46.104 -52.637  13.092  1.00  0.00     0.219 C 
HETATM   20  O   UNL     1     -45.987 -52.738  11.882  1.00  0.00    -0.273 OA
ENDBRANCH  14  15
ENDBRANCH  13  14
ENDBRANCH  12  13
ENDBRANCH   1  12
TORSDOF 7
ENDMDL
MODEL 3
REMARK VINA RESULT:      -5.3      1.754      2.591
REMARK  7 active torsions:
REMARK  status: ('A' for Active; 'I' for Inactive)
REMARK    1  A    between atoms: C_2  and  C_3 
REMARK    2  A    between atoms: C_2  and  N_10 
REMARK    3  A    between atoms: C_3  and  N_4 
REMARK    4  A    between atoms: N_10  and  C_11 
REMARK    5  A    between atoms: C_11  and  C_12 
REMARK    6  A    between atoms: C_12  and  C_13 
REMARK    7  A    between atoms: C_13  and  N_14 
ROOT
HETATM    1  N   UNL     1     -42.063 -53.352  14.448  1.00  0.00     0.089 N 
HETATM    2  H   UNL     1     -42.556 -52.481  14.653  1.00  0.00     0.316 HD
ENDROOT
BRANCH   1   3
HETATM    3  C   UNL     1     -40.783 -53.019  13.782  1.00  0.00     0.236 C 
HETATM    4  C   UNL     1     -39.927 -54.294  13.838  1.00  0.00     0.044 C 
BRANCH   3   5
HETATM    5  C   UNL     1     -40.965 -52.540  12.323  1.00  0.00     0.183 C 
BRANCH   5   6
HETATM    6  N   UNL     1     -40.872 -51.100  12.166  1.00  0.00    -0.302 N 
HETATM    7  C   UNL     1     -40.929 -50.164  13.158  1.00  0.00     0.111 A 
HETATM    8  C   UNL     1     -40.807 -48.945  12.537  1.00  0.00     0.037 A 
HETATM    9  C   UNL     1     -40.663 -49.252  11.171  1.00  0.00     0.108 A 
HETATM   10  N   UNL     1     -40.691 -50.568  10.940  1.00  0.00    -0.310 N 
ATOM     11  HN  UNL     1     -40.599 -51.053  10.048  1.00  0.00     0.186 HD
ENDBRANCH   5   6
ENDBRANCH   3   5
ENDBRANCH   1   3
BRANCH   1  12
HETATM   12  C   UNL     1     -42.935 -54.213  13.649  1.00  0.00     0.272 C 
BRANCH  12  13
HETATM   13  C   UNL     1     -43.962 -54.881  14.566  1.00  0.00     0.050 C 
BRANCH  13  14
HETATM   14  C   UNL     1     -45.331 -54.909  13.896  1.00  0.00     0.127 C 
BRANCH  14  15
HETATM   15  N   UNL     1     -46.134 -53.721  14.142  1.00  0.00    -0.352 N 
HETATM   16  C   UNL     1     -46.324 -53.202  15.475  1.00  0.00     0.126 C 
HETATM   17  C   UNL     1     -46.950 -51.837  15.276  1.00  0.00     0.029 C 
HETATM   18  C   UNL     1     -46.564 -51.424  13.865  1.00  0.00     0.104 C 
HETATM   19  C   UNL     1     -46.216 -52.719  13.179  1.00  0.00     0.219 C 
HETATM   20  O   UNL     1     -45.968 -52.832  11.990  1.00  0.00    -0.273 OA
ENDBRANCH  14  15
ENDBRANCH  13  14
ENDBRANCH  12  13
ENDBRANCH   1  12
TORSDOF 7
ENDMDL
MODEL 4
REMARK VINA RESULT:      -4.9      3.577      5.476
REMARK  7 active torsions:
REMARK  status: ('A' for Active; 'I' for Inactive)
REMARK    1  A    between atoms: C_2  and  C_3 
REMARK    2  A    between atoms: C_2  and  N_10 
REMARK    3  A    between atoms: C_3  and  N_4 
REMARK    4  A    between atoms: N_10  and  C_11 
REMARK    5  A    between atoms: C_11  and  C_12 
REMARK    6  A    between atoms: C_12  and  C_13 
REMARK    7  A    between atoms: C_13  and  N_14 
ROOT
HETATM    1  N   UNL     1     -41.828 -53.694  14.349  1.00  0.00     0.089 N 
HETATM    2  H   UNL     1     -41.893 -52.776  14.792  1.00  0.00     0.316 HD
ENDROOT
BRANCH   1   3
HETATM    3  C   UNL     1     -40.617 -53.717  13.497  1.00  0.00     0.236 C 
HETATM    4  C   UNL     1     -40.951 -52.877  12.254  1.00  0.00     0.044 C 
BRANCH   3   5
HETATM    5  C   UNL     1     -39.361 -53.167  14.213  1.00  0.00     0.183 C 
BRANCH   5   6
HETATM    6  N   UNL     1     -38.901 -54.003  15.307  1.00  0.00    -0.302 N 
HETATM    7  C   UNL     1     -38.859 -53.668  16.630  1.00  0.00     0.111 A 
HETATM    8  C   UNL     1     -38.347 -54.762  17.283  1.00  0.00     0.037 A 
HETATM    9  C   UNL     1     -38.127 -55.713  16.269  1.00  0.00     0.108 A 
HETATM   10  N   UNL     1     -38.474 -55.258  15.061  1.00  0.00    -0.310 N 
ATOM     11  HN  UNL     1     -38.426 -55.744  14.167  1.00  0.00     0.186 HD
ENDBRANCH   5   6
ENDBRANCH   3   5
ENDBRANCH   1   3
BRANCH   1  12
HETATM   12  C   UNL     1     -43.067 -53.956  13.616  1.00  0.00     0.272 C 
BRANCH  12  13
HETATM   13  C   UNL     1     -43.980 -54.838  14.471  1.00  0.00     0.050 C 
BRANCH  13  14
HETATM   14  C   UNL     1     -45.381 -54.889  13.869  1.00  0.00     0.127 C 
BRANCH  14  15
HETATM   15  N   UNL     1     -46.183 -53.706  14.140  1.00  0.00    -0.352 N 
HETATM   16  C   UNL     1     -46.357 -53.202  15.481  1.00  0.00     0.126 C 
HETATM   17  C   UNL     1     -46.988 -51.837  15.307  1.00  0.00     0.029 C 
HETATM   18  C   UNL     1     -46.622 -51.407  13.896  1.00  0.00     0.104 C 
HETATM   19  C   UNL     1     -46.281 -52.692  13.190  1.00  0.00     0.219 C 
HETATM   20  O   UNL     1     -46.048 -52.792  11.997  1.00  0.00    -0.273 OA
ENDBRANCH  14  15
ENDBRANCH  13  14
ENDBRANCH  12  13
ENDBRANCH   1  12
TORSDOF 7
ENDMDL
MODEL 5
REMARK VINA RESULT:      -4.9      1.794      2.560
REMARK  7 active torsions:
REMARK  status: ('A' for Active; 'I' for Inactive)
REMARK    1  A    between atoms: C_2  and  C_3 
REMARK    2  A    between atoms: C_2  and  N_10 
REMARK    3  A    between atoms: C_3  and  N_4 
REMARK    4  A    between atoms: N_10  and  C_11 
REMARK    5  A    between atoms: C_11  and  C_12 
REMARK    6  A    between atoms: C_12  and  C_13 
REMARK    7  A    between atoms: C_13  and  N_14 
ROOT
HETATM    1  N   UNL     1     -42.171 -50.198  11.792  1.00  0.00     0.089 N 
HETATM    2  H   UNL     1     -41.249 -50.582  11.578  1.00  0.00     0.316 HD
ENDROOT
BRANCH   1   3
HETATM    3  C   UNL     1     -42.079 -48.721  11.774  1.00  0.00     0.236 C 
HETATM    4  C   UNL     1     -40.893 -48.353  12.680  1.00  0.00     0.044 C 
BRANCH   3   5
HETATM    5  C   UNL     1     -41.888 -48.142  10.353  1.00  0.00     0.183 C 
BRANCH   5   6
HETATM    6  N   UNL     1     -43.061 -47.462   9.837  1.00  0.00    -0.302 N 
HETATM    7  C   UNL     1     -43.088 -46.272   9.167  1.00  0.00     0.111 A 
HETATM    8  C   UNL     1     -44.409 -46.024   8.887  1.00  0.00     0.037 A 
HETATM    9  C   UNL     1     -45.101 -47.132   9.413  1.00  0.00     0.108 A 
HETATM   10  N   UNL     1     -44.280 -48.018   9.985  1.00  0.00    -0.310 N 
ATOM     11  HN  UNL     1     -44.520 -48.904  10.428  1.00  0.00     0.186 HD
ENDBRANCH   5   6
ENDBRANCH   3   5
ENDBRANCH   1   3
BRANCH   1  12
HETATM   12  C   UNL     1     -42.624 -50.744  13.072  1.00  0.00     0.272 C 
BRANCH  12  13
HETATM   13  C   UNL     1     -44.065 -50.297  13.328  1.00  0.00     0.050 C 
BRANCH  13  14
HETATM   14  C   UNL     1     -44.748 -51.246  14.307  1.00  0.00     0.127 C 
BRANCH  14  15
HETATM   15  N   UNL     1     -44.431 -52.649  14.088  1.00  0.00    -0.352 N 
HETATM   16  C   UNL     1     -43.902 -53.478  15.144  1.00  0.00     0.126 C 
HETATM   17  C   UNL     1     -43.988 -54.893  14.610  1.00  0.00     0.029 C 
HETATM   18  C   UNL     1     -45.063 -54.848  13.537  1.00  0.00     0.104 C 
HETATM   19  C   UNL     1     -45.152 -53.394  13.158  1.00  0.00     0.219 C 
HETATM   20  O   UNL     1     -45.821 -52.953  12.238  1.00  0.00    -0.273 OA
ENDBRANCH  14  15
ENDBRANCH  13  14
ENDBRANCH  12  13
ENDBRANCH   1  12
TORSDOF 7
ENDMDL
MODEL 6
REMARK VINA RESULT:      -4.9      2.288      2.720
REMARK  7 active torsions:
REMARK  status: ('A' for Active; 'I' for Inactive)
REMARK    1  A    between atoms: C_2  and  C_3 
REMARK    2  A    between atoms: C_2  and  N_10 
REMARK    3  A    between atoms: C_3  and  N_4 
REMARK    4  A    between atoms: N_10  and  C_11 
REMARK    5  A    between atoms: C_11  and  C_12 
REMARK    6  A    between atoms: C_12  and  C_13 
REMARK    7  A    between atoms: C_13  and  N_14 
ROOT
HETATM    1  N   UNL     1     -41.409 -49.999  11.071  1.00  0.00     0.089 N 
HETATM    2  H   UNL     1     -40.557 -50.193  10.544  1.00  0.00     0.316 HD
ENDROOT
BRANCH   1   3
HETATM    3  C   UNL     1     -41.534 -48.533  11.237  1.00  0.00     0.236 C 
HETATM    4  C   UNL     1     -42.752 -48.307  12.148  1.00  0.00     0.044 C 
BRANCH   3   5
HETATM    5  C   UNL     1     -40.267 -47.880  11.838  1.00  0.00     0.183 C 
BRANCH   5   6
HETATM    6  N   UNL     1     -40.116 -46.478  11.497  1.00  0.00    -0.302 N 
HETATM    7  C   UNL     1     -40.268 -45.411  12.337  1.00  0.00     0.111 A 
HETATM    8  C   UNL     1     -40.038 -44.292  11.575  1.00  0.00     0.037 A 
HETATM    9  C   UNL     1     -39.737 -44.788  10.292  1.00  0.00     0.108 A 
HETATM   10  N   UNL     1     -39.774 -46.123  10.242  1.00  0.00    -0.310 N 
ATOM     11  HN  UNL     1     -39.587 -46.729   9.444  1.00  0.00     0.186 HD
ENDBRANCH   5   6
ENDBRANCH   3   5
ENDBRANCH   1   3
BRANCH   1  12
HETATM   12  C   UNL     1     -41.360 -50.731  12.337  1.00  0.00     0.272 C 
BRANCH  12  13
HETATM   13  C   UNL     1     -42.022 -52.099  12.154  1.00  0.00     0.050 C 
BRANCH  13  14
HETATM   14  C   UNL     1     -42.614 -52.583  13.473  1.00  0.00     0.127 C 
BRANCH  14  15
HETATM   15  N   UNL     1     -44.057 -52.419  13.567  1.00  0.00    -0.352 N 
HETATM   16  C   UNL     1     -44.653 -51.136  13.849  1.00  0.00     0.126 C 
HETATM   17  C   UNL     1     -46.132 -51.324  13.576  1.00  0.00     0.029 C 
HETATM   18  C   UNL     1     -46.213 -52.510  12.629  1.00  0.00     0.104 C 
HETATM   19  C   UNL     1     -44.905 -53.232  12.821  1.00  0.00     0.219 C 
HETATM   20  O   UNL     1     -44.626 -54.311  12.325  1.00  0.00    -0.273 OA
ENDBRANCH  14  15
ENDBRANCH  13  14
ENDBRANCH  12  13
ENDBRANCH   1  12
TORSDOF 7
ENDMDL
MODEL 7
REMARK VINA RESULT:      -4.9      2.553      5.912
REMARK  7 active torsions:
REMARK  status: ('A' for Active; 'I' for Inactive)
REMARK    1  A    between atoms: C_2  and  C_3 
REMARK    2  A    between atoms: C_2  and  N_10 
REMARK    3  A    between atoms: C_3  and  N_4 
REMARK    4  A    between atoms: N_10  and  C_11 
REMARK    5  A    between atoms: C_11  and  C_12 
REMARK    6  A    between atoms: C_12  and  C_13 
REMARK    7  A    between atoms: C_13  and  N_14 
ROOT
HETATM    1  N   UNL     1     -41.236 -52.011  11.431  1.00  0.00     0.089 N 
HETATM    2  H   UNL     1     -41.799 -51.541  10.721  1.00  0.00     0.316 HD
ENDROOT
BRANCH   1   3
HETATM    3  C   UNL     1     -42.138 -52.810  12.291  1.00  0.00     0.236 C 
HETATM    4  C   UNL     1     -41.264 -53.898  12.935  1.00  0.00     0.044 C 
BRANCH   3   5
HETATM    5  C   UNL     1     -42.852 -51.965  13.372  1.00  0.00     0.183 C 
BRANCH   5   6
HETATM    6  N   UNL     1     -44.296 -51.938  13.230  1.00  0.00    -0.302 N 
HETATM    7  C   UNL     1     -45.179 -51.219  13.985  1.00  0.00     0.111 A 
HETATM    8  C   UNL     1     -46.427 -51.514  13.495  1.00  0.00     0.037 A 
HETATM    9  C   UNL     1     -46.192 -52.407  12.433  1.00  0.00     0.108 A 
HETATM   10  N   UNL     1     -44.891 -52.661  12.260  1.00  0.00    -0.310 N 
ATOM     11  HN  UNL     1     -44.453 -53.260  11.561  1.00  0.00     0.186 HD
ENDBRANCH   5   6
ENDBRANCH   3   5
ENDBRANCH   1   3
BRANCH   1  12
HETATM   12  C   UNL     1     -40.462 -51.007  12.163  1.00  0.00     0.272 C 
BRANCH  12  13
HETATM   13  C   UNL     1     -40.010 -49.914  11.193  1.00  0.00     0.050 C 
BRANCH  13  14
HETATM   14  C   UNL     1     -40.327 -48.536  11.763  1.00  0.00     0.127 C 
BRANCH  14  15
HETATM   15  N   UNL     1     -41.077 -47.680  10.856  1.00  0.00    -0.352 N 
HETATM   16  C   UNL     1     -42.430 -47.997  10.465  1.00  0.00     0.126 C 
HETATM   17  C   UNL     1     -42.940 -46.749   9.776  1.00  0.00     0.029 C 
HETATM   18  C   UNL     1     -42.071 -45.619  10.306  1.00  0.00     0.104 C 
HETATM   19  C   UNL     1     -40.838 -46.309  10.825  1.00  0.00     0.219 C 
HETATM   20  O   UNL     1     -39.838 -45.738  11.228  1.00  0.00    -0.273 OA
ENDBRANCH  14  15
ENDBRANCH  13  14
ENDBRANCH  12  13
ENDBRANCH   1  12
TORSDOF 7
ENDMDL
MODEL 8
REMARK VINA RESULT:      -4.6      2.923      3.629
REMARK  7 active torsions:
REMARK  status: ('A' for Active; 'I' for Inactive)
REMARK    1  A    between atoms: C_2  and  C_3 
REMARK    2  A    between atoms: C_2  and  N_10 
REMARK    3  A    between atoms: C_3  and  N_4 
REMARK    4  A    between atoms: N_10  and  C_11 
REMARK    5  A    between atoms: C_11  and  C_12 
REMARK    6  A    between atoms: C_12  and  C_13 
REMARK    7  A    between atoms: C_13  and  N_14 
ROOT
HETATM    1  N   UNL     1     -39.409 -50.025  13.432  1.00  0.00     0.089 N 
HETATM    2  H   UNL     1     -40.330 -50.465  13.423  1.00  0.00     0.316 HD
ENDROOT
BRANCH   1   3
HETATM    3  C   UNL     1     -39.147 -49.459  12.089  1.00  0.00     0.236 C 
HETATM    4  C   UNL     1     -37.840 -50.103  11.600  1.00  0.00     0.044 C 
BRANCH   3   5
HETATM    5  C   UNL     1     -40.297 -49.717  11.088  1.00  0.00     0.183 C 
BRANCH   5   6
HETATM    6  N   UNL     1     -41.274 -48.645  11.034  1.00  0.00    -0.302 N 
HETATM    7  C   UNL     1     -41.018 -47.311  10.893  1.00  0.00     0.111 A 
HETATM    8  C   UNL     1     -42.241 -46.686  10.904  1.00  0.00     0.037 A 
HETATM    9  C   UNL     1     -43.175 -47.730  11.039  1.00  0.00     0.108 A 
HETATM   10  N   UNL     1     -42.590 -48.930  11.109  1.00  0.00    -0.310 N 
ATOM     11  HN  UNL     1     -43.034 -49.843  11.197  1.00  0.00     0.186 HD
ENDBRANCH   5   6
ENDBRANCH   3   5
ENDBRANCH   1   3
BRANCH   1  12
HETATM   12  C   UNL     1     -38.416 -51.012  13.858  1.00  0.00     0.272 C 
BRANCH  12  13
HETATM   13  C   UNL     1     -39.063 -51.983  14.848  1.00  0.00     0.050 C 
BRANCH  13  14
HETATM   14  C   UNL     1     -39.018 -53.406  14.302  1.00  0.00     0.127 C 
BRANCH  14  15
HETATM   15  N   UNL     1     -40.329 -53.993  14.074  1.00  0.00    -0.352 N 
HETATM   16  C   UNL     1     -41.182 -54.385  15.170  1.00  0.00     0.126 C 
HETATM   17  C   UNL     1     -42.529 -54.664  14.536  1.00  0.00     0.029 C 
HETATM   18  C   UNL     1     -42.524 -53.882  13.232  1.00  0.00     0.104 C 
HETATM   19  C   UNL     1     -41.066 -53.646  12.944  1.00  0.00     0.219 C 
HETATM   20  O   UNL     1     -40.630 -53.152  11.917  1.00  0.00    -0.273 OA
ENDBRANCH  14  15
ENDBRANCH  13  14
ENDBRANCH  12  13
ENDBRANCH   1  12
TORSDOF 7
ENDMDL
MODEL 9
REMARK VINA RESULT:      -4.6      2.773      6.473
REMARK  7 active torsions:
REMARK  status: ('A' for Active; 'I' for Inactive)
REMARK    1  A    between atoms: C_2  and  C_3 
REMARK    2  A    between atoms: C_2  and  N_10 
REMARK    3  A    between atoms: C_3  and  N_4 
REMARK    4  A    between atoms: N_10  and  C_11 
REMARK    5  A    between atoms: C_11  and  C_12 
REMARK    6  A    between atoms: C_12  and  C_13 
REMARK    7  A    between atoms: C_13  and  N_14 
ROOT
HETATM    1  N   UNL     1     -44.195 -50.809  12.673  1.00  0.00     0.089 N 
HETATM    2  H   UNL     1     -44.774 -50.131  12.176  1.00  0.00     0.316 HD
ENDROOT
BRANCH   1   3
HETATM    3  C   UNL     1     -45.067 -51.907  13.151  1.00  0.00     0.236 C 
HETATM    4  C   UNL     1     -46.485 -51.571  12.665  1.00  0.00     0.044 C 
BRANCH   3   5
HETATM    5  C   UNL     1     -44.624 -53.299  12.641  1.00  0.00     0.183 C 
BRANCH   5   6
HETATM    6  N   UNL     1     -43.347 -53.736  13.174  1.00  0.00    -0.302 N 
HETATM    7  C   UNL     1     -43.100 -54.185  14.440  1.00  0.00     0.111 A 
HETATM    8  C   UNL     1     -41.759 -54.474  14.486  1.00  0.00     0.037 A 
HETATM    9  C   UNL     1     -41.286 -54.183  13.192  1.00  0.00     0.108 A 
HETATM   10  N   UNL     1     -42.255 -53.742  12.384  1.00  0.00    -0.310 N 
ATOM     11  HN  UNL     1     -42.184 -53.474  11.403  1.00  0.00     0.186 HD
ENDBRANCH   5   6
ENDBRANCH   3   5
ENDBRANCH   1   3
BRANCH   1  12
HETATM   12  C   UNL     1     -43.474 -50.123  13.745  1.00  0.00     0.272 C 
BRANCH  12  13
HETATM   13  C   UNL     1     -42.520 -49.095  13.133  1.00  0.00     0.050 C 
BRANCH  13  14
HETATM   14  C   UNL     1     -41.678 -49.740  12.038  1.00  0.00     0.127 C 
BRANCH  14  15
HETATM   15  N   UNL     1     -40.257 -49.798  12.343  1.00  0.00    -0.352 N 
HETATM   16  C   UNL     1     -39.577 -51.057  12.534  1.00  0.00     0.126 C 
HETATM   17  C   UNL     1     -38.103 -50.708  12.536  1.00  0.00     0.029 C 
HETATM   18  C   UNL     1     -38.006 -49.386  11.792  1.00  0.00     0.104 C 
HETATM   19  C   UNL     1     -39.396 -48.813  11.868  1.00  0.00     0.219 C 
HETATM   20  O   UNL     1     -39.710 -47.696  11.490  1.00  0.00    -0.273 OA
ENDBRANCH  14  15
ENDBRANCH  13  14
ENDBRANCH  12  13
ENDBRANCH   1  12
TORSDOF 7
ENDMDL
