MODEL 1
REMARK VINA RESULT:      -7.2      0.000      0.000
REMARK  6 active torsions:
REMARK  status: ('A' for Active; 'I' for Inactive)
REMARK    1  A    between atoms: N_2  and  C_10 
REMARK    2  A    between atoms: C_6  and  N_7 
REMARK    3  A    between atoms: C_9  and  C_10 
REMARK    4  A    between atoms: C_9  and  O_24 
REMARK       I    between atoms: C_17  and  N_18 
REMARK    5  A    between atoms: C_17  and  C_28 
REMARK    6  A    between atoms: N_18  and  C_21 
ROOT
HETATM    1  C   UNL     1     -41.760 -52.743  13.115  1.00  0.00     0.117 A 
HETATM    2  N   UNL     1     -43.643 -53.834  13.292  1.00  0.00    -0.324 N 
HETATM    3  C   UNL     1     -42.487 -53.558  13.969  1.00  0.00     0.140 A 
HETATM    4  N   UNL     1     -42.444 -52.559  11.929  1.00  0.00    -0.346 N 
ATOM      5  HN  UNL     1     -42.132 -52.037  11.110  1.00  0.00     0.167 HD
HETATM    6  C   UNL     1     -40.526 -52.249  13.593  1.00  0.00     0.114 A 
HETATM    7  C   UNL     1     -43.580 -53.199  12.080  1.00  0.00     0.185 A 
HETATM    8  N   UNL     1     -42.143 -53.968  15.199  1.00  0.00    -0.336 N 
ATOM      9  HN  UNL     1     -42.698 -54.599  15.777  1.00  0.00     0.168 HD
HETATM   10  N   UNL     1     -40.160 -52.607  14.856  1.00  0.00    -0.341 N 
ATOM     11  HN  UNL     1     -39.292 -52.256  15.262  1.00  0.00     0.167 HD
HETATM   12  C   UNL     1     -40.962 -53.433  15.564  1.00  0.00     0.183 A 
ENDROOT
BRANCH   6  13
HETATM   13  N   UNL     1     -39.734 -51.382  12.826  1.00  0.00    -0.265 NA
HETATM   14  C   UNL     1     -40.238 -50.004  12.791  1.00  0.00     0.122 C 
HETATM   15  C   UNL     1     -39.449 -49.215  11.716  1.00  0.00     0.097 C 
HETATM   16  C   UNL     1     -37.930 -49.310  11.959  1.00  0.00     0.027 C 
HETATM   17  C   UNL     1     -37.476 -50.755  12.170  1.00  0.00     0.017 C 
HETATM   18  C   UNL     1     -38.324 -51.465  13.227  1.00  0.00     0.097 C 
BRANCH  15  19
HETATM   19  N   UNL     1     -39.897 -47.832  11.578  1.00  0.00    -0.355 N 
HETATM   20  C   UNL     1     -40.970 -47.479  10.789  1.00  0.00     0.217 C 
HETATM   21  O   UNL     1     -41.650 -48.290  10.171  1.00  0.00    -0.274 OA
HETATM   22  H   UNL     1     -39.335 -47.105  12.001  1.00  0.00     0.162 HD
BRANCH  20  23
HETATM   23  C   UNL     1     -41.228 -45.989  10.757  1.00  0.00     0.098 C 
HETATM   24  C   UNL     1     -39.985 -45.231  10.322  1.00  0.00     0.014 C 
ENDBRANCH  20  23
ENDBRANCH  15  19
ENDBRANCH   6  13
BRANCH   2  25
HETATM   25  C   UNL     1     -44.786 -54.558  13.809  1.00  0.00     0.172 C 
BRANCH  25  26
HETATM   26  C   UNL     1     -45.796 -53.704  14.591  1.00  0.00     0.102 C 
HETATM   27  C   UNL     1     -45.628 -52.173  14.459  1.00  0.00     0.153 C 
HETATM   28  O   UNL     1     -45.999 -51.596  15.735  1.00  0.00    -0.383 OA
HETATM   29  C   UNL     1     -46.473 -51.495  13.392  1.00  0.00     0.042 C 
HETATM   30  C   UNL     1     -46.304 -52.664  16.639  1.00  0.00     0.171 C 
HETATM   31  C   UNL     1     -45.588 -53.876  16.091  1.00  0.00     0.068 C 
BRANCH  26  32
HETATM   32  O   UNL     1     -47.138 -54.133  14.324  1.00  0.00    -0.385 OA
HETATM   33  H   UNL     1     -47.220 -55.086  14.513  1.00  0.00     0.210 HD
ENDBRANCH  26  32
ENDBRANCH  25  26
ENDBRANCH   2  25
TORSDOF 6
ENDMDL
MODEL 2
REMARK VINA RESULT:      -7.2      2.782      4.687
REMARK  6 active torsions:
REMARK  status: ('A' for Active; 'I' for Inactive)
REMARK    1  A    between atoms: N_2  and  C_10 
REMARK    2  A    between atoms: C_6  and  N_7 
REMARK    3  A    between atoms: C_9  and  C_10 
REMARK    4  A    between atoms: C_9  and  O_24 
REMARK       I    between atoms: C_17  and  N_18 
REMARK    5  A    between atoms: C_17  and  C_28 
REMARK    6  A    between atoms: N_18  and  C_21 
ROOT
HETATM    1  C   UNL     1     -40.302 -50.488  12.259  1.00  0.00     0.117 A 
HETATM    2  N   UNL     1     -40.285 -52.586  12.865  1.00  0.00    -0.324 N 
HETATM    3  C   UNL     1     -39.770 -51.362  13.195  1.00  0.00     0.140 A 
HETATM    4  N   UNL     1     -41.094 -51.173  11.358  1.00  0.00    -0.346 N 
ATOM      5  HN  UNL     1     -41.580 -50.790  10.547  1.00  0.00     0.167 HD
HETATM    6  C   UNL     1     -39.980 -49.120  12.402  1.00  0.00     0.114 A 
HETATM    7  C   UNL     1     -41.088 -52.420  11.767  1.00  0.00     0.185 A 
HETATM    8  N   UNL     1     -38.948 -51.069  14.213  1.00  0.00    -0.336 N 
ATOM      9  HN  UNL     1     -38.553 -51.756  14.856  1.00  0.00     0.168 HD
HETATM   10  N   UNL     1     -39.182 -48.775  13.451  1.00  0.00    -0.341 N 
ATOM     11  HN  UNL     1     -38.941 -47.797  13.617  1.00  0.00     0.167 HD
HETATM   12  C   UNL     1     -38.715 -49.744  14.268  1.00  0.00     0.183 A 
ENDROOT
BRANCH   6  13
HETATM   13  N   UNL     1     -40.502 -48.147  11.536  1.00  0.00    -0.265 NA
HETATM   14  C   UNL     1     -41.968 -48.090  11.533  1.00  0.00     0.122 C 
HETATM   15  C   UNL     1     -42.427 -47.184  10.363  1.00  0.00     0.097 C 
HETATM   16  C   UNL     1     -41.756 -45.798  10.436  1.00  0.00     0.027 C 
HETATM   17  C   UNL     1     -40.241 -45.908  10.619  1.00  0.00     0.017 C 
HETATM   18  C   UNL     1     -39.878 -46.840  11.777  1.00  0.00     0.097 C 
BRANCH  15  19
HETATM   19  N   UNL     1     -43.880 -47.085  10.252  1.00  0.00    -0.355 N 
HETATM   20  C   UNL     1     -44.553 -47.381   9.087  1.00  0.00     0.217 C 
HETATM   21  O   UNL     1     -43.999 -47.779   8.069  1.00  0.00    -0.274 OA
HETATM   22  H   UNL     1     -44.391 -46.690  11.032  1.00  0.00     0.162 HD
BRANCH  20  23
HETATM   23  C   UNL     1     -46.047 -47.164   9.185  1.00  0.00     0.098 C 
HETATM   24  C   UNL     1     -46.803 -48.445   8.874  1.00  0.00     0.014 C 
ENDBRANCH  20  23
ENDBRANCH  15  19
ENDBRANCH   6  13
BRANCH   2  25
HETATM   25  C   UNL     1     -40.120 -53.814  13.614  1.00  0.00     0.172 C 
BRANCH  25  26
HETATM   26  C   UNL     1     -41.081 -53.986  14.800  1.00  0.00     0.102 C 
HETATM   27  C   UNL     1     -40.674 -55.046  15.848  1.00  0.00     0.153 C 
HETATM   28  O   UNL     1     -41.899 -55.643  16.342  1.00  0.00    -0.383 OA
HETATM   29  C   UNL     1     -39.901 -54.536  17.053  1.00  0.00     0.042 C 
HETATM   30  C   UNL     1     -42.998 -55.076  15.620  1.00  0.00     0.171 C 
HETATM   31  C   UNL     1     -42.410 -54.561  14.326  1.00  0.00     0.068 C 
BRANCH  26  32
HETATM   32  O   UNL     1     -41.386 -52.717  15.394  1.00  0.00    -0.385 OA
HETATM   33  H   UNL     1     -42.329 -52.511  15.258  1.00  0.00     0.210 HD
ENDBRANCH  26  32
ENDBRANCH  25  26
ENDBRANCH   2  25
TORSDOF 6
ENDMDL
MODEL 3
REMARK VINA RESULT:      -7.1      3.364      5.525
REMARK  6 active torsions:
REMARK  status: ('A' for Active; 'I' for Inactive)
REMARK    1  A    between atoms: N_2  and  C_10 
REMARK    2  A    between atoms: C_6  and  N_7 
REMARK    3  A    between atoms: C_9  and  C_10 
REMARK    4  A    between atoms: C_9  and  O_24 
REMARK       I    between atoms: C_17  and  N_18 
REMARK    5  A    between atoms: C_17  and  C_28 
REMARK    6  A    between atoms: N_18  and  C_21 
ROOT
HETATM    1  C   UNL     1     -39.865 -49.398  12.972  1.00  0.00     0.117 A 
HETATM    2  N   UNL     1     -39.475 -50.878  14.530  1.00  0.00    -0.324 N 
HETATM    3  C   UNL     1     -39.020 -50.442  13.315  1.00  0.00     0.140 A 
HETATM    4  N   UNL     1     -40.836 -49.228  13.940  1.00  0.00    -0.346 N 
ATOM      5  HN  UNL     1     -41.607 -48.560  13.931  1.00  0.00     0.167 HD
HETATM    6  C   UNL     1     -39.583 -48.711  11.770  1.00  0.00     0.114 A 
HETATM    7  C   UNL     1     -40.555 -50.108  14.872  1.00  0.00     0.185 A 
HETATM    8  N   UNL     1     -37.972 -50.909  12.620  1.00  0.00    -0.336 N 
ATOM      9  HN  UNL     1     -37.400 -51.706  12.899  1.00  0.00     0.168 HD
HETATM   10  N   UNL     1     -38.499 -49.126  11.056  1.00  0.00    -0.341 N 
ATOM     11  HN  UNL     1     -38.233 -48.648  10.195  1.00  0.00     0.167 HD
HETATM   12  C   UNL     1     -37.781 -50.180  11.503  1.00  0.00     0.183 A 
ENDROOT
BRANCH   6  13
HETATM   13  N   UNL     1     -40.349 -47.612  11.354  1.00  0.00    -0.265 NA
HETATM   14  C   UNL     1     -41.784 -47.900  11.258  1.00  0.00     0.122 C 
HETATM   15  C   UNL     1     -42.481 -46.715  10.545  1.00  0.00     0.097 C 
HETATM   16  C   UNL     1     -42.166 -45.379  11.246  1.00  0.00     0.027 C 
HETATM   17  C   UNL     1     -40.665 -45.203  11.487  1.00  0.00     0.017 C 
HETATM   18  C   UNL     1     -40.056 -46.427  12.171  1.00  0.00     0.097 C 
BRANCH  15  19
HETATM   19  N   UNL     1     -43.917 -46.917  10.370  1.00  0.00    -0.355 N 
HETATM   20  C   UNL     1     -44.459 -47.379   9.190  1.00  0.00     0.217 C 
HETATM   21  O   UNL     1     -43.787 -47.688   8.213  1.00  0.00    -0.274 OA
HETATM   22  H   UNL     1     -44.535 -46.611  11.111  1.00  0.00     0.162 HD
BRANCH  20  23
HETATM   23  C   UNL     1     -45.969 -47.469   9.217  1.00  0.00     0.098 C 
HETATM   24  C   UNL     1     -46.460 -48.626   8.364  1.00  0.00     0.014 C 
ENDBRANCH  20  23
ENDBRANCH  15  19
ENDBRANCH   6  13
BRANCH   2  25
HETATM   25  C   UNL     1     -38.854 -51.883  15.366  1.00  0.00     0.172 C 
BRANCH  25  26
HETATM   26  C   UNL     1     -39.235 -53.333  15.030  1.00  0.00     0.102 C 
HETATM   27  C   UNL     1     -40.750 -53.643  15.008  1.00  0.00     0.153 C 
HETATM   28  O   UNL     1     -40.910 -55.000  15.492  1.00  0.00    -0.383 OA
HETATM   29  C   UNL     1     -41.431 -53.562  13.652  1.00  0.00     0.042 C 
HETATM   30  C   UNL     1     -39.621 -55.497  15.870  1.00  0.00     0.171 C 
HETATM   31  C   UNL     1     -38.777 -54.272  16.139  1.00  0.00     0.068 C 
BRANCH  26  32
HETATM   32  O   UNL     1     -38.569 -53.771  13.838  1.00  0.00    -0.385 OA
HETATM   33  H   UNL     1     -39.163 -53.657  13.073  1.00  0.00     0.210 HD
ENDBRANCH  26  32
ENDBRANCH  25  26
ENDBRANCH   2  25
TORSDOF 6
ENDMDL
MODEL 4
REMARK VINA RESULT:      -6.9      2.373      3.501
REMARK  6 active torsions:
REMARK  status: ('A' for Active; 'I' for Inactive)
REMARK    1  A    between atoms: N_2  and  C_10 
REMARK    2  A    between atoms: C_6  and  N_7 
REMARK    3  A    between atoms: C_9  and  C_10 
REMARK    4  A    between atoms: C_9  and  O_24 
REMARK       I    between atoms: C_17  and  N_18 
REMARK    5  A    between atoms: C_17  and  C_28 
REMARK    6  A    between atoms: N_18  and  C_21 
ROOT
HETATM    1  C   UNL     1     -41.135 -51.349  12.447  1.00  0.00     0.117 A 
HETATM    2  N   UNL     1     -41.719 -53.303  13.227  1.00  0.00    -0.324 N 
HETATM    3  C   UNL     1     -40.711 -52.379  13.273  1.00  0.00     0.140 A 
HETATM    4  N   UNL     1     -42.357 -51.658  11.882  1.00  0.00    -0.346 N 
ATOM      5  HN  UNL     1     -42.886 -51.102  11.210  1.00  0.00     0.167 HD
HETATM    6  C   UNL     1     -40.299 -50.214  12.355  1.00  0.00     0.114 A 
HETATM    7  C   UNL     1     -42.693 -52.819  12.394  1.00  0.00     0.185 A 
HETATM    8  N   UNL     1     -39.574 -52.446  13.979  1.00  0.00    -0.336 N 
ATOM      9  HN  UNL     1     -39.289 -53.244  14.548  1.00  0.00     0.168 HD
HETATM   10  N   UNL     1     -39.153 -50.224  13.093  1.00  0.00    -0.341 N 
ATOM     11  HN  UNL     1     -38.527 -49.419  13.086  1.00  0.00     0.167 HD
HETATM   12  C   UNL     1     -38.858 -51.314  13.835  1.00  0.00     0.183 A 
ENDROOT
BRANCH   6  13
HETATM   13  N   UNL     1     -40.656 -49.099  11.583  1.00  0.00    -0.265 NA
HETATM   14  C   UNL     1     -42.105 -48.897  11.477  1.00  0.00     0.122 C 
HETATM   15  C   UNL     1     -42.378 -47.817  10.400  1.00  0.00     0.097 C 
HETATM   16  C   UNL     1     -41.596 -46.523  10.698  1.00  0.00     0.027 C 
HETATM   17  C   UNL     1     -40.119 -46.803  10.980  1.00  0.00     0.017 C 
HETATM   18  C   UNL     1     -39.942 -47.897  12.034  1.00  0.00     0.097 C 
BRANCH  15  19
HETATM   19  N   UNL     1     -43.802 -47.563  10.194  1.00  0.00    -0.355 N 
HETATM   20  C   UNL     1     -44.361 -47.476   8.938  1.00  0.00     0.217 C 
HETATM   21  O   UNL     1     -43.726 -47.637   7.902  1.00  0.00    -0.274 OA
HETATM   22  H   UNL     1     -44.369 -47.347  11.004  1.00  0.00     0.162 HD
BRANCH  20  23
HETATM   23  C   UNL     1     -45.841 -47.162   8.960  1.00  0.00     0.098 C 
HETATM   24  C   UNL     1     -46.668 -48.432   8.858  1.00  0.00     0.014 C 
ENDBRANCH  20  23
ENDBRANCH  15  19
ENDBRANCH   6  13
BRANCH   2  25
HETATM   25  C   UNL     1     -41.806 -54.515  14.015  1.00  0.00     0.172 C 
BRANCH  25  26
HETATM   26  C   UNL     1     -42.987 -54.567  14.997  1.00  0.00     0.102 C 
HETATM   27  C   UNL     1     -44.348 -54.090  14.441  1.00  0.00     0.153 C 
HETATM   28  O   UNL     1     -45.048 -53.445  15.533  1.00  0.00    -0.383 OA
HETATM   29  C   UNL     1     -45.264 -55.172  13.891  1.00  0.00     0.042 C 
HETATM   30  C   UNL     1     -44.184 -53.433  16.676  1.00  0.00     0.171 C 
HETATM   31  C   UNL     1     -42.783 -53.563  16.125  1.00  0.00     0.068 C 
BRANCH  26  32
HETATM   32  O   UNL     1     -43.071 -55.855  15.622  1.00  0.00    -0.385 OA
HETATM   33  H   UNL     1     -43.234 -55.745  16.577  1.00  0.00     0.210 HD
ENDBRANCH  26  32
ENDBRANCH  25  26
ENDBRANCH   2  25
TORSDOF 6
ENDMDL
MODEL 5
REMARK VINA RESULT:      -6.5      2.817      3.903
REMARK  6 active torsions:
REMARK  status: ('A' for Active; 'I' for Inactive)
REMARK    1  A    between atoms: N_2  and  C_10 
REMARK    2  A    between atoms: C_6  and  N_7 
REMARK    3  A    between atoms: C_9  and  C_10 
REMARK    4  A    between atoms: C_9  and  O_24 
REMARK       I    between atoms: C_17  and  N_18 
REMARK    5  A    between atoms: C_17  and  C_28 
REMARK    6  A    between atoms: N_18  and  C_21 
ROOT
HETATM    1  C   UNL     1     -42.080 -49.793  13.018  1.00  0.00     0.117 A 
HETATM    2  N   UNL     1     -42.371 -51.928  13.373  1.00  0.00    -0.324 N 
HETATM    3  C   UNL     1     -42.445 -50.710  13.992  1.00  0.00     0.140 A 
HETATM    4  N   UNL     1     -41.756 -50.444  11.843  1.00  0.00    -0.346 N 
ATOM      5  HN  UNL     1     -41.421 -50.024  10.976  1.00  0.00     0.167 HD
HETATM    6  C   UNL     1     -42.128 -48.426  13.372  1.00  0.00     0.114 A 
HETATM    7  C   UNL     1     -41.971 -51.716  12.080  1.00  0.00     0.185 A 
HETATM    8  N   UNL     1     -42.810 -50.458  15.257  1.00  0.00    -0.336 N 
ATOM      9  HN  UNL     1     -43.036 -51.172  15.950  1.00  0.00     0.168 HD
HETATM   10  N   UNL     1     -42.537 -48.125  14.636  1.00  0.00    -0.341 N 
ATOM     11  HN  UNL     1     -42.617 -47.153  14.936  1.00  0.00     0.167 HD
HETATM   12  C   UNL     1     -42.836 -49.131  15.488  1.00  0.00     0.183 A 
ENDROOT
BRANCH   6  13
HETATM   13  N   UNL     1     -41.822 -47.416  12.448  1.00  0.00    -0.265 NA
HETATM   14  C   UNL     1     -42.342 -46.097  12.826  1.00  0.00     0.122 C 
HETATM   15  C   UNL     1     -42.178 -45.136  11.622  1.00  0.00     0.097 C 
HETATM   16  C   UNL     1     -40.718 -45.105  11.129  1.00  0.00     0.027 C 
HETATM   17  C   UNL     1     -40.158 -46.513  10.919  1.00  0.00     0.017 C 
HETATM   18  C   UNL     1     -40.385 -47.400  12.144  1.00  0.00     0.097 C 
BRANCH  15  19
HETATM   19  N   UNL     1     -42.697 -43.796  11.886  1.00  0.00    -0.355 N 
HETATM   20  C   UNL     1     -43.349 -43.055  10.925  1.00  0.00     0.217 C 
HETATM   21  O   UNL     1     -43.575 -43.466   9.793  1.00  0.00    -0.274 OA
HETATM   22  H   UNL     1     -42.479 -43.368  12.776  1.00  0.00     0.162 HD
BRANCH  20  23
HETATM   23  C   UNL     1     -43.760 -41.680  11.403  1.00  0.00     0.098 C 
HETATM   24  C   UNL     1     -42.578 -40.726  11.392  1.00  0.00     0.014 C 
ENDBRANCH  20  23
ENDBRANCH  15  19
ENDBRANCH   6  13
BRANCH   2  25
HETATM   25  C   UNL     1     -42.769 -53.200  13.938  1.00  0.00     0.172 C 
BRANCH  25  26
HETATM   26  C   UNL     1     -44.176 -53.674  13.544  1.00  0.00     0.102 C 
HETATM   27  C   UNL     1     -45.343 -52.762  13.989  1.00  0.00     0.153 C 
HETATM   28  O   UNL     1     -46.463 -53.629  14.297  1.00  0.00    -0.383 OA
HETATM   29  C   UNL     1     -45.825 -51.744  12.969  1.00  0.00     0.042 C 
HETATM   30  C   UNL     1     -46.035 -54.987  14.142  1.00  0.00     0.171 C 
HETATM   31  C   UNL     1     -44.531 -54.957  14.286  1.00  0.00     0.068 C 
BRANCH  26  32
HETATM   32  O   UNL     1     -44.233 -53.993  12.147  1.00  0.00    -0.385 OA
HETATM   33  H   UNL     1     -45.047 -54.496  11.960  1.00  0.00     0.210 HD
ENDBRANCH  26  32
ENDBRANCH  25  26
ENDBRANCH   2  25
TORSDOF 6
ENDMDL
MODEL 6
REMARK VINA RESULT:      -6.3      2.604      8.109
REMARK  6 active torsions:
REMARK  status: ('A' for Active; 'I' for Inactive)
REMARK    1  A    between atoms: N_2  and  C_10 
REMARK    2  A    between atoms: C_6  and  N_7 
REMARK    3  A    between atoms: C_9  and  C_10 
REMARK    4  A    between atoms: C_9  and  O_24 
REMARK       I    between atoms: C_17  and  N_18 
REMARK    5  A    between atoms: C_17  and  C_28 
REMARK    6  A    between atoms: N_18  and  C_21 
ROOT
HETATM    1  C   UNL     1     -40.354 -48.222  12.400  1.00  0.00     0.117 A 
HETATM    2  N   UNL     1     -39.875 -46.095  12.274  1.00  0.00    -0.324 N 
HETATM    3  C   UNL     1     -40.525 -47.098  11.607  1.00  0.00     0.140 A 
HETATM    4  N   UNL     1     -39.584 -47.917  13.506  1.00  0.00    -0.346 N 
ATOM      5  HN  UNL     1     -39.271 -48.557  14.236  1.00  0.00     0.167 HD
HETATM    6  C   UNL     1     -40.986 -49.412  11.974  1.00  0.00     0.114 A 
HETATM    7  C   UNL     1     -39.341 -46.631  13.416  1.00  0.00     0.185 A 
HETATM    8  N   UNL     1     -41.199 -47.007  10.452  1.00  0.00    -0.336 N 
ATOM      9  HN  UNL     1     -41.267 -46.161   9.884  1.00  0.00     0.168 HD
HETATM   10  N   UNL     1     -41.717 -49.350  10.826  1.00  0.00    -0.341 N 
ATOM     11  HN  UNL     1     -42.218 -50.172  10.487  1.00  0.00     0.167 HD
HETATM   12  C   UNL     1     -41.772 -48.186  10.142  1.00  0.00     0.183 A 
ENDROOT
BRANCH   6  13
HETATM   13  N   UNL     1     -40.912 -50.593  12.726  1.00  0.00    -0.265 NA
HETATM   14  C   UNL     1     -42.000 -51.537  12.445  1.00  0.00     0.122 C 
HETATM   15  C   UNL     1     -41.966 -52.664  13.507  1.00  0.00     0.097 C 
HETATM   16  C   UNL     1     -40.577 -53.327  13.571  1.00  0.00     0.027 C 
HETATM   17  C   UNL     1     -39.457 -52.292  13.684  1.00  0.00     0.017 C 
HETATM   18  C   UNL     1     -39.581 -51.205  12.615  1.00  0.00     0.097 C 
BRANCH  15  19
HETATM   19  N   UNL     1     -43.035 -53.644  13.334  1.00  0.00    -0.355 N 
HETATM   20  C   UNL     1     -44.049 -53.800  14.254  1.00  0.00     0.217 C 
HETATM   21  O   UNL     1     -44.157 -53.115  15.264  1.00  0.00    -0.274 OA
HETATM   22  H   UNL     1     -42.965 -54.293  12.561  1.00  0.00     0.162 HD
BRANCH  20  23
HETATM   23  C   UNL     1     -45.020 -54.904  13.896  1.00  0.00     0.098 C 
HETATM   24  C   UNL     1     -46.365 -54.682  14.567  1.00  0.00     0.014 C 
ENDBRANCH  20  23
ENDBRANCH  15  19
ENDBRANCH   6  13
BRANCH   2  25
HETATM   25  C   UNL     1     -39.861 -44.694  11.910  1.00  0.00     0.172 C 
BRANCH  25  26
HETATM   26  C   UNL     1     -40.841 -43.809  12.695  1.00  0.00     0.102 C 
HETATM   27  C   UNL     1     -42.318 -44.265  12.683  1.00  0.00     0.153 C 
HETATM   28  O   UNL     1     -43.131 -43.066  12.693  1.00  0.00    -0.383 OA
HETATM   29  C   UNL     1     -42.765 -45.125  13.854  1.00  0.00     0.042 C 
HETATM   30  C   UNL     1     -42.258 -41.932  12.636  1.00  0.00     0.171 C 
HETATM   31  C   UNL     1     -40.969 -42.442  12.034  1.00  0.00     0.068 C 
BRANCH  26  32
HETATM   32  O   UNL     1     -40.355 -43.566  14.022  1.00  0.00    -0.385 OA
HETATM   33  H   UNL     1     -40.651 -44.281  14.615  1.00  0.00     0.210 HD
ENDBRANCH  26  32
ENDBRANCH  25  26
ENDBRANCH   2  25
TORSDOF 6
ENDMDL
MODEL 7
REMARK VINA RESULT:      -6.2      1.947      7.610
REMARK  6 active torsions:
REMARK  status: ('A' for Active; 'I' for Inactive)
REMARK    1  A    between atoms: N_2  and  C_10 
REMARK    2  A    between atoms: C_6  and  N_7 
REMARK    3  A    between atoms: C_9  and  C_10 
REMARK    4  A    between atoms: C_9  and  O_24 
REMARK       I    between atoms: C_17  and  N_18 
REMARK    5  A    between atoms: C_17  and  C_28 
REMARK    6  A    between atoms: N_18  and  C_21 
ROOT
HETATM    1  C   UNL     1     -40.114 -49.767  13.813  1.00  0.00     0.117 A 
HETATM    2  N   UNL     1     -40.327 -47.617  13.497  1.00  0.00    -0.324 N 
HETATM    3  C   UNL     1     -39.539 -48.686  13.163  1.00  0.00     0.140 A 
HETATM    4  N   UNL     1     -41.205 -49.358  14.555  1.00  0.00    -0.346 N 
ATOM      5  HN  UNL     1     -41.793 -49.934  15.158  1.00  0.00     0.167 HD
HETATM    6  C   UNL     1     -39.529 -51.034  13.591  1.00  0.00     0.114 A 
HETATM    7  C   UNL     1     -41.323 -48.073  14.319  1.00  0.00     0.185 A 
HETATM    8  N   UNL     1     -38.462 -48.688  12.366  1.00  0.00    -0.336 N 
ATOM      9  HN  UNL     1     -38.055 -47.856  11.937  1.00  0.00     0.168 HD
HETATM   10  N   UNL     1     -38.458 -51.086  12.751  1.00  0.00    -0.341 N 
ATOM     11  HN  UNL     1     -38.014 -51.979  12.534  1.00  0.00     0.167 HD
HETATM   12  C   UNL     1     -37.990 -49.940  12.209  1.00  0.00     0.183 A 
ENDROOT
BRANCH   6  13
HETATM   13  N   UNL     1     -40.060 -52.199  14.165  1.00  0.00    -0.265 NA
HETATM   14  C   UNL     1     -41.298 -52.657  13.526  1.00  0.00     0.122 C 
HETATM   15  C   UNL     1     -41.923 -53.774  14.398  1.00  0.00     0.097 C 
HETATM   16  C   UNL     1     -40.912 -54.906  14.662  1.00  0.00     0.027 C 
HETATM   17  C   UNL     1     -39.570 -54.366  15.159  1.00  0.00     0.017 C 
HETATM   18  C   UNL     1     -39.039 -53.252  14.255  1.00  0.00     0.097 C 
BRANCH  15  19
HETATM   19  N   UNL     1     -43.185 -54.279  13.862  1.00  0.00    -0.355 N 
HETATM   20  C   UNL     1     -44.220 -54.689  14.674  1.00  0.00     0.217 C 
HETATM   21  O   UNL     1     -44.182 -54.633  15.898  1.00  0.00    -0.274 OA
HETATM   22  H   UNL     1     -43.255 -54.422  12.863  1.00  0.00     0.162 HD
BRANCH  20  23
HETATM   23  C   UNL     1     -45.412 -55.218  13.908  1.00  0.00     0.098 C 
HETATM   24  C   UNL     1     -46.713 -54.753  14.539  1.00  0.00     0.014 C 
ENDBRANCH  20  23
ENDBRANCH  15  19
ENDBRANCH   6  13
BRANCH   2  25
HETATM   25  C   UNL     1     -40.210 -46.272  12.974  1.00  0.00     0.172 C 
BRANCH  25  26
HETATM   26  C   UNL     1     -40.764 -46.076  11.555  1.00  0.00     0.102 C 
HETATM   27  C   UNL     1     -41.184 -44.634  11.188  1.00  0.00     0.153 C 
HETATM   28  O   UNL     1     -42.329 -44.739  10.306  1.00  0.00    -0.383 OA
HETATM   29  C   UNL     1     -40.138 -43.792  10.475  1.00  0.00     0.042 C 
HETATM   30  C   UNL     1     -42.671 -46.124  10.177  1.00  0.00     0.171 C 
HETATM   31  C   UNL     1     -42.097 -46.799  11.401  1.00  0.00     0.068 C 
BRANCH  26  32
HETATM   32  O   UNL     1     -39.883 -46.654  10.582  1.00  0.00    -0.385 OA
HETATM   33  H   UNL     1     -39.151 -46.038  10.398  1.00  0.00     0.210 HD
ENDBRANCH  26  32
ENDBRANCH  25  26
ENDBRANCH   2  25
TORSDOF 6
ENDMDL
MODEL 8
REMARK VINA RESULT:      -6.2      3.736      7.998
REMARK  6 active torsions:
REMARK  status: ('A' for Active; 'I' for Inactive)
REMARK    1  A    between atoms: N_2  and  C_10 
REMARK    2  A    between atoms: C_6  and  N_7 
REMARK    3  A    between atoms: C_9  and  C_10 
REMARK    4  A    between atoms: C_9  and  O_24 
REMARK       I    between atoms: C_17  and  N_18 
REMARK    5  A    between atoms: C_17  and  C_28 
REMARK    6  A    between atoms: N_18  and  C_21 
ROOT
HETATM    1  C   UNL     1     -39.899 -49.907  13.113  1.00  0.00     0.117 A 
HETATM    2  N   UNL     1     -40.201 -47.744  13.120  1.00  0.00    -0.324 N 
HETATM    3  C   UNL     1     -39.419 -48.724  12.572  1.00  0.00     0.140 A 
HETATM    4  N   UNL     1     -40.925 -49.647  14.000  1.00  0.00    -0.346 N 
ATOM      5  HN  UNL     1     -41.437 -50.323  14.568  1.00  0.00     0.167 HD
HETATM    6  C   UNL     1     -39.303 -51.107  12.665  1.00  0.00     0.114 A 
HETATM    7  C   UNL     1     -41.102 -48.348  13.957  1.00  0.00     0.185 A 
HETATM    8  N   UNL     1     -38.422 -48.574  11.688  1.00  0.00    -0.336 N 
ATOM      9  HN  UNL     1     -38.081 -47.676  11.344  1.00  0.00     0.168 HD
HETATM   10  N   UNL     1     -38.315 -51.001  11.733  1.00  0.00    -0.341 N 
ATOM     11  HN  UNL     1     -37.870 -51.837  11.354  1.00  0.00     0.167 HD
HETATM   12  C   UNL     1     -37.933 -49.773  11.316  1.00  0.00     0.183 A 
ENDROOT
BRANCH   6  13
HETATM   13  N   UNL     1     -39.744 -52.360  13.116  1.00  0.00    -0.265 NA
HETATM   14  C   UNL     1     -39.459 -52.608  14.533  1.00  0.00     0.122 C 
HETATM   15  C   UNL     1     -39.744 -54.098  14.844  1.00  0.00     0.097 C 
HETATM   16  C   UNL     1     -41.174 -54.490  14.426  1.00  0.00     0.027 C 
HETATM   17  C   UNL     1     -41.490 -54.051  12.995  1.00  0.00     0.017 C 
HETATM   18  C   UNL     1     -41.155 -52.576  12.770  1.00  0.00     0.097 C 
BRANCH  15  19
HETATM   19  N   UNL     1     -39.459 -54.458  16.231  1.00  0.00    -0.355 N 
HETATM   20  C   UNL     1     -38.548 -55.435  16.567  1.00  0.00     0.217 C 
HETATM   21  O   UNL     1     -37.884 -56.053  15.743  1.00  0.00    -0.274 OA
HETATM   22  H   UNL     1     -40.026 -54.040  16.957  1.00  0.00     0.162 HD
BRANCH  20  23
HETATM   23  C   UNL     1     -38.446 -55.674  18.057  1.00  0.00     0.098 C 
HETATM   24  C   UNL     1     -39.747 -56.235  18.608  1.00  0.00     0.014 C 
ENDBRANCH  20  23
ENDBRANCH  15  19
ENDBRANCH   6  13
BRANCH   2  25
HETATM   25  C   UNL     1     -40.171 -46.337  12.782  1.00  0.00     0.172 C 
BRANCH  25  26
HETATM   26  C   UNL     1     -40.740 -45.989  11.397  1.00  0.00     0.102 C 
HETATM   27  C   UNL     1     -41.372 -44.585  11.262  1.00  0.00     0.153 C 
HETATM   28  O   UNL     1     -42.482 -44.710  10.339  1.00  0.00    -0.383 OA
HETATM   29  C   UNL     1     -40.463 -43.489  10.732  1.00  0.00     0.042 C 
HETATM   30  C   UNL     1     -42.608 -46.088   9.970  1.00  0.00     0.171 C 
HETATM   31  C   UNL     1     -41.945 -46.867  11.084  1.00  0.00     0.068 C 
BRANCH  26  32
HETATM   32  O   UNL     1     -39.775 -46.257  10.371  1.00  0.00    -0.385 OA
HETATM   33  H   UNL     1     -40.192 -46.152   9.496  1.00  0.00     0.210 HD
ENDBRANCH  26  32
ENDBRANCH  25  26
ENDBRANCH   2  25
TORSDOF 6
ENDMDL
MODEL 9
REMARK VINA RESULT:      -6.2      2.113      7.605
REMARK  6 active torsions:
REMARK  status: ('A' for Active; 'I' for Inactive)
REMARK    1  A    between atoms: N_2  and  C_10 
REMARK    2  A    between atoms: C_6  and  N_7 
REMARK    3  A    between atoms: C_9  and  C_10 
REMARK    4  A    between atoms: C_9  and  O_24 
REMARK       I    between atoms: C_17  and  N_18 
REMARK    5  A    between atoms: C_17  and  C_28 
REMARK    6  A    between atoms: N_18  and  C_21 
ROOT
HETATM    1  C   UNL     1     -40.173 -49.507  13.594  1.00  0.00     0.117 A 
HETATM    2  N   UNL     1     -39.683 -47.383  13.712  1.00  0.00    -0.324 N 
HETATM    3  C   UNL     1     -39.406 -48.518  12.999  1.00  0.00     0.140 A 
HETATM    4  N   UNL     1     -40.872 -48.993  14.669  1.00  0.00    -0.346 N 
ATOM      5  HN  UNL     1     -41.484 -49.500  15.308  1.00  0.00     0.167 HD
HETATM    6  C   UNL     1     -40.128 -50.793  13.010  1.00  0.00     0.114 A 
HETATM    7  C   UNL     1     -40.581 -47.714  14.692  1.00  0.00     0.185 A 
HETATM    8  N   UNL     1     -38.589 -48.640  11.943  1.00  0.00    -0.336 N 
ATOM      9  HN  UNL     1     -38.016 -47.886  11.562  1.00  0.00     0.168 HD
HETATM   10  N   UNL     1     -39.343 -50.949  11.908  1.00  0.00    -0.341 N 
ATOM     11  HN  UNL     1     -39.295 -51.849  11.430  1.00  0.00     0.167 HD
HETATM   12  C   UNL     1     -38.629 -49.895  11.455  1.00  0.00     0.183 A 
ENDROOT
BRANCH   6  13
HETATM   13  N   UNL     1     -40.900 -51.854  13.507  1.00  0.00    -0.265 NA
HETATM   14  C   UNL     1     -42.341 -51.579  13.514  1.00  0.00     0.122 C 
HETATM   15  C   UNL     1     -43.056 -52.693  14.318  1.00  0.00     0.097 C 
HETATM   16  C   UNL     1     -42.697 -54.090  13.774  1.00  0.00     0.027 C 
HETATM   17  C   UNL     1     -41.187 -54.268  13.614  1.00  0.00     0.017 C 
HETATM   18  C   UNL     1     -40.561 -53.113  12.831  1.00  0.00     0.097 C 
BRANCH  15  19
HETATM   19  N   UNL     1     -44.500 -52.495  14.412  1.00  0.00    -0.355 N 
HETATM   20  C   UNL     1     -45.347 -52.723  13.350  1.00  0.00     0.217 C 
HETATM   21  O   UNL     1     -44.969 -53.139  12.261  1.00  0.00    -0.274 OA
HETATM   22  H   UNL     1     -44.869 -52.081  15.259  1.00  0.00     0.162 HD
BRANCH  20  23
HETATM   23  C   UNL     1     -46.794 -52.408  13.657  1.00  0.00     0.098 C 
HETATM   24  C   UNL     1     -46.905 -51.469  14.847  1.00  0.00     0.014 C 
ENDBRANCH  20  23
ENDBRANCH  15  19
ENDBRANCH   6  13
BRANCH   2  25
HETATM   25  C   UNL     1     -39.215 -46.047  13.409  1.00  0.00     0.172 C 
BRANCH  25  26
HETATM   26  C   UNL     1     -40.168 -45.206  12.545  1.00  0.00     0.102 C 
HETATM   27  C   UNL     1     -40.195 -45.553  11.039  1.00  0.00     0.153 C 
HETATM   28  O   UNL     1     -40.408 -44.311  10.323  1.00  0.00    -0.383 OA
HETATM   29  C   UNL     1     -41.276 -46.524  10.594  1.00  0.00     0.042 C 
HETATM   30  C   UNL     1     -40.437 -43.242  11.277  1.00  0.00     0.171 C 
HETATM   31  C   UNL     1     -39.694 -43.759  12.487  1.00  0.00     0.068 C 
BRANCH  26  32
HETATM   32  O   UNL     1     -41.480 -45.171  13.123  1.00  0.00    -0.385 OA
HETATM   33  H   UNL     1     -41.562 -45.879  13.789  1.00  0.00     0.210 HD
ENDBRANCH  26  32
ENDBRANCH  25  26
ENDBRANCH   2  25
TORSDOF 6
ENDMDL
