MODEL 1
REMARK VINA RESULT:      -5.9      0.000      0.000
REMARK  5 active torsions:
REMARK  status: ('A' for Active; 'I' for Inactive)
REMARK    1  A    between atoms: C_2  and  C_3 
REMARK    2  A    between atoms: C_2  and  N_15 
REMARK    3  A    between atoms: C_3  and  N_4 
REMARK       I    between atoms: N_4  and  C_5 
REMARK    4  A    between atoms: C_5  and  C_7 
REMARK    5  A    between atoms: C_7  and  N_8 
ROOT
HETATM    1  N   UNL     1     -42.581 -52.672  11.989  1.00  0.00    -0.358 N 
HETATM    2  C   UNL     1     -42.833 -53.677  12.895  1.00  0.00     0.235 C 
HETATM    3  O   UNL     1     -41.944 -54.178  13.586  1.00  0.00    -0.272 OA
HETATM    4  H   UNL     1     -43.336 -52.195  11.506  1.00  0.00     0.162 HD
ENDROOT
BRANCH   1   5
HETATM    5  C   UNL     1     -41.254 -52.102  11.846  1.00  0.00     0.158 C 
BRANCH   5   6
HETATM    6  C   UNL     1     -41.072 -50.813  12.684  1.00  0.00     0.236 C 
HETATM    7  C   UNL     1     -41.997 -49.730  12.109  1.00  0.00     0.044 C 
BRANCH   6   8
HETATM    8  N   UNL     1     -39.651 -50.434  12.822  1.00  0.00     0.094 N 
HETATM    9  C   UNL     1     -39.059 -49.844  11.617  1.00  0.00     0.273 C 
HETATM   10  C   UNL     1     -37.580 -50.212  11.653  1.00  0.00     0.032 C 
HETATM   11  C   UNL     1     -37.379 -50.899  12.991  1.00  0.00     0.032 C 
HETATM   12  C   UNL     1     -38.747 -51.479  13.298  1.00  0.00     0.273 C 
ENDBRANCH   6   8
ENDBRANCH   5   6
ENDBRANCH   1   5
BRANCH   2  13
HETATM   13  C   UNL     1     -44.287 -54.144  12.973  1.00  0.00     0.234 C 
BRANCH  13  14
HETATM   14  N   UNL     1     -45.143 -53.203  13.695  1.00  0.00    -0.316 N 
HETATM   15  C   UNL     1     -45.018 -53.080  15.071  1.00  0.00     0.095 A 
HETATM   16  C   UNL     1     -45.782 -52.228  15.766  1.00  0.00     0.017 A 
HETATM   17  C   UNL     1     -46.728 -51.387  15.079  1.00  0.00     0.007 A 
HETATM   18  C   UNL     1     -46.895 -51.498  13.755  1.00  0.00     0.074 A 
HETATM   19  C   UNL     1     -46.098 -52.486  12.977  1.00  0.00     0.247 A 
HETATM   20  O   UNL     1     -46.296 -52.600  11.768  1.00  0.00    -0.268 OA
ENDBRANCH  13  14
ENDBRANCH   2  13
TORSDOF 5
ENDMDL
MODEL 2
REMARK VINA RESULT:      -5.7      1.771      2.753
REMARK  5 active torsions:
REMARK  status: ('A' for Active; 'I' for Inactive)
REMARK    1  A    between atoms: C_2  and  C_3 
REMARK    2  A    between atoms: C_2  and  N_15 
REMARK    3  A    between atoms: C_3  and  N_4 
REMARK       I    between atoms: N_4  and  C_5 
REMARK    4  A    between atoms: C_5  and  C_7 
REMARK    5  A    between atoms: C_7  and  N_8 
ROOT
HETATM    1  N   UNL     1     -42.549 -54.126  13.022  1.00  0.00    -0.358 N 
HETATM    2  C   UNL     1     -43.117 -54.633  14.169  1.00  0.00     0.235 C 
HETATM    3  O   UNL     1     -42.454 -54.881  15.177  1.00  0.00    -0.272 OA
HETATM    4  H   UNL     1     -43.120 -53.826  12.238  1.00  0.00     0.162 HD
ENDROOT
BRANCH   1   5
HETATM    5  C   UNL     1     -41.137 -53.795  12.964  1.00  0.00     0.158 C 
BRANCH   5   6
HETATM    6  C   UNL     1     -40.885 -52.269  13.050  1.00  0.00     0.236 C 
HETATM    7  C   UNL     1     -39.659 -52.033  13.945  1.00  0.00     0.044 C 
BRANCH   6   8
HETATM    8  N   UNL     1     -42.104 -51.524  13.424  1.00  0.00     0.094 N 
HETATM    9  C   UNL     1     -42.403 -50.375  12.563  1.00  0.00     0.273 C 
HETATM   10  C   UNL     1     -43.130 -49.366  13.446  1.00  0.00     0.032 C 
HETATM   11  C   UNL     1     -43.331 -50.078  14.771  1.00  0.00     0.032 C 
HETATM   12  C   UNL     1     -42.187 -51.074  14.812  1.00  0.00     0.273 C 
ENDBRANCH   6   8
ENDBRANCH   5   6
ENDBRANCH   1   5
BRANCH   2  13
HETATM   13  C   UNL     1     -44.623 -54.887  14.101  1.00  0.00     0.234 C 
BRANCH  13  14
HETATM   14  N   UNL     1     -45.410 -53.676  14.335  1.00  0.00    -0.316 N 
HETATM   15  C   UNL     1     -45.847 -53.382  15.618  1.00  0.00     0.095 A 
HETATM   16  C   UNL     1     -46.567 -52.282  15.873  1.00  0.00     0.017 A 
HETATM   17  C   UNL     1     -46.866 -51.357  14.810  1.00  0.00     0.007 A 
HETATM   18  C   UNL     1     -46.482 -51.622  13.555  1.00  0.00     0.074 A 
HETATM   19  C   UNL     1     -45.737 -52.873  13.245  1.00  0.00     0.247 A 
HETATM   20  O   UNL     1     -45.430 -53.116  12.079  1.00  0.00    -0.268 OA
ENDBRANCH  13  14
ENDBRANCH   2  13
TORSDOF 5
ENDMDL
MODEL 3
REMARK VINA RESULT:      -5.5      1.883      2.945
REMARK  5 active torsions:
REMARK  status: ('A' for Active; 'I' for Inactive)
REMARK    1  A    between atoms: C_2  and  C_3 
REMARK    2  A    between atoms: C_2  and  N_15 
REMARK    3  A    between atoms: C_3  and  N_4 
REMARK       I    between atoms: N_4  and  C_5 
REMARK    4  A    between atoms: C_5  and  C_7 
REMARK    5  A    between atoms: C_7  and  N_8 
ROOT
HETATM    1  N   UNL     1     -42.567 -51.590  12.138  1.00  0.00    -0.358 N 
HETATM    2  C   UNL     1     -42.422 -52.865  12.636  1.00  0.00     0.235 C 
HETATM    3  O   UNL     1     -41.317 -53.361  12.862  1.00  0.00    -0.272 OA
HETATM    4  H   UNL     1     -43.481 -51.155  12.059  1.00  0.00     0.162 HD
ENDROOT
BRANCH   1   5
HETATM    5  C   UNL     1     -41.417 -50.735  11.911  1.00  0.00     0.158 C 
BRANCH   5   6
HETATM    6  C   UNL     1     -41.689 -49.263  12.309  1.00  0.00     0.236 C 
HETATM    7  C   UNL     1     -42.863 -49.240  13.299  1.00  0.00     0.044 C 
BRANCH   6   8
HETATM    8  N   UNL     1     -41.828 -48.384  11.129  1.00  0.00     0.094 N 
HETATM    9  C   UNL     1     -40.861 -47.283  11.073  1.00  0.00     0.273 C 
HETATM   10  C   UNL     1     -41.560 -46.149  10.332  1.00  0.00     0.032 C 
HETATM   11  C   UNL     1     -42.882 -46.735   9.873  1.00  0.00     0.032 C 
HETATM   12  C   UNL     1     -43.157 -47.824  10.894  1.00  0.00     0.273 C 
ENDBRANCH   6   8
ENDBRANCH   5   6
ENDBRANCH   1   5
BRANCH   2  13
HETATM   13  C   UNL     1     -43.724 -53.631  12.873  1.00  0.00     0.234 C 
BRANCH  13  14
HETATM   14  N   UNL     1     -44.716 -52.844  13.605  1.00  0.00    -0.316 N 
HETATM   15  C   UNL     1     -44.512 -52.563  14.948  1.00  0.00     0.095 A 
HETATM   16  C   UNL     1     -45.396 -51.844  15.651  1.00  0.00     0.017 A 
HETATM   17  C   UNL     1     -46.567 -51.311  15.002  1.00  0.00     0.007 A 
HETATM   18  C   UNL     1     -46.810 -51.585  13.714  1.00  0.00     0.074 A 
HETATM   19  C   UNL     1     -45.868 -52.437  12.936  1.00  0.00     0.247 A 
HETATM   20  O   UNL     1     -46.132 -52.709  11.766  1.00  0.00    -0.268 OA
ENDBRANCH  13  14
ENDBRANCH   2  13
TORSDOF 5
ENDMDL
MODEL 4
REMARK VINA RESULT:      -5.4      1.684      6.811
REMARK  5 active torsions:
REMARK  status: ('A' for Active; 'I' for Inactive)
REMARK    1  A    between atoms: C_2  and  C_3 
REMARK    2  A    between atoms: C_2  and  N_15 
REMARK    3  A    between atoms: C_3  and  N_4 
REMARK       I    between atoms: N_4  and  C_5 
REMARK    4  A    between atoms: C_5  and  C_7 
REMARK    5  A    between atoms: C_7  and  N_8 
ROOT
HETATM    1  N   UNL     1     -42.139 -52.804  14.219  1.00  0.00    -0.358 N 
HETATM    2  C   UNL     1     -42.166 -51.823  13.255  1.00  0.00     0.235 C 
HETATM    3  O   UNL     1     -42.962 -50.883  13.295  1.00  0.00    -0.272 OA
HETATM    4  H   UNL     1     -41.410 -53.511  14.233  1.00  0.00     0.162 HD
ENDROOT
BRANCH   1   5
HETATM    5  C   UNL     1     -43.012 -52.747  15.377  1.00  0.00     0.158 C 
BRANCH   5   6
HETATM    6  C   UNL     1     -44.166 -53.776  15.298  1.00  0.00     0.236 C 
HETATM    7  C   UNL     1     -43.669 -54.996  14.507  1.00  0.00     0.044 C 
BRANCH   6   8
HETATM    8  N   UNL     1     -45.423 -53.168  14.815  1.00  0.00     0.094 N 
HETATM    9  C   UNL     1     -45.619 -53.248  13.364  1.00  0.00     0.273 C 
HETATM   10  C   UNL     1     -46.448 -52.026  12.985  1.00  0.00     0.032 C 
HETATM   11  C   UNL     1     -46.804 -51.369  14.305  1.00  0.00     0.032 C 
HETATM   12  C   UNL     1     -45.672 -51.788  15.224  1.00  0.00     0.273 C 
ENDBRANCH   6   8
ENDBRANCH   5   6
ENDBRANCH   1   5
BRANCH   2  13
HETATM   13  C   UNL     1     -41.156 -51.987  12.119  1.00  0.00     0.234 C 
BRANCH  13  14
HETATM   14  N   UNL     1     -39.975 -51.140  12.288  1.00  0.00    -0.316 N 
HETATM   15  C   UNL     1     -39.909 -49.919  11.634  1.00  0.00     0.095 A 
HETATM   16  C   UNL     1     -38.846 -49.115  11.766  1.00  0.00     0.017 A 
HETATM   17  C   UNL     1     -37.761 -49.495  12.633  1.00  0.00     0.007 A 
HETATM   18  C   UNL     1     -37.779 -50.679  13.259  1.00  0.00     0.074 A 
HETATM   19  C   UNL     1     -38.924 -51.611  13.072  1.00  0.00     0.247 A 
HETATM   20  O   UNL     1     -38.901 -52.710  13.624  1.00  0.00    -0.268 OA
ENDBRANCH  13  14
ENDBRANCH   2  13
TORSDOF 5
ENDMDL
MODEL 5
REMARK VINA RESULT:      -5.4      3.025      5.124
REMARK  5 active torsions:
REMARK  status: ('A' for Active; 'I' for Inactive)
REMARK    1  A    between atoms: C_2  and  C_3 
REMARK    2  A    between atoms: C_2  and  N_15 
REMARK    3  A    between atoms: C_3  and  N_4 
REMARK       I    between atoms: N_4  and  C_5 
REMARK    4  A    between atoms: C_5  and  C_7 
REMARK    5  A    between atoms: C_7  and  N_8 
ROOT
HETATM    1  N   UNL     1     -42.357 -50.274  11.776  1.00  0.00    -0.358 N 
HETATM    2  C   UNL     1     -41.511 -51.058  12.527  1.00  0.00     0.235 C 
HETATM    3  O   UNL     1     -40.811 -50.594  13.429  1.00  0.00    -0.272 OA
HETATM    4  H   UNL     1     -43.007 -50.683  11.112  1.00  0.00     0.162 HD
ENDROOT
BRANCH   1   5
HETATM    5  C   UNL     1     -42.517 -48.859  12.055  1.00  0.00     0.158 C 
BRANCH   5   6
HETATM    6  C   UNL     1     -42.111 -47.971  10.852  1.00  0.00     0.236 C 
HETATM    7  C   UNL     1     -40.750 -47.331  11.164  1.00  0.00     0.044 C 
BRANCH   6   8
HETATM    8  N   UNL     1     -43.186 -47.035  10.463  1.00  0.00     0.094 N 
HETATM    9  C   UNL     1     -44.446 -47.681  10.081  1.00  0.00     0.273 C 
HETATM   10  C   UNL     1     -45.102 -46.753   9.064  1.00  0.00     0.032 C 
HETATM   11  C   UNL     1     -44.213 -45.525   9.023  1.00  0.00     0.032 C 
HETATM   12  C   UNL     1     -42.852 -46.062   9.426  1.00  0.00     0.273 C 
ENDBRANCH   6   8
ENDBRANCH   5   6
ENDBRANCH   1   5
BRANCH   2  13
HETATM   13  C   UNL     1     -41.483 -52.541  12.153  1.00  0.00     0.234 C 
BRANCH  13  14
HETATM   14  N   UNL     1     -42.440 -53.334  12.924  1.00  0.00    -0.316 N 
HETATM   15  C   UNL     1     -43.768 -53.382  12.525  1.00  0.00     0.095 A 
HETATM   16  C   UNL     1     -44.673 -54.098  13.204  1.00  0.00     0.017 A 
HETATM   17  C   UNL     1     -44.265 -54.873  14.347  1.00  0.00     0.007 A 
HETATM   18  C   UNL     1     -42.997 -54.830  14.776  1.00  0.00     0.074 A 
HETATM   19  C   UNL     1     -41.994 -53.987  14.070  1.00  0.00     0.247 A 
HETATM   20  O   UNL     1     -40.844 -53.931  14.505  1.00  0.00    -0.268 OA
ENDBRANCH  13  14
ENDBRANCH   2  13
TORSDOF 5
ENDMDL
MODEL 6
REMARK VINA RESULT:      -5.1      1.800      6.504
REMARK  5 active torsions:
REMARK  status: ('A' for Active; 'I' for Inactive)
REMARK    1  A    between atoms: C_2  and  C_3 
REMARK    2  A    between atoms: C_2  and  N_15 
REMARK    3  A    between atoms: C_3  and  N_4 
REMARK       I    between atoms: N_4  and  C_5 
REMARK    4  A    between atoms: C_5  and  C_7 
REMARK    5  A    between atoms: C_7  and  N_8 
ROOT
HETATM    1  N   UNL     1     -42.004 -52.422  13.958  1.00  0.00    -0.358 N 
HETATM    2  C   UNL     1     -41.227 -52.953  12.954  1.00  0.00     0.235 C 
HETATM    3  O   UNL     1     -40.813 -54.113  12.986  1.00  0.00    -0.272 OA
HETATM    4  H   UNL     1     -42.428 -51.504  13.869  1.00  0.00     0.162 HD
ENDROOT
BRANCH   1   5
HETATM    5  C   UNL     1     -42.431 -53.230  15.086  1.00  0.00     0.158 C 
BRANCH   5   6
HETATM    6  C   UNL     1     -43.937 -53.585  15.021  1.00  0.00     0.236 C 
HETATM    7  C   UNL     1     -44.076 -54.985  14.406  1.00  0.00     0.044 C 
BRANCH   6   8
HETATM    8  N   UNL     1     -44.733 -52.520  14.377  1.00  0.00     0.094 N 
HETATM    9  C   UNL     1     -45.633 -51.800  15.283  1.00  0.00     0.273 C 
HETATM   10  C   UNL     1     -46.815 -51.350  14.431  1.00  0.00     0.032 C 
HETATM   11  C   UNL     1     -46.443 -51.734  13.012  1.00  0.00     0.032 C 
HETATM   12  C   UNL     1     -45.504 -52.911  13.200  1.00  0.00     0.273 C 
ENDBRANCH   6   8
ENDBRANCH   5   6
ENDBRANCH   1   5
BRANCH   2  13
HETATM   13  C   UNL     1     -40.897 -52.000  11.804  1.00  0.00     0.234 C 
BRANCH  13  14
HETATM   14  N   UNL     1     -39.944 -50.960  12.192  1.00  0.00    -0.316 N 
HETATM   15  C   UNL     1     -38.814 -51.302  12.920  1.00  0.00     0.095 A 
HETATM   16  C   UNL     1     -37.919 -50.378  13.291  1.00  0.00     0.017 A 
HETATM   17  C   UNL     1     -38.099 -49.004  12.897  1.00  0.00     0.007 A 
HETATM   18  C   UNL     1     -39.191 -48.633  12.216  1.00  0.00     0.074 A 
HETATM   19  C   UNL     1     -40.227 -49.639  11.853  1.00  0.00     0.247 A 
HETATM   20  O   UNL     1     -41.241 -49.269  11.263  1.00  0.00    -0.268 OA
ENDBRANCH  13  14
ENDBRANCH   2  13
TORSDOF 5
ENDMDL
MODEL 7
REMARK VINA RESULT:      -5.1      2.600      6.293
REMARK  5 active torsions:
REMARK  status: ('A' for Active; 'I' for Inactive)
REMARK    1  A    between atoms: C_2  and  C_3 
REMARK    2  A    between atoms: C_2  and  N_15 
REMARK    3  A    between atoms: C_3  and  N_4 
REMARK       I    between atoms: N_4  and  C_5 
REMARK    4  A    between atoms: C_5  and  C_7 
REMARK    5  A    between atoms: C_7  and  N_8 
ROOT
HETATM    1  N   UNL     1     -41.816 -51.652  11.764  1.00  0.00    -0.358 N 
HETATM    2  C   UNL     1     -40.672 -50.918  11.976  1.00  0.00     0.235 C 
HETATM    3  O   UNL     1     -39.843 -51.225  12.835  1.00  0.00    -0.272 OA
HETATM    4  H   UNL     1     -42.435 -51.453  10.984  1.00  0.00     0.162 HD
ENDROOT
BRANCH   1   5
HETATM    5  C   UNL     1     -42.076 -52.873  12.505  1.00  0.00     0.158 C 
BRANCH   5   6
HETATM    6  C   UNL     1     -43.028 -52.643  13.705  1.00  0.00     0.236 C 
HETATM    7  C   UNL     1     -43.186 -53.973  14.456  1.00  0.00     0.044 C 
BRANCH   6   8
HETATM    8  N   UNL     1     -44.286 -51.983  13.299  1.00  0.00     0.094 N 
HETATM    9  C   UNL     1     -45.013 -51.333  14.395  1.00  0.00     0.273 C 
HETATM   10  C   UNL     1     -46.488 -51.397  14.015  1.00  0.00     0.032 C 
HETATM   11  C   UNL     1     -46.508 -51.977  12.614  1.00  0.00     0.032 C 
HETATM   12  C   UNL     1     -45.238 -52.807  12.558  1.00  0.00     0.273 C 
ENDBRANCH   6   8
ENDBRANCH   5   6
ENDBRANCH   1   5
BRANCH   2  13
HETATM   13  C   UNL     1     -40.507 -49.684  11.087  1.00  0.00     0.234 C 
BRANCH  13  14
HETATM   14  N   UNL     1     -41.216 -48.516  11.608  1.00  0.00    -0.316 N 
HETATM   15  C   UNL     1     -42.509 -48.252  11.181  1.00  0.00     0.095 A 
HETATM   16  C   UNL     1     -43.190 -47.194  11.637  1.00  0.00     0.017 A 
HETATM   17  C   UNL     1     -42.597 -46.327  12.621  1.00  0.00     0.007 A 
HETATM   18  C   UNL     1     -41.341 -46.536  13.037  1.00  0.00     0.074 A 
HETATM   19  C   UNL     1     -40.548 -47.671  12.491  1.00  0.00     0.247 A 
HETATM   20  O   UNL     1     -39.382 -47.820  12.857  1.00  0.00    -0.268 OA
ENDBRANCH  13  14
ENDBRANCH   2  13
TORSDOF 5
ENDMDL
MODEL 8
REMARK VINA RESULT:      -5.1      2.273      6.529
REMARK  5 active torsions:
REMARK  status: ('A' for Active; 'I' for Inactive)
REMARK    1  A    between atoms: C_2  and  C_3 
REMARK    2  A    between atoms: C_2  and  N_15 
REMARK    3  A    between atoms: C_3  and  N_4 
REMARK       I    between atoms: N_4  and  C_5 
REMARK    4  A    between atoms: C_5  and  C_7 
REMARK    5  A    between atoms: C_7  and  N_8 
ROOT
HETATM    1  N   UNL     1     -42.384 -54.427  14.398  1.00  0.00    -0.358 N 
HETATM    2  C   UNL     1     -41.320 -54.584  15.256  1.00  0.00     0.235 C 
HETATM    3  O   UNL     1     -41.470 -54.818  16.456  1.00  0.00    -0.272 OA
HETATM    4  H   UNL     1     -42.248 -54.343  13.396  1.00  0.00     0.162 HD
ENDROOT
BRANCH   1   5
HETATM    5  C   UNL     1     -43.751 -54.596  14.857  1.00  0.00     0.158 C 
BRANCH   5   6
HETATM    6  C   UNL     1     -44.783 -54.412  13.717  1.00  0.00     0.236 C 
HETATM    7  C   UNL     1     -44.039 -53.910  12.470  1.00  0.00     0.044 C 
BRANCH   6   8
HETATM    8  N   UNL     1     -45.942 -53.600  14.140  1.00  0.00     0.094 N 
HETATM    9  C   UNL     1     -46.095 -52.333  13.417  1.00  0.00     0.273 C 
HETATM   10  C   UNL     1     -46.762 -51.371  14.394  1.00  0.00     0.032 C 
HETATM   11  C   UNL     1     -47.086 -52.212  15.614  1.00  0.00     0.032 C 
HETATM   12  C   UNL     1     -46.044 -53.314  15.569  1.00  0.00     0.273 C 
ENDBRANCH   6   8
ENDBRANCH   5   6
ENDBRANCH   1   5
BRANCH   2  13
HETATM   13  C   UNL     1     -39.936 -54.427  14.623  1.00  0.00     0.234 C 
BRANCH  13  14
HETATM   14  N   UNL     1     -39.535 -53.027  14.484  1.00  0.00    -0.316 N 
HETATM   15  C   UNL     1     -38.958 -52.370  15.561  1.00  0.00     0.095 A 
HETATM   16  C   UNL     1     -38.576 -51.090  15.472  1.00  0.00     0.017 A 
HETATM   17  C   UNL     1     -38.725 -50.381  14.227  1.00  0.00     0.007 A 
HETATM   18  C   UNL     1     -39.302 -50.975  13.175  1.00  0.00     0.074 A 
HETATM   19  C   UNL     1     -39.790 -52.378  13.279  1.00  0.00     0.247 A 
HETATM   20  O   UNL     1     -40.354 -52.891  12.313  1.00  0.00    -0.268 OA
ENDBRANCH  13  14
ENDBRANCH   2  13
TORSDOF 5
ENDMDL
MODEL 9
REMARK VINA RESULT:      -5.0      1.757      6.944
REMARK  5 active torsions:
REMARK  status: ('A' for Active; 'I' for Inactive)
REMARK    1  A    between atoms: C_2  and  C_3 
REMARK    2  A    between atoms: C_2  and  N_15 
REMARK    3  A    between atoms: C_3  and  N_4 
REMARK       I    between atoms: N_4  and  C_5 
REMARK    4  A    between atoms: C_5  and  C_7 
REMARK    5  A    between atoms: C_7  and  N_8 
ROOT
HETATM    1  N   UNL     1     -43.404 -51.111  12.650  1.00  0.00    -0.358 N 
HETATM    2  C   UNL     1     -42.266 -51.762  13.069  1.00  0.00     0.235 C 
HETATM    3  O   UNL     1     -42.134 -52.182  14.220  1.00  0.00    -0.272 OA
HETATM    4  H   UNL     1     -43.544 -50.867  11.675  1.00  0.00     0.162 HD
ENDROOT
BRANCH   1   5
HETATM    5  C   UNL     1     -44.543 -50.943  13.534  1.00  0.00     0.158 C 
BRANCH   5   6
HETATM    6  C   UNL     1     -45.588 -52.075  13.371  1.00  0.00     0.236 C 
HETATM    7  C   UNL     1     -46.577 -51.663  12.271  1.00  0.00     0.044 C 
BRANCH   6   8
HETATM    8  N   UNL     1     -46.192 -52.465  14.662  1.00  0.00     0.094 N 
HETATM    9  C   UNL     1     -47.093 -51.462  15.239  1.00  0.00     0.273 C 
HETATM   10  C   UNL     1     -47.006 -51.641  16.751  1.00  0.00     0.032 C 
HETATM   11  C   UNL     1     -46.135 -52.866  16.952  1.00  0.00     0.032 C 
HETATM   12  C   UNL     1     -45.264 -52.886  15.709  1.00  0.00     0.273 C 
ENDBRANCH   6   8
ENDBRANCH   5   6
ENDBRANCH   1   5
BRANCH   2  13
HETATM   13  C   UNL     1     -41.167 -51.910  12.016  1.00  0.00     0.234 C 
BRANCH  13  14
HETATM   14  N   UNL     1     -40.056 -50.981  12.226  1.00  0.00    -0.316 N 
HETATM   15  C   UNL     1     -40.107 -49.714  11.664  1.00  0.00     0.095 A 
HETATM   16  C   UNL     1     -39.111 -48.835  11.836  1.00  0.00     0.017 A 
HETATM   17  C   UNL     1     -37.978 -49.186  12.652  1.00  0.00     0.007 A 
HETATM   18  C   UNL     1     -37.882 -50.409  13.189  1.00  0.00     0.074 A 
HETATM   19  C   UNL     1     -38.951 -51.418  12.953  1.00  0.00     0.247 A 
HETATM   20  O   UNL     1     -38.824 -52.548  13.422  1.00  0.00    -0.268 OA
ENDBRANCH  13  14
ENDBRANCH   2  13
TORSDOF 5
ENDMDL
