MODEL 1
REMARK VINA RESULT:      -6.7      0.000      0.000
REMARK  5 active torsions:
REMARK  status: ('A' for Active; 'I' for Inactive)
REMARK    1  A    between atoms: C_2  and  C_3 
REMARK       I    between atoms: C_3  and  N_5 
REMARK    2  A    between atoms: C_10  and  C_11 
REMARK       I    between atoms: C_11  and  N_13 
REMARK    3  A    between atoms: N_13  and  C_14 
REMARK    4  A    between atoms: C_14  and  C_15 
REMARK    5  A    between atoms: C_15  and  N_16 
ROOT
HETATM    1  C   UNL     1     -41.688 -51.051  12.752  1.00  0.00     0.240 C 
HETATM    2  O   UNL     1     -40.994 -50.578  13.653  1.00  0.00    -0.271 OA
HETATM    3  N   UNL     1     -41.712 -50.497  11.485  1.00  0.00    -0.358 N 
HETATM    4  H   UNL     1     -42.503 -50.717  10.894  1.00  0.00     0.162 HD
ENDROOT
BRANCH   1   5
HETATM    5  C   UNL     1     -42.467 -52.392  12.900  1.00  0.00     0.179 C 
HETATM    6  N   UNL     1     -43.950 -52.459  12.923  1.00  0.00    -0.339 N 
HETATM    7  C   UNL     1     -44.728 -51.319  13.129  1.00  0.00     0.220 C 
HETATM    8  C   UNL     1     -44.484 -53.827  13.015  1.00  0.00     0.127 C 
HETATM    9  O   UNL     1     -44.254 -50.186  13.083  1.00  0.00    -0.273 OA
HETATM   10  C   UNL     1     -43.940 -54.549  14.245  1.00  0.00     0.020 C 
HETATM   11  C   UNL     1     -42.417 -54.564  14.217  1.00  0.00     0.004 C 
HETATM   12  C   UNL     1     -41.880 -53.142  14.117  1.00  0.00     0.035 C 
BRANCH   7  13
HETATM   13  C   UNL     1     -46.215 -51.545  13.384  1.00  0.00     0.098 C 
HETATM   14  C   UNL     1     -46.623 -51.382  14.838  1.00  0.00     0.014 C 
ENDBRANCH   7  13
ENDBRANCH   1   5
BRANCH   3  15
HETATM   15  C   UNL     1     -40.928 -49.302  11.196  1.00  0.00     0.144 C 
BRANCH  15  16
HETATM   16  C   UNL     1     -41.715 -48.013  11.428  1.00  0.00     0.167 C 
BRANCH  16  17
HETATM   17  N   UNL     1     -42.742 -47.820  10.420  1.00  0.00    -0.302 N 
HETATM   18  C   UNL     1     -44.056 -47.524  10.642  1.00  0.00     0.118 A 
HETATM   19  C   UNL     1     -44.656 -47.457   9.402  1.00  0.00    -0.028 A 
HETATM   20  C   UNL     1     -46.076 -47.189   9.083  1.00  0.00     0.051 C 
HETATM   21  C   UNL     1     -43.598 -47.707   8.498  1.00  0.00     0.115 A 
HETATM   22  N   UNL     1     -42.434 -47.929   9.113  1.00  0.00    -0.310 N 
ATOM     23  HN  UNL     1     -41.527 -48.132   8.694  1.00  0.00     0.186 HD
ENDBRANCH  16  17
ENDBRANCH  15  16
ENDBRANCH   3  15
TORSDOF 5
ENDMDL
MODEL 2
REMARK VINA RESULT:      -6.1      1.837      2.769
REMARK  5 active torsions:
REMARK  status: ('A' for Active; 'I' for Inactive)
REMARK    1  A    between atoms: C_2  and  C_3 
REMARK       I    between atoms: C_3  and  N_5 
REMARK    2  A    between atoms: C_10  and  C_11 
REMARK       I    between atoms: C_11  and  N_13 
REMARK    3  A    between atoms: N_13  and  C_14 
REMARK    4  A    between atoms: C_14  and  C_15 
REMARK    5  A    between atoms: C_15  and  N_16 
ROOT
HETATM    1  C   UNL     1     -41.816 -51.463  13.021  1.00  0.00     0.240 C 
HETATM    2  O   UNL     1     -41.116 -51.039  13.942  1.00  0.00    -0.271 OA
HETATM    3  N   UNL     1     -41.753 -50.922  11.751  1.00  0.00    -0.358 N 
HETATM    4  H   UNL     1     -42.538 -51.083  11.134  1.00  0.00     0.162 HD
ENDROOT
BRANCH   1   5
HETATM    5  C   UNL     1     -42.706 -52.735  13.152  1.00  0.00     0.179 C 
HETATM    6  N   UNL     1     -44.188 -52.685  13.097  1.00  0.00    -0.339 N 
HETATM    7  C   UNL     1     -44.883 -51.483  13.241  1.00  0.00     0.220 C 
HETATM    8  C   UNL     1     -44.834 -54.004  13.186  1.00  0.00     0.127 C 
HETATM    9  O   UNL     1     -44.319 -50.392  13.199  1.00  0.00    -0.273 OA
HETATM   10  C   UNL     1     -44.414 -54.739  14.456  1.00  0.00     0.020 C 
HETATM   11  C   UNL     1     -42.897 -54.875  14.509  1.00  0.00     0.004 C 
HETATM   12  C   UNL     1     -42.244 -53.501  14.412  1.00  0.00     0.035 C 
BRANCH   7  13
HETATM   13  C   UNL     1     -46.394 -51.586  13.420  1.00  0.00     0.098 C 
HETATM   14  C   UNL     1     -46.856 -51.445  14.861  1.00  0.00     0.014 C 
ENDBRANCH   7  13
ENDBRANCH   1   5
BRANCH   3  15
HETATM   15  C   UNL     1     -40.864 -49.797  11.480  1.00  0.00     0.144 C 
BRANCH  15  16
HETATM   16  C   UNL     1     -41.615 -48.564  10.981  1.00  0.00     0.167 C 
BRANCH  16  17
HETATM   17  N   UNL     1     -40.878 -47.341  11.241  1.00  0.00    -0.302 N 
HETATM   18  C   UNL     1     -40.389 -46.925  12.445  1.00  0.00     0.118 A 
HETATM   19  C   UNL     1     -39.784 -45.706  12.222  1.00  0.00    -0.028 A 
HETATM   20  C   UNL     1     -39.119 -44.818  13.202  1.00  0.00     0.051 C 
HETATM   21  C   UNL     1     -39.949 -45.493  10.834  1.00  0.00     0.115 A 
HETATM   22  N   UNL     1     -40.614 -46.485  10.235  1.00  0.00    -0.310 N 
ATOM     23  HN  UNL     1     -40.862 -46.573   9.250  1.00  0.00     0.186 HD
ENDBRANCH  16  17
ENDBRANCH  15  16
ENDBRANCH   3  15
TORSDOF 5
ENDMDL
MODEL 3
REMARK VINA RESULT:      -5.9      1.383      3.065
REMARK  5 active torsions:
REMARK  status: ('A' for Active; 'I' for Inactive)
REMARK    1  A    between atoms: C_2  and  C_3 
REMARK       I    between atoms: C_3  and  N_5 
REMARK    2  A    between atoms: C_10  and  C_11 
REMARK       I    between atoms: C_11  and  N_13 
REMARK    3  A    between atoms: N_13  and  C_14 
REMARK    4  A    between atoms: C_14  and  C_15 
REMARK    5  A    between atoms: C_15  and  N_16 
ROOT
HETATM    1  C   UNL     1     -41.656 -50.336  13.035  1.00  0.00     0.240 C 
HETATM    2  O   UNL     1     -40.938 -49.556  13.661  1.00  0.00    -0.271 OA
HETATM    3  N   UNL     1     -41.772 -50.274  11.659  1.00  0.00    -0.358 N 
HETATM    4  H   UNL     1     -42.581 -50.709  11.238  1.00  0.00     0.162 HD
ENDROOT
BRANCH   1   5
HETATM    5  C   UNL     1     -42.364 -51.554  13.701  1.00  0.00     0.179 C 
HETATM    6  N   UNL     1     -41.655 -52.820  14.013  1.00  0.00    -0.339 N 
HETATM    7  C   UNL     1     -40.411 -53.116  13.454  1.00  0.00     0.220 C 
HETATM    8  C   UNL     1     -42.494 -53.822  14.690  1.00  0.00     0.127 C 
HETATM    9  O   UNL     1     -39.742 -52.272  12.862  1.00  0.00    -0.273 OA
HETATM   10  C   UNL     1     -43.738 -54.145  13.867  1.00  0.00     0.020 C 
HETATM   11  C   UNL     1     -44.532 -52.875  13.590  1.00  0.00     0.004 C 
HETATM   12  C   UNL     1     -43.649 -51.846  12.894  1.00  0.00     0.035 C 
BRANCH   7  13
HETATM   13  C   UNL     1     -39.900 -54.541  13.644  1.00  0.00     0.098 C 
HETATM   14  C   UNL     1     -38.951 -54.705  14.819  1.00  0.00     0.014 C 
ENDBRANCH   7  13
ENDBRANCH   1   5
BRANCH   3  15
HETATM   15  C   UNL     1     -41.059 -49.243  10.912  1.00  0.00     0.144 C 
BRANCH  15  16
HETATM   16  C   UNL     1     -41.735 -47.876  11.008  1.00  0.00     0.167 C 
BRANCH  16  17
HETATM   17  N   UNL     1     -42.851 -47.760  10.087  1.00  0.00    -0.302 N 
HETATM   18  C   UNL     1     -44.151 -47.503  10.411  1.00  0.00     0.118 A 
HETATM   19  C   UNL     1     -44.857 -47.507   9.226  1.00  0.00    -0.028 A 
HETATM   20  C   UNL     1     -46.309 -47.303   9.022  1.00  0.00     0.051 C 
HETATM   21  C   UNL     1     -43.872 -47.756   8.243  1.00  0.00     0.115 A 
HETATM   22  N   UNL     1     -42.652 -47.911   8.763  1.00  0.00    -0.310 N 
ATOM     23  HN  UNL     1     -41.776 -48.098   8.275  1.00  0.00     0.186 HD
ENDBRANCH  16  17
ENDBRANCH  15  16
ENDBRANCH   3  15
TORSDOF 5
ENDMDL
MODEL 4
REMARK VINA RESULT:      -5.8      2.007      4.306
REMARK  5 active torsions:
REMARK  status: ('A' for Active; 'I' for Inactive)
REMARK    1  A    between atoms: C_2  and  C_3 
REMARK       I    between atoms: C_3  and  N_5 
REMARK    2  A    between atoms: C_10  and  C_11 
REMARK       I    between atoms: C_11  and  N_13 
REMARK    3  A    between atoms: N_13  and  C_14 
REMARK    4  A    between atoms: C_14  and  C_15 
REMARK    5  A    between atoms: C_15  and  N_16 
ROOT
HETATM    1  C   UNL     1     -43.474 -49.808  13.577  1.00  0.00     0.240 C 
HETATM    2  O   UNL     1     -42.833 -49.149  14.397  1.00  0.00    -0.271 OA
HETATM    3  N   UNL     1     -43.523 -49.457  12.241  1.00  0.00    -0.358 N 
HETATM    4  H   UNL     1     -44.284 -49.828  11.688  1.00  0.00     0.162 HD
ENDROOT
BRANCH   1   5
HETATM    5  C   UNL     1     -44.143 -51.170  13.926  1.00  0.00     0.179 C 
HETATM    6  N   UNL     1     -43.407 -52.459  13.886  1.00  0.00    -0.339 N 
HETATM    7  C   UNL     1     -42.175 -52.575  13.241  1.00  0.00     0.220 C 
HETATM    8  C   UNL     1     -44.211 -53.618  14.303  1.00  0.00     0.127 C 
HETATM    9  O   UNL     1     -41.536 -51.593  12.868  1.00  0.00    -0.273 OA
HETATM   10  C   UNL     1     -45.473 -53.748  13.454  1.00  0.00     0.020 C 
HETATM   11  C   UNL     1     -46.293 -52.467  13.532  1.00  0.00     0.004 C 
HETATM   12  C   UNL     1     -45.447 -51.275  13.101  1.00  0.00     0.035 C 
BRANCH   7  13
HETATM   13  C   UNL     1     -41.637 -53.989  13.047  1.00  0.00     0.098 C 
HETATM   14  C   UNL     1     -40.215 -54.182  13.545  1.00  0.00     0.014 C 
ENDBRANCH   7  13
ENDBRANCH   1   5
BRANCH   3  15
HETATM   15  C   UNL     1     -42.834 -48.259  11.775  1.00  0.00     0.144 C 
BRANCH  15  16
HETATM   16  C   UNL     1     -41.753 -48.568  10.741  1.00  0.00     0.167 C 
BRANCH  16  17
HETATM   17  N   UNL     1     -40.484 -48.891  11.367  1.00  0.00    -0.302 N 
HETATM   18  C   UNL     1     -39.936 -48.281  12.459  1.00  0.00     0.118 A 
HETATM   19  C   UNL     1     -38.722 -48.896  12.682  1.00  0.00    -0.028 A 
HETATM   20  C   UNL     1     -37.719 -48.596  13.728  1.00  0.00     0.051 C 
HETATM   21  C   UNL     1     -38.650 -49.883  11.672  1.00  0.00     0.115 A 
HETATM   22  N   UNL     1     -39.718 -49.882  10.872  1.00  0.00    -0.310 N 
ATOM     23  HN  UNL     1     -39.911 -50.488  10.075  1.00  0.00     0.186 HD
ENDBRANCH  16  17
ENDBRANCH  15  16
ENDBRANCH   3  15
TORSDOF 5
ENDMDL
MODEL 5
REMARK VINA RESULT:      -5.5      2.068      5.550
REMARK  5 active torsions:
REMARK  status: ('A' for Active; 'I' for Inactive)
REMARK    1  A    between atoms: C_2  and  C_3 
REMARK       I    between atoms: C_3  and  N_5 
REMARK    2  A    between atoms: C_10  and  C_11 
REMARK       I    between atoms: C_11  and  N_13 
REMARK    3  A    between atoms: N_13  and  C_14 
REMARK    4  A    between atoms: C_14  and  C_15 
REMARK    5  A    between atoms: C_15  and  N_16 
ROOT
HETATM    1  C   UNL     1     -40.927 -51.670  14.360  1.00  0.00     0.240 C 
HETATM    2  O   UNL     1     -41.589 -51.419  15.368  1.00  0.00    -0.271 OA
HETATM    3  N   UNL     1     -41.152 -52.809  13.608  1.00  0.00    -0.358 N 
HETATM    4  H   UNL     1     -40.408 -53.120  12.999  1.00  0.00     0.162 HD
ENDROOT
BRANCH   1   5
HETATM    5  C   UNL     1     -39.904 -50.668  13.749  1.00  0.00     0.179 C 
HETATM    6  N   UNL     1     -40.295 -49.615  12.779  1.00  0.00    -0.339 N 
HETATM    7  C   UNL     1     -41.524 -49.652  12.119  1.00  0.00     0.220 C 
HETATM    8  C   UNL     1     -39.185 -48.741  12.367  1.00  0.00     0.127 C 
HETATM    9  O   UNL     1     -42.426 -50.415  12.457  1.00  0.00    -0.273 OA
HETATM   10  C   UNL     1     -38.036 -49.552  11.774  1.00  0.00     0.020 C 
HETATM   11  C   UNL     1     -37.558 -50.597  12.774  1.00  0.00     0.004 C 
HETATM   12  C   UNL     1     -38.718 -51.491  13.194  1.00  0.00     0.035 C 
BRANCH   7  13
HETATM   13  C   UNL     1     -41.711 -48.668  10.969  1.00  0.00     0.098 C 
HETATM   14  C   UNL     1     -42.998 -47.864  11.047  1.00  0.00     0.014 C 
ENDBRANCH   7  13
ENDBRANCH   1   5
BRANCH   3  15
HETATM   15  C   UNL     1     -42.171 -53.767  14.022  1.00  0.00     0.144 C 
BRANCH  15  16
HETATM   16  C   UNL     1     -43.307 -53.890  13.008  1.00  0.00     0.167 C 
BRANCH  16  17
HETATM   17  N   UNL     1     -44.404 -52.992  13.316  1.00  0.00    -0.302 N 
HETATM   18  C   UNL     1     -45.009 -52.832  14.529  1.00  0.00     0.118 A 
HETATM   19  C   UNL     1     -46.009 -51.899  14.348  1.00  0.00    -0.028 A 
HETATM   20  C   UNL     1     -46.977 -51.385  15.342  1.00  0.00     0.051 C 
HETATM   21  C   UNL     1     -45.900 -51.546  12.983  1.00  0.00     0.115 A 
HETATM   22  N   UNL     1     -44.926 -52.208  12.354  1.00  0.00    -0.310 N 
ATOM     23  HN  UNL     1     -44.644 -52.138  11.376  1.00  0.00     0.186 HD
ENDBRANCH  16  17
ENDBRANCH  15  16
ENDBRANCH   3  15
TORSDOF 5
ENDMDL
MODEL 6
REMARK VINA RESULT:      -5.4      2.782      3.219
REMARK  5 active torsions:
REMARK  status: ('A' for Active; 'I' for Inactive)
REMARK    1  A    between atoms: C_2  and  C_3 
REMARK       I    between atoms: C_3  and  N_5 
REMARK    2  A    between atoms: C_10  and  C_11 
REMARK       I    between atoms: C_11  and  N_13 
REMARK    3  A    between atoms: N_13  and  C_14 
REMARK    4  A    between atoms: C_14  and  C_15 
REMARK    5  A    between atoms: C_15  and  N_16 
ROOT
HETATM    1  C   UNL     1     -40.396 -50.579  11.820  1.00  0.00     0.240 C 
HETATM    2  O   UNL     1     -40.475 -49.901  10.795  1.00  0.00    -0.271 OA
HETATM    3  N   UNL     1     -39.647 -50.168  12.908  1.00  0.00    -0.358 N 
HETATM    4  H   UNL     1     -39.367 -50.873  13.576  1.00  0.00     0.162 HD
ENDROOT
BRANCH   1   5
HETATM    5  C   UNL     1     -41.249 -51.861  12.055  1.00  0.00     0.179 C 
HETATM    6  N   UNL     1     -42.652 -51.814  12.535  1.00  0.00    -0.339 N 
HETATM    7  C   UNL     1     -43.191 -50.657  13.101  1.00  0.00     0.220 C 
HETATM    8  C   UNL     1     -43.293 -53.135  12.637  1.00  0.00     0.127 C 
HETATM    9  O   UNL     1     -42.621 -49.570  13.035  1.00  0.00    -0.273 OA
HETATM   10  C   UNL     1     -42.494 -54.065  13.546  1.00  0.00     0.020 C 
HETATM   11  C   UNL     1     -41.064 -54.197  13.039  1.00  0.00     0.004 C 
HETATM   12  C   UNL     1     -40.416 -52.822  12.934  1.00  0.00     0.035 C 
BRANCH   7  13
HETATM   13  C   UNL     1     -44.547 -50.799  13.783  1.00  0.00     0.098 C 
HETATM   14  C   UNL     1     -44.497 -50.653  15.295  1.00  0.00     0.014 C 
ENDBRANCH   7  13
ENDBRANCH   1   5
BRANCH   3  15
HETATM   15  C   UNL     1     -38.896 -48.919  12.846  1.00  0.00     0.144 C 
BRANCH  15  16
HETATM   16  C   UNL     1     -39.673 -47.737  13.423  1.00  0.00     0.167 C 
BRANCH  16  17
HETATM   17  N   UNL     1     -39.861 -46.684  12.442  1.00  0.00    -0.302 N 
HETATM   18  C   UNL     1     -40.049 -45.357  12.698  1.00  0.00     0.118 A 
HETATM   19  C   UNL     1     -40.204 -44.741  11.474  1.00  0.00    -0.028 A 
HETATM   20  C   UNL     1     -40.460 -43.311  11.191  1.00  0.00     0.051 C 
HETATM   21  C   UNL     1     -40.066 -45.796  10.542  1.00  0.00     0.115 A 
HETATM   22  N   UNL     1     -39.858 -46.978  11.128  1.00  0.00    -0.310 N 
ATOM     23  HN  UNL     1     -39.727 -47.887  10.685  1.00  0.00     0.186 HD
ENDBRANCH  16  17
ENDBRANCH  15  16
ENDBRANCH   3  15
TORSDOF 5
ENDMDL
MODEL 7
REMARK VINA RESULT:      -5.4      2.523      4.368
REMARK  5 active torsions:
REMARK  status: ('A' for Active; 'I' for Inactive)
REMARK    1  A    between atoms: C_2  and  C_3 
REMARK       I    between atoms: C_3  and  N_5 
REMARK    2  A    between atoms: C_10  and  C_11 
REMARK       I    between atoms: C_11  and  N_13 
REMARK    3  A    between atoms: N_13  and  C_14 
REMARK    4  A    between atoms: C_14  and  C_15 
REMARK    5  A    between atoms: C_15  and  N_16 
ROOT
HETATM    1  C   UNL     1     -42.585 -49.826  13.161  1.00  0.00     0.240 C 
HETATM    2  O   UNL     1     -42.896 -48.990  14.010  1.00  0.00    -0.271 OA
HETATM    3  N   UNL     1     -42.602 -49.532  11.810  1.00  0.00    -0.358 N 
HETATM    4  H   UNL     1     -42.644 -50.308  11.163  1.00  0.00     0.162 HD
ENDROOT
BRANCH   1   5
HETATM    5  C   UNL     1     -41.993 -51.220  13.524  1.00  0.00     0.179 C 
HETATM    6  N   UNL     1     -40.536 -51.455  13.684  1.00  0.00    -0.339 N 
HETATM    7  C   UNL     1     -39.594 -50.537  13.218  1.00  0.00     0.220 C 
HETATM    8  C   UNL     1     -40.193 -52.830  14.081  1.00  0.00     0.127 C 
HETATM    9  O   UNL     1     -39.907 -49.404  12.857  1.00  0.00    -0.273 OA
HETATM   10  C   UNL     1     -40.748 -53.845  13.086  1.00  0.00     0.020 C 
HETATM   11  C   UNL     1     -42.257 -53.682  12.953  1.00  0.00     0.004 C 
HETATM   12  C   UNL     1     -42.596 -52.254  12.545  1.00  0.00     0.035 C 
BRANCH   7  13
HETATM   13  C   UNL     1     -38.140 -50.996  13.209  1.00  0.00     0.098 C 
HETATM   14  C   UNL     1     -37.400 -50.679  11.919  1.00  0.00     0.014 C 
ENDBRANCH   7  13
ENDBRANCH   1   5
BRANCH   3  15
HETATM   15  C   UNL     1     -43.030 -48.213  11.355  1.00  0.00     0.144 C 
BRANCH  15  16
HETATM   16  C   UNL     1     -42.235 -47.723  10.147  1.00  0.00     0.167 C 
BRANCH  16  17
HETATM   17  N   UNL     1     -41.463 -46.534  10.455  1.00  0.00    -0.302 N 
HETATM   18  C   UNL     1     -41.956 -45.289  10.721  1.00  0.00     0.118 A 
HETATM   19  C   UNL     1     -40.864 -44.473  10.933  1.00  0.00    -0.028 A 
HETATM   20  C   UNL     1     -40.845 -43.024  11.233  1.00  0.00     0.051 C 
HETATM   21  C   UNL     1     -39.757 -45.342  10.792  1.00  0.00     0.115 A 
HETATM   22  N   UNL     1     -40.118 -46.594  10.502  1.00  0.00    -0.310 N 
ATOM     23  HN  UNL     1     -39.518 -47.405  10.351  1.00  0.00     0.186 HD
ENDBRANCH  16  17
ENDBRANCH  15  16
ENDBRANCH   3  15
TORSDOF 5
ENDMDL
MODEL 8
REMARK VINA RESULT:      -5.4      2.029      6.523
REMARK  5 active torsions:
REMARK  status: ('A' for Active; 'I' for Inactive)
REMARK    1  A    between atoms: C_2  and  C_3 
REMARK       I    between atoms: C_3  and  N_5 
REMARK    2  A    between atoms: C_10  and  C_11 
REMARK       I    between atoms: C_11  and  N_13 
REMARK    3  A    between atoms: N_13  and  C_14 
REMARK    4  A    between atoms: C_14  and  C_15 
REMARK    5  A    between atoms: C_15  and  N_16 
ROOT
HETATM    1  C   UNL     1     -41.218 -49.503  11.353  1.00  0.00     0.240 C 
HETATM    2  O   UNL     1     -40.154 -50.110  11.228  1.00  0.00    -0.271 OA
HETATM    3  N   UNL     1     -42.215 -49.950  12.201  1.00  0.00    -0.358 N 
HETATM    4  H   UNL     1     -43.153 -49.610  12.040  1.00  0.00     0.162 HD
ENDROOT
BRANCH   1   5
HETATM    5  C   UNL     1     -41.479 -48.109  10.708  1.00  0.00     0.179 C 
HETATM    6  N   UNL     1     -40.813 -46.870  11.183  1.00  0.00    -0.339 N 
HETATM    7  C   UNL     1     -40.165 -46.818  12.418  1.00  0.00     0.220 C 
HETATM    8  C   UNL     1     -41.157 -45.672  10.401  1.00  0.00     0.127 C 
HETATM    9  O   UNL     1     -39.918 -47.830  13.071  1.00  0.00    -0.273 OA
HETATM   10  C   UNL     1     -42.666 -45.442  10.381  1.00  0.00     0.020 C 
HETATM   11  C   UNL     1     -43.378 -46.669   9.828  1.00  0.00     0.004 C 
HETATM   12  C   UNL     1     -43.009 -47.902  10.644  1.00  0.00     0.035 C 
BRANCH   7  13
HETATM   13  C   UNL     1     -39.741 -45.437  12.908  1.00  0.00     0.098 C 
HETATM   14  C   UNL     1     -39.206 -45.424  14.330  1.00  0.00     0.014 C 
ENDBRANCH   7  13
ENDBRANCH   1   5
BRANCH   3  15
HETATM   15  C   UNL     1     -42.035 -51.189  12.950  1.00  0.00     0.144 C 
BRANCH  15  16
HETATM   16  C   UNL     1     -42.962 -52.305  12.470  1.00  0.00     0.167 C 
BRANCH  16  17
HETATM   17  N   UNL     1     -44.323 -52.113  12.938  1.00  0.00    -0.302 N 
HETATM   18  C   UNL     1     -44.707 -51.719  14.187  1.00  0.00     0.118 A 
HETATM   19  C   UNL     1     -46.086 -51.695  14.182  1.00  0.00    -0.028 A 
HETATM   20  C   UNL     1     -47.003 -51.358  15.294  1.00  0.00     0.051 C 
HETATM   21  C   UNL     1     -46.429 -52.072  12.863  1.00  0.00     0.115 A 
HETATM   22  N   UNL     1     -45.360 -52.327  12.105  1.00  0.00    -0.310 N 
ATOM     23  HN  UNL     1     -45.333 -52.615  11.127  1.00  0.00     0.186 HD
ENDBRANCH  16  17
ENDBRANCH  15  16
ENDBRANCH   3  15
TORSDOF 5
ENDMDL
MODEL 9
REMARK VINA RESULT:      -5.2      3.449      4.654
REMARK  5 active torsions:
REMARK  status: ('A' for Active; 'I' for Inactive)
REMARK    1  A    between atoms: C_2  and  C_3 
REMARK       I    between atoms: C_3  and  N_5 
REMARK    2  A    between atoms: C_10  and  C_11 
REMARK       I    between atoms: C_11  and  N_13 
REMARK    3  A    between atoms: N_13  and  C_14 
REMARK    4  A    between atoms: C_14  and  C_15 
REMARK    5  A    between atoms: C_15  and  N_16 
ROOT
HETATM    1  C   UNL     1     -38.226 -51.069  13.058  1.00  0.00     0.240 C 
HETATM    2  O   UNL     1     -37.413 -51.340  12.173  1.00  0.00    -0.271 OA
HETATM    3  N   UNL     1     -39.052 -49.963  12.974  1.00  0.00    -0.358 N 
HETATM    4  H   UNL     1     -39.461 -49.619  13.832  1.00  0.00     0.162 HD
ENDROOT
BRANCH   1   5
HETATM    5  C   UNL     1     -38.516 -52.018  14.258  1.00  0.00     0.179 C 
HETATM    6  N   UNL     1     -39.491 -53.135  14.179  1.00  0.00    -0.339 N 
HETATM    7  C   UNL     1     -40.427 -53.214  13.147  1.00  0.00     0.220 C 
HETATM    8  C   UNL     1     -39.574 -53.942  15.407  1.00  0.00     0.127 C 
HETATM    9  O   UNL     1     -40.359 -52.504  12.146  1.00  0.00    -0.273 OA
HETATM   10  C   UNL     1     -39.918 -53.074  16.614  1.00  0.00     0.020 C 
HETATM   11  C   UNL     1     -38.893 -51.958  16.771  1.00  0.00     0.004 C 
HETATM   12  C   UNL     1     -38.815 -51.135  15.491  1.00  0.00     0.035 C 
BRANCH   7  13
HETATM   13  C   UNL     1     -41.531 -54.254  13.306  1.00  0.00     0.098 C 
HETATM   14  C   UNL     1     -42.936 -53.676  13.263  1.00  0.00     0.014 C 
ENDBRANCH   7  13
ENDBRANCH   1   5
BRANCH   3  15
HETATM   15  C   UNL     1     -38.950 -49.061  11.831  1.00  0.00     0.144 C 
BRANCH  15  16
HETATM   16  C   UNL     1     -40.241 -48.285  11.580  1.00  0.00     0.167 C 
BRANCH  16  17
HETATM   17  N   UNL     1     -40.010 -46.853  11.535  1.00  0.00    -0.302 N 
HETATM   18  C   UNL     1     -39.819 -46.025  12.603  1.00  0.00     0.118 A 
HETATM   19  C   UNL     1     -39.663 -44.754  12.089  1.00  0.00    -0.028 A 
HETATM   20  C   UNL     1     -39.452 -43.487  12.823  1.00  0.00     0.051 C 
HETATM   21  C   UNL     1     -39.755 -44.939  10.690  1.00  0.00     0.115 A 
HETATM   22  N   UNL     1     -39.966 -46.213  10.351  1.00  0.00    -0.310 N 
ATOM     23  HN  UNL     1     -40.069 -46.608   9.416  1.00  0.00     0.186 HD
ENDBRANCH  16  17
ENDBRANCH  15  16
ENDBRANCH   3  15
TORSDOF 5
ENDMDL
