MODEL 1
REMARK VINA RESULT:      -5.4      0.000      0.000
REMARK  3 active torsions:
REMARK  status: ('A' for Active; 'I' for Inactive)
REMARK    1  A    between atoms: O_2  and  C_3 
REMARK    2  A    between atoms: C_9  and  N_10 
REMARK       I    between atoms: N_10  and  C_11 
REMARK       I    between atoms: C_11  and  N_13 
REMARK    3  A    between atoms: N_13  and  C_14 
ROOT
HETATM    1  C   UNL     1     -40.204 -51.278  12.272  1.00  0.00     0.169 A 
HETATM    2  N   UNL     1     -39.516 -51.855  13.290  1.00  0.00    -0.345 N 
ATOM      3  HN  UNL     1     -39.927 -52.598  13.856  1.00  0.00     0.167 HD
HETATM    4  C   UNL     1     -38.268 -51.403  13.520  1.00  0.00     0.090 A 
HETATM    5  C   UNL     1     -37.676 -50.396  12.786  1.00  0.00     0.019 A 
HETATM    6  C   UNL     1     -38.417 -49.796  11.767  1.00  0.00     0.035 A 
HETATM    7  C   UNL     1     -39.713 -50.225  11.487  1.00  0.00     0.087 A 
ENDROOT
BRANCH   7   8
HETATM    8  N   UNL     1     -40.515 -49.633  10.472  1.00  0.00    -0.305 N 
HETATM    9  C   UNL     1     -41.407 -48.602  10.683  1.00  0.00     0.321 C 
HETATM   10  O   UNL     1     -41.525 -47.973  11.730  1.00  0.00    -0.247 OA
HETATM   11  N   UNL     1     -42.208 -48.324   9.593  1.00  0.00    -0.338 N 
HETATM   12  H   UNL     1     -41.987 -48.720   8.693  1.00  0.00     0.164 HD
HETATM   13  H   UNL     1     -40.274 -49.885   9.522  1.00  0.00     0.171 HD
BRANCH  11  14
HETATM   14  C   UNL     1     -43.148 -47.239   9.665  1.00  0.00     0.086 A 
HETATM   15  C   UNL     1     -44.496 -47.361   9.003  1.00  0.00     0.027 A 
HETATM   16  C   UNL     1     -43.492 -46.371   8.490  1.00  0.00     0.027 A 
ENDBRANCH  11  14
ENDBRANCH   7   8
BRANCH   1  17
HETATM   17  O   UNL     1     -41.457 -51.786  11.969  1.00  0.00    -0.339 OA
HETATM   18  C   UNL     1     -42.402 -51.440  12.985  1.00  0.00     0.211 C 
ENDBRANCH   1  17
TORSDOF 3
ENDMDL
MODEL 2
REMARK VINA RESULT:      -5.2      1.775      6.565
REMARK  3 active torsions:
REMARK  status: ('A' for Active; 'I' for Inactive)
REMARK    1  A    between atoms: O_2  and  C_3 
REMARK    2  A    between atoms: C_9  and  N_10 
REMARK       I    between atoms: N_10  and  C_11 
REMARK       I    between atoms: C_11  and  N_13 
REMARK    3  A    between atoms: N_13  and  C_14 
ROOT
HETATM    1  C   UNL     1     -43.514 -46.003   9.309  1.00  0.00     0.169 A 
HETATM    2  N   UNL     1     -44.583 -45.178   9.173  1.00  0.00    -0.345 N 
ATOM      3  HN  UNL     1     -44.489 -44.166   9.257  1.00  0.00     0.167 HD
HETATM    4  C   UNL     1     -45.775 -45.756   8.923  1.00  0.00     0.090 A 
HETATM    5  C   UNL     1     -45.951 -47.120   8.809  1.00  0.00     0.019 A 
HETATM    6  C   UNL     1     -44.841 -47.948   8.987  1.00  0.00     0.035 A 
HETATM    7  C   UNL     1     -43.586 -47.402   9.248  1.00  0.00     0.087 A 
ENDROOT
BRANCH   7   8
HETATM    8  N   UNL     1     -42.429 -48.204   9.456  1.00  0.00    -0.305 N 
HETATM    9  C   UNL     1     -41.903 -48.512  10.694  1.00  0.00     0.321 C 
HETATM   10  O   UNL     1     -42.434 -48.255  11.770  1.00  0.00    -0.247 OA
HETATM   11  N   UNL     1     -40.674 -49.139  10.639  1.00  0.00    -0.338 N 
HETATM   12  H   UNL     1     -40.333 -49.500   9.762  1.00  0.00     0.164 HD
HETATM   13  H   UNL     1     -42.092 -48.704   8.643  1.00  0.00     0.171 HD
BRANCH  11  14
HETATM   14  C   UNL     1     -40.039 -49.557  11.859  1.00  0.00     0.086 A 
HETATM   15  C   UNL     1     -38.641 -50.119  11.830  1.00  0.00     0.027 A 
HETATM   16  C   UNL     1     -39.798 -50.997  12.207  1.00  0.00     0.027 A 
ENDBRANCH  11  14
ENDBRANCH   7   8
BRANCH   1  17
HETATM   17  O   UNL     1     -42.269 -45.422   9.485  1.00  0.00    -0.339 OA
HETATM   18  C   UNL     1     -42.177 -44.803  10.771  1.00  0.00     0.211 C 
ENDBRANCH   1  17
TORSDOF 3
ENDMDL
MODEL 3
REMARK VINA RESULT:      -4.9      3.867      6.159
REMARK  3 active torsions:
REMARK  status: ('A' for Active; 'I' for Inactive)
REMARK    1  A    between atoms: O_2  and  C_3 
REMARK    2  A    between atoms: C_9  and  N_10 
REMARK       I    between atoms: N_10  and  C_11 
REMARK       I    between atoms: C_11  and  N_13 
REMARK    3  A    between atoms: N_13  and  C_14 
ROOT
HETATM    1  C   UNL     1     -45.858 -52.758  13.174  1.00  0.00     0.169 A 
HETATM    2  N   UNL     1     -46.812 -53.381  13.912  1.00  0.00    -0.345 N 
ATOM      3  HN  UNL     1     -47.707 -52.935  14.111  1.00  0.00     0.167 HD
HETATM    4  C   UNL     1     -46.523 -54.615  14.371  1.00  0.00     0.090 A 
HETATM    5  C   UNL     1     -45.323 -55.254  14.133  1.00  0.00     0.019 A 
HETATM    6  C   UNL     1     -44.346 -54.578  13.401  1.00  0.00     0.035 A 
HETATM    7  C   UNL     1     -44.593 -53.299  12.903  1.00  0.00     0.087 A 
ENDROOT
BRANCH   7   8
HETATM    8  N   UNL     1     -43.624 -52.561  12.168  1.00  0.00    -0.305 N 
HETATM    9  C   UNL     1     -42.634 -51.787  12.737  1.00  0.00     0.321 C 
HETATM   10  O   UNL     1     -42.374 -51.742  13.936  1.00  0.00    -0.247 OA
HETATM   11  N   UNL     1     -41.936 -51.016  11.829  1.00  0.00    -0.338 N 
HETATM   12  H   UNL     1     -42.036 -51.190  10.841  1.00  0.00     0.164 HD
HETATM   13  H   UNL     1     -43.574 -52.770  11.179  1.00  0.00     0.171 HD
BRANCH  11  14
HETATM   14  C   UNL     1     -40.845 -50.199  12.287  1.00  0.00     0.086 A 
HETATM   15  C   UNL     1     -39.842 -49.656  11.302  1.00  0.00     0.027 A 
HETATM   16  C   UNL     1     -39.421 -50.674  12.320  1.00  0.00     0.027 A 
ENDBRANCH  11  14
ENDBRANCH   7   8
BRANCH   1  17
HETATM   17  O   UNL     1     -46.169 -51.524  12.627  1.00  0.00    -0.339 OA
HETATM   18  C   UNL     1     -47.113 -51.667  11.562  1.00  0.00     0.211 C 
ENDBRANCH   1  17
TORSDOF 3
ENDMDL
MODEL 4
REMARK VINA RESULT:      -4.9      2.377      5.115
REMARK  3 active torsions:
REMARK  status: ('A' for Active; 'I' for Inactive)
REMARK    1  A    between atoms: O_2  and  C_3 
REMARK    2  A    between atoms: C_9  and  N_10 
REMARK       I    between atoms: N_10  and  C_11 
REMARK       I    between atoms: C_11  and  N_13 
REMARK    3  A    between atoms: N_13  and  C_14 
ROOT
HETATM    1  C   UNL     1     -41.745 -47.500  10.303  1.00  0.00     0.169 A 
HETATM    2  N   UNL     1     -41.397 -46.191  10.204  1.00  0.00    -0.345 N 
ATOM      3  HN  UNL     1     -41.871 -45.562   9.555  1.00  0.00     0.167 HD
HETATM    4  C   UNL     1     -40.399 -45.761  11.000  1.00  0.00     0.090 A 
HETATM    5  C   UNL     1     -39.725 -46.578  11.885  1.00  0.00     0.019 A 
HETATM    6  C   UNL     1     -40.079 -47.926  11.943  1.00  0.00     0.035 A 
HETATM    7  C   UNL     1     -41.105 -48.424  11.141  1.00  0.00     0.087 A 
ENDROOT
BRANCH   7   8
HETATM    8  N   UNL     1     -41.490 -49.794  11.149  1.00  0.00    -0.305 N 
HETATM    9  C   UNL     1     -42.241 -50.389  12.140  1.00  0.00     0.321 C 
HETATM   10  O   UNL     1     -42.787 -49.795  13.065  1.00  0.00    -0.247 OA
HETATM   11  N   UNL     1     -42.325 -51.763  12.030  1.00  0.00    -0.338 N 
HETATM   12  H   UNL     1     -42.026 -52.218  11.181  1.00  0.00     0.164 HD
HETATM   13  H   UNL     1     -41.336 -50.295  10.283  1.00  0.00     0.171 HD
BRANCH  11  14
HETATM   14  C   UNL     1     -43.120 -52.501  12.974  1.00  0.00     0.086 A 
HETATM   15  C   UNL     1     -42.833 -53.958  13.228  1.00  0.00     0.027 A 
HETATM   16  C   UNL     1     -44.116 -53.547  12.568  1.00  0.00     0.027 A 
ENDBRANCH  11  14
ENDBRANCH   7   8
BRANCH   1  17
HETATM   17  O   UNL     1     -42.823 -47.940   9.552  1.00  0.00    -0.339 OA
HETATM   18  C   UNL     1     -44.051 -47.438  10.088  1.00  0.00     0.211 C 
ENDBRANCH   1  17
TORSDOF 3
ENDMDL
MODEL 5
REMARK VINA RESULT:      -4.8      2.353      4.159
REMARK  3 active torsions:
REMARK  status: ('A' for Active; 'I' for Inactive)
REMARK    1  A    between atoms: O_2  and  C_3 
REMARK    2  A    between atoms: C_9  and  N_10 
REMARK       I    between atoms: N_10  and  C_11 
REMARK       I    between atoms: C_11  and  N_13 
REMARK    3  A    between atoms: N_13  and  C_14 
ROOT
HETATM    1  C   UNL     1     -40.128 -49.536  11.324  1.00  0.00     0.169 A 
HETATM    2  N   UNL     1     -38.876 -49.012  11.339  1.00  0.00    -0.345 N 
ATOM      3  HN  UNL     1     -38.646 -48.166  10.817  1.00  0.00     0.167 HD
HETATM    4  C   UNL     1     -37.950 -49.659  12.074  1.00  0.00     0.090 A 
HETATM    5  C   UNL     1     -38.214 -50.809  12.789  1.00  0.00     0.019 A 
HETATM    6  C   UNL     1     -39.501 -51.346  12.729  1.00  0.00     0.035 A 
HETATM    7  C   UNL     1     -40.496 -50.717  11.984  1.00  0.00     0.087 A 
ENDROOT
BRANCH   7   8
HETATM    8  N   UNL     1     -41.817 -51.235  11.875  1.00  0.00    -0.305 N 
HETATM    9  C   UNL     1     -42.800 -51.078  12.830  1.00  0.00     0.321 C 
HETATM   10  O   UNL     1     -42.710 -50.363  13.824  1.00  0.00    -0.247 OA
HETATM   11  N   UNL     1     -43.935 -51.827  12.594  1.00  0.00    -0.338 N 
HETATM   12  H   UNL     1     -44.068 -52.268  11.696  1.00  0.00     0.164 HD
HETATM   13  H   UNL     1     -42.075 -51.587  10.961  1.00  0.00     0.171 HD
BRANCH  11  14
HETATM   14  C   UNL     1     -45.054 -51.717  13.489  1.00  0.00     0.086 A 
HETATM   15  C   UNL     1     -46.038 -52.852  13.613  1.00  0.00     0.027 A 
HETATM   16  C   UNL     1     -46.468 -51.543  13.019  1.00  0.00     0.027 A 
ENDBRANCH  11  14
ENDBRANCH   7   8
BRANCH   1  17
HETATM   17  O   UNL     1     -41.111 -48.839  10.640  1.00  0.00    -0.339 OA
HETATM   18  C   UNL     1     -41.421 -47.613  11.310  1.00  0.00     0.211 C 
ENDBRANCH   1  17
TORSDOF 3
ENDMDL
MODEL 6
REMARK VINA RESULT:      -4.7      3.480      5.589
REMARK  3 active torsions:
REMARK  status: ('A' for Active; 'I' for Inactive)
REMARK    1  A    between atoms: O_2  and  C_3 
REMARK    2  A    between atoms: C_9  and  N_10 
REMARK       I    between atoms: N_10  and  C_11 
REMARK       I    between atoms: C_11  and  N_13 
REMARK    3  A    between atoms: N_13  and  C_14 
ROOT
HETATM    1  C   UNL     1     -42.471 -54.322  13.947  1.00  0.00     0.169 A 
HETATM    2  N   UNL     1     -43.513 -54.927  14.571  1.00  0.00    -0.345 N 
ATOM      3  HN  UNL     1     -43.368 -55.565  15.354  1.00  0.00     0.167 HD
HETATM    4  C   UNL     1     -44.749 -54.650  14.110  1.00  0.00     0.090 A 
HETATM    5  C   UNL     1     -44.992 -53.800  13.050  1.00  0.00     0.019 A 
HETATM    6  C   UNL     1     -43.901 -53.217  12.404  1.00  0.00     0.035 A 
HETATM    7  C   UNL     1     -42.602 -53.471  12.840  1.00  0.00     0.087 A 
ENDROOT
BRANCH   7   8
HETATM    8  N   UNL     1     -41.456 -52.916  12.204  1.00  0.00    -0.305 N 
HETATM    9  C   UNL     1     -40.833 -51.749  12.595  1.00  0.00     0.321 C 
HETATM   10  O   UNL     1     -41.095 -51.116  13.613  1.00  0.00    -0.247 OA
HETATM   11  N   UNL     1     -39.864 -51.310  11.715  1.00  0.00    -0.338 N 
HETATM   12  H   UNL     1     -39.537 -51.922  10.982  1.00  0.00     0.164 HD
HETATM   13  H   UNL     1     -40.991 -53.520  11.538  1.00  0.00     0.171 HD
BRANCH  11  14
HETATM   14  C   UNL     1     -39.106 -50.131  12.029  1.00  0.00     0.086 A 
HETATM   15  C   UNL     1     -37.786 -49.877  11.347  1.00  0.00     0.027 A 
HETATM   16  C   UNL     1     -37.830 -50.161  12.819  1.00  0.00     0.027 A 
ENDBRANCH  11  14
ENDBRANCH   7   8
BRANCH   1  17
HETATM   17  O   UNL     1     -41.201 -54.532  14.460  1.00  0.00    -0.339 OA
HETATM   18  C   UNL     1     -41.099 -54.008  15.787  1.00  0.00     0.211 C 
ENDBRANCH   1  17
TORSDOF 3
ENDMDL
MODEL 7
REMARK VINA RESULT:      -4.6      1.568      2.487
REMARK  3 active torsions:
REMARK  status: ('A' for Active; 'I' for Inactive)
REMARK    1  A    between atoms: O_2  and  C_3 
REMARK    2  A    between atoms: C_9  and  N_10 
REMARK       I    between atoms: N_10  and  C_11 
REMARK       I    between atoms: C_11  and  N_13 
REMARK    3  A    between atoms: N_13  and  C_14 
ROOT
HETATM    1  C   UNL     1     -39.411 -51.349  12.889  1.00  0.00     0.169 A 
HETATM    2  N   UNL     1     -39.028 -52.301  13.778  1.00  0.00    -0.345 N 
ATOM      3  HN  UNL     1     -38.178 -52.201  14.333  1.00  0.00     0.167 HD
HETATM    4  C   UNL     1     -39.821 -53.384  13.895  1.00  0.00     0.090 A 
HETATM    5  C   UNL     1     -40.976 -53.564  13.160  1.00  0.00     0.019 A 
HETATM    6  C   UNL     1     -41.328 -52.587  12.229  1.00  0.00     0.035 A 
HETATM    7  C   UNL     1     -40.543 -51.447  12.068  1.00  0.00     0.087 A 
ENDROOT
BRANCH   7   8
HETATM    8  N   UNL     1     -40.848 -50.431  11.119  1.00  0.00    -0.305 N 
HETATM    9  C   UNL     1     -41.654 -49.341  11.373  1.00  0.00     0.321 C 
HETATM   10  O   UNL     1     -42.095 -49.031  12.476  1.00  0.00    -0.247 OA
HETATM   11  N   UNL     1     -41.960 -48.597  10.251  1.00  0.00    -0.338 N 
HETATM   12  H   UNL     1     -41.456 -48.755   9.392  1.00  0.00     0.164 HD
HETATM   13  H   UNL     1     -40.294 -50.444  10.272  1.00  0.00     0.171 HD
BRANCH  11  14
HETATM   14  C   UNL     1     -42.753 -47.406  10.386  1.00  0.00     0.086 A 
HETATM   15  C   UNL     1     -44.206 -47.415   9.987  1.00  0.00     0.027 A 
HETATM   16  C   UNL     1     -43.218 -46.592   9.215  1.00  0.00     0.027 A 
ENDBRANCH  11  14
ENDBRANCH   7   8
BRANCH   1  17
HETATM   17  O   UNL     1     -38.651 -50.192  12.816  1.00  0.00    -0.339 OA
HETATM   18  C   UNL     1     -37.484 -50.403  12.016  1.00  0.00     0.211 C 
ENDBRANCH   1  17
TORSDOF 3
ENDMDL
MODEL 8
REMARK VINA RESULT:      -4.5      2.908      5.054
REMARK  3 active torsions:
REMARK  status: ('A' for Active; 'I' for Inactive)
REMARK    1  A    between atoms: O_2  and  C_3 
REMARK    2  A    between atoms: C_9  and  N_10 
REMARK       I    between atoms: N_10  and  C_11 
REMARK       I    between atoms: C_11  and  N_13 
REMARK    3  A    between atoms: N_13  and  C_14 
ROOT
HETATM    1  C   UNL     1     -39.889 -51.263  12.371  1.00  0.00     0.169 A 
HETATM    2  N   UNL     1     -38.838 -50.408  12.451  1.00  0.00    -0.345 N 
ATOM      3  HN  UNL     1     -37.920 -50.721  12.768  1.00  0.00     0.167 HD
HETATM    4  C   UNL     1     -39.060 -49.128  12.094  1.00  0.00     0.090 A 
HETATM    5  C   UNL     1     -40.285 -48.659  11.667  1.00  0.00     0.019 A 
HETATM    6  C   UNL     1     -41.358 -49.550  11.626  1.00  0.00     0.035 A 
HETATM    7  C   UNL     1     -41.183 -50.885  11.985  1.00  0.00     0.087 A 
ENDROOT
BRANCH   7   8
HETATM    8  N   UNL     1     -42.249 -51.828  11.979  1.00  0.00    -0.305 N 
HETATM    9  C   UNL     1     -42.898 -52.282  13.108  1.00  0.00     0.321 C 
HETATM   10  O   UNL     1     -42.739 -51.837  14.241  1.00  0.00    -0.247 OA
HETATM   11  N   UNL     1     -43.763 -53.332  12.873  1.00  0.00    -0.338 N 
HETATM   12  H   UNL     1     -44.017 -53.571  11.926  1.00  0.00     0.164 HD
HETATM   13  H   UNL     1     -42.647 -52.031  11.071  1.00  0.00     0.171 HD
BRANCH  11  14
HETATM   14  C   UNL     1     -44.538 -53.867  13.958  1.00  0.00     0.086 A 
HETATM   15  C   UNL     1     -45.380 -55.099  13.751  1.00  0.00     0.027 A 
HETATM   16  C   UNL     1     -46.035 -53.777  14.021  1.00  0.00     0.027 A 
ENDBRANCH  11  14
ENDBRANCH   7   8
BRANCH   1  17
HETATM   17  O   UNL     1     -39.658 -52.599  12.656  1.00  0.00    -0.339 OA
HETATM   18  C   UNL     1     -39.253 -52.763  14.018  1.00  0.00     0.211 C 
ENDBRANCH   1  17
TORSDOF 3
ENDMDL
MODEL 9
REMARK VINA RESULT:      -4.4      2.744      4.890
REMARK  3 active torsions:
REMARK  status: ('A' for Active; 'I' for Inactive)
REMARK    1  A    between atoms: O_2  and  C_3 
REMARK    2  A    between atoms: C_9  and  N_10 
REMARK       I    between atoms: N_10  and  C_11 
REMARK       I    between atoms: C_11  and  N_13 
REMARK    3  A    between atoms: N_13  and  C_14 
ROOT
HETATM    1  C   UNL     1     -40.822 -48.573  11.294  1.00  0.00     0.169 A 
HETATM    2  N   UNL     1     -39.780 -47.710  11.185  1.00  0.00    -0.345 N 
ATOM      3  HN  UNL     1     -38.830 -48.040  11.013  1.00  0.00     0.167 HD
HETATM    4  C   UNL     1     -40.057 -46.397  11.314  1.00  0.00     0.090 A 
HETATM    5  C   UNL     1     -41.324 -45.906  11.554  1.00  0.00     0.019 A 
HETATM    6  C   UNL     1     -42.372 -46.818  11.696  1.00  0.00     0.035 A 
HETATM    7  C   UNL     1     -42.141 -48.186  11.572  1.00  0.00     0.087 A 
ENDROOT
BRANCH   7   8
HETATM    8  N   UNL     1     -43.170 -49.156  11.727  1.00  0.00    -0.305 N 
HETATM    9  C   UNL     1     -43.540 -49.718  12.931  1.00  0.00     0.321 C 
HETATM   10  O   UNL     1     -43.131 -49.361  14.032  1.00  0.00    -0.247 OA
HETATM   11  N   UNL     1     -44.426 -50.770  12.809  1.00  0.00    -0.338 N 
HETATM   12  H   UNL     1     -44.886 -50.939  11.928  1.00  0.00     0.164 HD
HETATM   13  H   UNL     1     -43.763 -49.297  10.918  1.00  0.00     0.171 HD
BRANCH  11  14
HETATM   14  C   UNL     1     -44.928 -51.413  13.993  1.00  0.00     0.086 A 
HETATM   15  C   UNL     1     -45.808 -52.630  13.876  1.00  0.00     0.027 A 
HETATM   16  C   UNL     1     -46.367 -51.347  14.415  1.00  0.00     0.027 A 
ENDBRANCH  11  14
ENDBRANCH   7   8
BRANCH   1  17
HETATM   17  O   UNL     1     -40.569 -49.919  11.082  1.00  0.00    -0.339 OA
HETATM   18  C   UNL     1     -39.692 -50.433  12.089  1.00  0.00     0.211 C 
ENDBRANCH   1  17
TORSDOF 3
ENDMDL
