MODEL 1
REMARK VINA RESULT:      -6.7      0.000      0.000
REMARK  6 active torsions:
REMARK  status: ('A' for Active; 'I' for Inactive)
REMARK    1  A    between atoms: N_2  and  C_3 
REMARK    2  A    between atoms: N_4  and  C_18 
REMARK    3  A    between atoms: C_9  and  C_26 
REMARK    4  A    between atoms: C_16  and  C_18 
REMARK    5  A    between atoms: C_16  and  C_25 
REMARK    6  A    between atoms: C_25  and  O_28 
ROOT
HETATM    1  C   UNL     1     -42.619 -50.323  13.154  1.00  0.00     0.122 A 
HETATM    2  C   UNL     1     -41.659 -49.995  12.158  1.00  0.00     0.136 A 
HETATM    3  N   UNL     1     -43.747 -51.707  14.417  1.00  0.00    -0.326 N 
HETATM    4  C   UNL     1     -42.855 -51.669  13.385  1.00  0.00     0.140 A 
HETATM    5  N   UNL     1     -43.400 -49.558  14.006  1.00  0.00    -0.346 N 
ATOM      6  HN  UNL     1     -43.434 -48.541  14.066  1.00  0.00     0.167 HD
HETATM    7  C   UNL     1     -44.086 -50.422  14.721  1.00  0.00     0.185 A 
HETATM    8  N   UNL     1     -41.111 -51.053  11.484  1.00  0.00    -0.337 N 
ATOM      9  HN  UNL     1     -40.437 -50.886  10.738  1.00  0.00     0.168 HD
HETATM   10  N   UNL     1     -42.311 -52.721  12.756  1.00  0.00    -0.336 N 
ATOM     11  HN  UNL     1     -42.516 -53.696  12.973  1.00  0.00     0.168 HD
HETATM   12  C   UNL     1     -41.460 -52.314  11.802  1.00  0.00     0.183 A 
ENDROOT
BRANCH   2  13
HETATM   13  N   UNL     1     -41.242 -48.705  11.826  1.00  0.00    -0.350 N 
HETATM   14  C   UNL     1     -39.999 -48.163  12.430  1.00  0.00     0.177 C 
HETATM   15  C   UNL     1     -39.891 -46.628  12.232  1.00  0.00     0.242 C 
HETATM   16  O   UNL     1     -39.284 -45.906  13.024  1.00  0.00    -0.271 OA
HETATM   17  N   UNL     1     -40.265 -46.196  10.956  1.00  0.00    -0.353 N 
HETATM   18  C   UNL     1     -41.503 -46.724  10.397  1.00  0.00     0.145 C 
HETATM   19  C   UNL     1     -39.695 -44.976  10.439  1.00  0.00     0.152 C 
HETATM   20  C   UNL     1     -41.562 -48.254  10.469  1.00  0.00     0.145 C 
BRANCH  14  21
HETATM   21  C   UNL     1     -38.700 -48.673  11.757  1.00  0.00     0.030 C 
HETATM   22  C   UNL     1     -37.839 -49.657  12.521  1.00  0.00     0.007 C 
ENDBRANCH  14  21
ENDBRANCH   2  13
BRANCH   3  23
HETATM   23  C   UNL     1     -44.259 -52.915  15.047  1.00  0.00     0.147 C 
BRANCH  23  24
HETATM   24  C   UNL     1     -45.432 -53.544  14.304  1.00  0.00     0.040 C 
HETATM   25  C   UNL     1     -46.370 -54.481  15.098  1.00  0.00     0.183 C 
HETATM   26  O   UNL     1     -46.193 -55.532  14.114  1.00  0.00    -0.389 OA
HETATM   27  C   UNL     1     -45.031 -54.848  13.582  1.00  0.00     0.183 C 
BRANCH  24  28
HETATM   28  C   UNL     1     -46.215 -52.584  13.416  1.00  0.00     0.179 C 
BRANCH  28  29
HETATM   29  O   UNL     1     -46.262 -53.099  12.090  1.00  0.00    -0.400 OA
HETATM   30  H   UNL     1     -47.002 -52.678  11.621  1.00  0.00     0.209 HD
ENDBRANCH  28  29
ENDBRANCH  24  28
ENDBRANCH  23  24
ENDBRANCH   3  23
TORSDOF 6
ENDMDL
MODEL 2
REMARK VINA RESULT:      -6.6      2.188      3.435
REMARK  6 active torsions:
REMARK  status: ('A' for Active; 'I' for Inactive)
REMARK    1  A    between atoms: N_2  and  C_3 
REMARK    2  A    between atoms: N_4  and  C_18 
REMARK    3  A    between atoms: C_9  and  C_26 
REMARK    4  A    between atoms: C_16  and  C_18 
REMARK    5  A    between atoms: C_16  and  C_25 
REMARK    6  A    between atoms: C_25  and  O_28 
ROOT
HETATM    1  C   UNL     1     -40.593 -49.151  13.096  1.00  0.00     0.122 A 
HETATM    2  C   UNL     1     -39.598 -48.367  12.450  1.00  0.00     0.136 A 
HETATM    3  N   UNL     1     -41.370 -50.986  14.000  1.00  0.00    -0.326 N 
HETATM    4  C   UNL     1     -40.299 -50.488  13.314  1.00  0.00     0.140 A 
HETATM    5  N   UNL     1     -41.848 -48.859  13.603  1.00  0.00    -0.346 N 
ATOM      6  HN  UNL     1     -42.325 -47.958  13.591  1.00  0.00     0.167 HD
HETATM    7  C   UNL     1     -42.295 -49.990  14.103  1.00  0.00     0.185 A 
HETATM    8  N   UNL     1     -38.473 -49.038  12.052  1.00  0.00    -0.337 N 
ATOM      9  HN  UNL     1     -37.733 -48.540  11.557  1.00  0.00     0.168 HD
HETATM   10  N   UNL     1     -39.194 -51.159  12.957  1.00  0.00    -0.336 N 
ATOM     11  HN  UNL     1     -39.027 -52.146  13.150  1.00  0.00     0.168 HD
HETATM   12  C   UNL     1     -38.340 -50.352  12.310  1.00  0.00     0.183 A 
ENDROOT
BRANCH   2  13
HETATM   13  N   UNL     1     -39.682 -46.997  12.199  1.00  0.00    -0.350 N 
HETATM   14  C   UNL     1     -40.204 -46.526  10.891  1.00  0.00     0.177 C 
HETATM   15  C   UNL     1     -39.895 -45.024  10.660  1.00  0.00     0.242 C 
HETATM   16  O   UNL     1     -39.753 -44.549   9.532  1.00  0.00    -0.271 OA
HETATM   17  N   UNL     1     -40.092 -44.227  11.792  1.00  0.00    -0.353 N 
HETATM   18  C   UNL     1     -39.546 -44.699  13.058  1.00  0.00     0.145 C 
HETATM   19  C   UNL     1     -40.414 -42.832  11.614  1.00  0.00     0.152 C 
HETATM   20  C   UNL     1     -39.957 -46.145  13.360  1.00  0.00     0.145 C 
BRANCH  14  21
HETATM   21  C   UNL     1     -41.749 -46.564  10.783  1.00  0.00     0.030 C 
HETATM   22  C   UNL     1     -42.385 -47.716  10.034  1.00  0.00     0.007 C 
ENDBRANCH  14  21
ENDBRANCH   2  13
BRANCH   3  23
HETATM   23  C   UNL     1     -41.496 -52.347  14.496  1.00  0.00     0.147 C 
BRANCH  23  24
HETATM   24  C   UNL     1     -42.009 -53.335  13.455  1.00  0.00     0.040 C 
HETATM   25  C   UNL     1     -43.059 -52.832  12.438  1.00  0.00     0.183 C 
HETATM   26  O   UNL     1     -43.946 -53.929  12.777  1.00  0.00    -0.389 OA
HETATM   27  C   UNL     1     -43.185 -54.182  13.985  1.00  0.00     0.183 C 
BRANCH  24  28
HETATM   28  C   UNL     1     -40.926 -54.169  12.780  1.00  0.00     0.179 C 
BRANCH  28  29
HETATM   29  O   UNL     1     -40.537 -53.543  11.562  1.00  0.00    -0.400 OA
HETATM   30  H   UNL     1     -39.635 -53.195  11.668  1.00  0.00     0.209 HD
ENDBRANCH  28  29
ENDBRANCH  24  28
ENDBRANCH  23  24
ENDBRANCH   3  23
TORSDOF 6
ENDMDL
MODEL 3
REMARK VINA RESULT:      -6.3      3.458      5.101
REMARK  6 active torsions:
REMARK  status: ('A' for Active; 'I' for Inactive)
REMARK    1  A    between atoms: N_2  and  C_3 
REMARK    2  A    between atoms: N_4  and  C_18 
REMARK    3  A    between atoms: C_9  and  C_26 
REMARK    4  A    between atoms: C_16  and  C_18 
REMARK    5  A    between atoms: C_16  and  C_25 
REMARK    6  A    between atoms: C_25  and  O_28 
ROOT
HETATM    1  C   UNL     1     -42.152 -46.664  12.395  1.00  0.00     0.122 A 
HETATM    2  C   UNL     1     -42.437 -45.547  11.563  1.00  0.00     0.136 A 
HETATM    3  N   UNL     1     -42.105 -48.798  12.874  1.00  0.00    -0.326 N 
HETATM    4  C   UNL     1     -42.556 -47.909  11.940  1.00  0.00     0.140 A 
HETATM    5  N   UNL     1     -41.508 -46.798  13.614  1.00  0.00    -0.346 N 
ATOM      6  HN  UNL     1     -41.101 -46.055  14.183  1.00  0.00     0.167 HD
HETATM    7  C   UNL     1     -41.532 -48.084  13.883  1.00  0.00     0.185 A 
HETATM    8  N   UNL     1     -43.143 -45.816  10.422  1.00  0.00    -0.337 N 
ATOM      9  HN  UNL     1     -43.405 -45.056   9.795  1.00  0.00     0.168 HD
HETATM   10  N   UNL     1     -43.223 -48.199  10.814  1.00  0.00    -0.336 N 
ATOM     11  HN  UNL     1     -43.490 -49.140  10.523  1.00  0.00     0.168 HD
HETATM   12  C   UNL     1     -43.493 -47.081  10.123  1.00  0.00     0.183 A 
ENDROOT
BRANCH   2  13
HETATM   13  N   UNL     1     -42.059 -44.228  11.818  1.00  0.00    -0.350 N 
HETATM   14  C   UNL     1     -40.619 -43.900  11.973  1.00  0.00     0.177 C 
HETATM   15  C   UNL     1     -40.418 -42.492  12.593  1.00  0.00     0.242 C 
HETATM   16  O   UNL     1     -39.427 -42.209  13.268  1.00  0.00    -0.271 OA
HETATM   17  N   UNL     1     -41.280 -41.520  12.076  1.00  0.00    -0.353 N 
HETATM   18  C   UNL     1     -42.692 -41.858  11.959  1.00  0.00     0.145 C 
HETATM   19  C   UNL     1     -40.861 -40.140  12.092  1.00  0.00     0.152 C 
HETATM   20  C   UNL     1     -42.908 -43.189  11.228  1.00  0.00     0.145 C 
BRANCH  14  21
HETATM   21  C   UNL     1     -39.854 -43.780  10.631  1.00  0.00     0.030 C 
HETATM   22  C   UNL     1     -39.398 -45.054   9.953  1.00  0.00     0.007 C 
ENDBRANCH  14  21
ENDBRANCH   2  13
BRANCH   3  23
HETATM   23  C   UNL     1     -42.249 -50.244  12.802  1.00  0.00     0.147 C 
BRANCH  23  24
HETATM   24  C   UNL     1     -40.980 -50.966  12.367  1.00  0.00     0.040 C 
HETATM   25  C   UNL     1     -41.120 -52.402  11.813  1.00  0.00     0.183 C 
HETATM   26  O   UNL     1     -40.139 -52.891  12.763  1.00  0.00    -0.389 OA
HETATM   27  C   UNL     1     -40.283 -51.679  13.546  1.00  0.00     0.183 C 
BRANCH  24  28
HETATM   28  C   UNL     1     -40.025 -50.128  11.525  1.00  0.00     0.179 C 
BRANCH  28  29
HETATM   29  O   UNL     1     -40.536 -50.016  10.202  1.00  0.00    -0.400 OA
HETATM   30  H   UNL     1     -40.080 -50.663   9.638  1.00  0.00     0.209 HD
ENDBRANCH  28  29
ENDBRANCH  24  28
ENDBRANCH  23  24
ENDBRANCH   3  23
TORSDOF 6
ENDMDL
MODEL 4
REMARK VINA RESULT:      -6.1      2.408      3.259
REMARK  6 active torsions:
REMARK  status: ('A' for Active; 'I' for Inactive)
REMARK    1  A    between atoms: N_2  and  C_3 
REMARK    2  A    between atoms: N_4  and  C_18 
REMARK    3  A    between atoms: C_9  and  C_26 
REMARK    4  A    between atoms: C_16  and  C_18 
REMARK    5  A    between atoms: C_16  and  C_25 
REMARK    6  A    between atoms: C_25  and  O_28 
ROOT
HETATM    1  C   UNL     1     -41.837 -49.047  12.906  1.00  0.00     0.122 A 
HETATM    2  C   UNL     1     -41.277 -48.073  12.034  1.00  0.00     0.136 A 
HETATM    3  N   UNL     1     -41.862 -50.971  13.947  1.00  0.00    -0.326 N 
HETATM    4  C   UNL     1     -41.171 -50.258  13.009  1.00  0.00     0.140 A 
HETATM    5  N   UNL     1     -42.945 -49.050  13.737  1.00  0.00    -0.346 N 
ATOM      6  HN  UNL     1     -43.618 -48.296  13.871  1.00  0.00     0.167 HD
HETATM    7  C   UNL     1     -42.946 -50.231  14.314  1.00  0.00     0.185 A 
HETATM    8  N   UNL     1     -40.167 -48.463  11.335  1.00  0.00    -0.337 N 
ATOM      9  HN  UNL     1     -39.733 -47.822  10.672  1.00  0.00     0.168 HD
HETATM   10  N   UNL     1     -40.068 -50.651  12.356  1.00  0.00    -0.336 N 
ATOM     11  HN  UNL     1     -39.613 -51.557  12.477  1.00  0.00     0.168 HD
HETATM   12  C   UNL     1     -39.645 -49.690  11.521  1.00  0.00     0.183 A 
ENDROOT
BRANCH   2  13
HETATM   13  N   UNL     1     -41.765 -46.780  11.843  1.00  0.00    -0.350 N 
HETATM   14  C   UNL     1     -41.628 -45.781  12.934  1.00  0.00     0.177 C 
HETATM   15  C   UNL     1     -42.525 -44.539  12.686  1.00  0.00     0.242 C 
HETATM   16  O   UNL     1     -42.974 -43.861  13.611  1.00  0.00    -0.271 OA
HETATM   17  N   UNL     1     -42.519 -44.095  11.360  1.00  0.00    -0.353 N 
HETATM   18  C   UNL     1     -42.681 -45.092  10.310  1.00  0.00     0.145 C 
HETATM   19  C   UNL     1     -42.790 -42.704  11.091  1.00  0.00     0.152 C 
HETATM   20  C   UNL     1     -41.705 -46.264  10.472  1.00  0.00     0.145 C 
BRANCH  14  21
HETATM   21  C   UNL     1     -40.216 -45.152  13.037  1.00  0.00     0.030 C 
HETATM   22  C   UNL     1     -39.473 -45.275  14.350  1.00  0.00     0.007 C 
ENDBRANCH  14  21
ENDBRANCH   2  13
BRANCH   3  23
HETATM   23  C   UNL     1     -41.508 -52.296  14.430  1.00  0.00     0.147 C 
BRANCH  23  24
HETATM   24  C   UNL     1     -42.002 -53.428  13.537  1.00  0.00     0.040 C 
HETATM   25  C   UNL     1     -43.224 -53.152  12.632  1.00  0.00     0.183 C 
HETATM   26  O   UNL     1     -43.909 -54.317  13.160  1.00  0.00    -0.389 OA
HETATM   27  C   UNL     1     -42.982 -54.366  14.274  1.00  0.00     0.183 C 
BRANCH  24  28
HETATM   28  C   UNL     1     -40.905 -54.177  12.789  1.00  0.00     0.179 C 
BRANCH  28  29
HETATM   29  O   UNL     1     -40.590 -53.479  11.590  1.00  0.00    -0.400 OA
HETATM   30  H   UNL     1     -40.212 -54.110  10.954  1.00  0.00     0.209 HD
ENDBRANCH  28  29
ENDBRANCH  24  28
ENDBRANCH  23  24
ENDBRANCH   3  23
TORSDOF 6
ENDMDL
MODEL 5
REMARK VINA RESULT:      -6.1      2.835      7.869
REMARK  6 active torsions:
REMARK  status: ('A' for Active; 'I' for Inactive)
REMARK    1  A    between atoms: N_2  and  C_3 
REMARK    2  A    between atoms: N_4  and  C_18 
REMARK    3  A    between atoms: C_9  and  C_26 
REMARK    4  A    between atoms: C_16  and  C_18 
REMARK    5  A    between atoms: C_16  and  C_25 
REMARK    6  A    between atoms: C_25  and  O_28 
ROOT
HETATM    1  C   UNL     1     -40.942 -47.417  11.688  1.00  0.00     0.122 A 
HETATM    2  C   UNL     1     -41.685 -48.595  11.401  1.00  0.00     0.136 A 
HETATM    3  N   UNL     1     -40.392 -45.320  11.397  1.00  0.00    -0.326 N 
HETATM    4  C   UNL     1     -41.160 -46.319  10.871  1.00  0.00     0.140 A 
HETATM    5  N   UNL     1     -40.015 -47.096  12.666  1.00  0.00    -0.346 N 
ATOM      6  HN  UNL     1     -39.664 -47.702  13.408  1.00  0.00     0.167 HD
HETATM    7  C   UNL     1     -39.684 -45.845  12.437  1.00  0.00     0.185 A 
HETATM    8  N   UNL     1     -42.495 -48.537  10.299  1.00  0.00    -0.337 N 
ATOM      9  HN  UNL     1     -43.034 -49.357  10.021  1.00  0.00     0.168 HD
HETATM   10  N   UNL     1     -41.968 -46.232   9.805  1.00  0.00    -0.336 N 
ATOM     11  HN  UNL     1     -42.096 -45.391   9.241  1.00  0.00     0.168 HD
HETATM   12  C   UNL     1     -42.584 -47.402   9.581  1.00  0.00     0.183 A 
ENDROOT
BRANCH   2  13
HETATM   13  N   UNL     1     -41.650 -49.777  12.142  1.00  0.00    -0.350 N 
HETATM   14  C   UNL     1     -40.582 -50.773  11.875  1.00  0.00     0.177 C 
HETATM   15  C   UNL     1     -40.905 -52.144  12.525  1.00  0.00     0.242 C 
HETATM   16  O   UNL     1     -40.491 -53.206  12.056  1.00  0.00    -0.271 OA
HETATM   17  N   UNL     1     -41.429 -52.046  13.818  1.00  0.00    -0.353 N 
HETATM   18  C   UNL     1     -42.495 -51.079  14.046  1.00  0.00     0.145 C 
HETATM   19  C   UNL     1     -41.234 -53.145  14.732  1.00  0.00     0.152 C 
HETATM   20  C   UNL     1     -42.129 -49.685  13.524  1.00  0.00     0.145 C 
BRANCH  14  21
HETATM   21  C   UNL     1     -39.218 -50.418  12.518  1.00  0.00     0.030 C 
HETATM   22  C   UNL     1     -38.070 -50.051  11.602  1.00  0.00     0.007 C 
ENDBRANCH  14  21
ENDBRANCH   2  13
BRANCH   3  23
HETATM   23  C   UNL     1     -40.329 -43.953  10.903  1.00  0.00     0.147 C 
BRANCH  23  24
HETATM   24  C   UNL     1     -41.025 -42.941  11.805  1.00  0.00     0.040 C 
HETATM   25  C   UNL     1     -42.193 -43.442  12.686  1.00  0.00     0.183 C 
HETATM   26  O   UNL     1     -43.062 -42.404  12.165  1.00  0.00    -0.389 OA
HETATM   27  C   UNL     1     -42.143 -42.175  11.067  1.00  0.00     0.183 C 
BRANCH  24  28
HETATM   28  C   UNL     1     -40.085 -42.027  12.583  1.00  0.00     0.179 C 
BRANCH  28  29
HETATM   29  O   UNL     1     -39.789 -42.616  13.844  1.00  0.00    -0.400 OA
HETATM   30  H   UNL     1     -39.731 -43.580  13.729  1.00  0.00     0.209 HD
ENDBRANCH  28  29
ENDBRANCH  24  28
ENDBRANCH  23  24
ENDBRANCH   3  23
TORSDOF 6
ENDMDL
MODEL 6
REMARK VINA RESULT:      -6.0      2.806      4.066
REMARK  6 active torsions:
REMARK  status: ('A' for Active; 'I' for Inactive)
REMARK    1  A    between atoms: N_2  and  C_3 
REMARK    2  A    between atoms: N_4  and  C_18 
REMARK    3  A    between atoms: C_9  and  C_26 
REMARK    4  A    between atoms: C_16  and  C_18 
REMARK    5  A    between atoms: C_16  and  C_25 
REMARK    6  A    between atoms: C_25  and  O_28 
ROOT
HETATM    1  C   UNL     1     -40.740 -49.920  12.311  1.00  0.00     0.122 A 
HETATM    2  C   UNL     1     -39.917 -48.768  12.179  1.00  0.00     0.136 A 
HETATM    3  N   UNL     1     -41.096 -52.065  12.546  1.00  0.00    -0.326 N 
HETATM    4  C   UNL     1     -40.103 -51.150  12.346  1.00  0.00     0.140 A 
HETATM    5  N   UNL     1     -42.108 -50.097  12.440  1.00  0.00    -0.346 N 
ATOM      6  HN  UNL     1     -42.826 -49.373  12.453  1.00  0.00     0.167 HD
HETATM    7  C   UNL     1     -42.284 -51.396  12.542  1.00  0.00     0.185 A 
HETATM    8  N   UNL     1     -38.576 -49.004  12.036  1.00  0.00    -0.337 N 
ATOM      9  HN  UNL     1     -37.933 -48.223  11.909  1.00  0.00     0.168 HD
HETATM   10  N   UNL     1     -38.791 -51.403  12.234  1.00  0.00    -0.336 N 
ATOM     11  HN  UNL     1     -38.374 -52.333  12.275  1.00  0.00     0.168 HD
HETATM   12  C   UNL     1     -38.103 -50.264  12.062  1.00  0.00     0.183 A 
ENDROOT
BRANCH   2  13
HETATM   13  N   UNL     1     -40.364 -47.446  12.186  1.00  0.00    -0.350 N 
HETATM   14  C   UNL     1     -40.975 -46.877  10.958  1.00  0.00     0.177 C 
HETATM   15  C   UNL     1     -41.080 -45.331  11.037  1.00  0.00     0.242 C 
HETATM   16  O   UNL     1     -41.055 -44.621  10.031  1.00  0.00    -0.271 OA
HETATM   17  N   UNL     1     -41.502 -44.857  12.283  1.00  0.00    -0.353 N 
HETATM   18  C   UNL     1     -40.867 -45.413  13.471  1.00  0.00     0.145 C 
HETATM   19  C   UNL     1     -42.186 -43.589  12.349  1.00  0.00     0.152 C 
HETATM   20  C   UNL     1     -40.877 -46.946  13.465  1.00  0.00     0.145 C 
BRANCH  14  21
HETATM   21  C   UNL     1     -42.451 -47.295  10.740  1.00  0.00     0.030 C 
HETATM   22  C   UNL     1     -42.886 -47.676   9.341  1.00  0.00     0.007 C 
ENDBRANCH  14  21
ENDBRANCH   2  13
BRANCH   3  23
HETATM   23  C   UNL     1     -40.905 -53.499  12.702  1.00  0.00     0.147 C 
BRANCH  23  24
HETATM   24  C   UNL     1     -40.691 -53.936  14.146  1.00  0.00     0.040 C 
HETATM   25  C   UNL     1     -41.852 -54.666  14.860  1.00  0.00     0.183 C 
HETATM   26  O   UNL     1     -41.801 -53.721  15.959  1.00  0.00    -0.389 OA
HETATM   27  C   UNL     1     -41.015 -52.810  15.150  1.00  0.00     0.183 C 
BRANCH  24  28
HETATM   28  C   UNL     1     -39.351 -54.612  14.416  1.00  0.00     0.179 C 
BRANCH  28  29
HETATM   29  O   UNL     1     -38.438 -54.283  13.375  1.00  0.00    -0.400 OA
HETATM   30  H   UNL     1     -38.119 -55.108  12.971  1.00  0.00     0.209 HD
ENDBRANCH  28  29
ENDBRANCH  24  28
ENDBRANCH  23  24
ENDBRANCH   3  23
TORSDOF 6
ENDMDL
MODEL 7
REMARK VINA RESULT:      -5.9      3.923      7.435
REMARK  6 active torsions:
REMARK  status: ('A' for Active; 'I' for Inactive)
REMARK    1  A    between atoms: N_2  and  C_3 
REMARK    2  A    between atoms: N_4  and  C_18 
REMARK    3  A    between atoms: C_9  and  C_26 
REMARK    4  A    between atoms: C_16  and  C_18 
REMARK    5  A    between atoms: C_16  and  C_25 
REMARK    6  A    between atoms: C_25  and  O_28 
ROOT
HETATM    1  C   UNL     1     -40.830 -47.810  13.825  1.00  0.00     0.122 A 
HETATM    2  C   UNL     1     -39.709 -48.598  14.205  1.00  0.00     0.136 A 
HETATM    3  N   UNL     1     -41.830 -45.932  13.317  1.00  0.00    -0.326 N 
HETATM    4  C   UNL     1     -40.645 -46.437  13.769  1.00  0.00     0.140 A 
HETATM    5  N   UNL     1     -42.128 -48.123  13.457  1.00  0.00    -0.346 N 
ATOM      6  HN  UNL     1     -42.548 -49.050  13.402  1.00  0.00     0.167 HD
HETATM    7  C   UNL     1     -42.704 -46.971  13.196  1.00  0.00     0.185 A 
HETATM    8  N   UNL     1     -38.577 -47.906  14.540  1.00  0.00    -0.337 N 
ATOM      9  HN  UNL     1     -37.746 -48.411  14.849  1.00  0.00     0.168 HD
HETATM   10  N   UNL     1     -39.538 -45.741  14.066  1.00  0.00    -0.336 N 
ATOM     11  HN  UNL     1     -39.456 -44.726  13.999  1.00  0.00     0.168 HD
HETATM   12  C   UNL     1     -38.555 -46.562  14.463  1.00  0.00     0.183 A 
ENDROOT
BRANCH   2  13
HETATM   13  N   UNL     1     -39.680 -49.992  14.260  1.00  0.00    -0.350 N 
HETATM   14  C   UNL     1     -39.503 -50.767  13.006  1.00  0.00     0.177 C 
HETATM   15  C   UNL     1     -39.848 -52.267  13.208  1.00  0.00     0.242 C 
HETATM   16  O   UNL     1     -40.267 -52.972  12.290  1.00  0.00    -0.271 OA
HETATM   17  N   UNL     1     -39.362 -52.800  14.406  1.00  0.00    -0.353 N 
HETATM   18  C   UNL     1     -39.573 -52.032  15.626  1.00  0.00     0.145 C 
HETATM   19  C   UNL     1     -39.084 -54.214  14.475  1.00  0.00     0.152 C 
HETATM   20  C   UNL     1     -39.111 -50.577  15.478  1.00  0.00     0.145 C 
BRANCH  14  21
HETATM   21  C   UNL     1     -38.036 -50.832  12.510  1.00  0.00     0.030 C 
HETATM   22  C   UNL     1     -37.606 -49.868  11.425  1.00  0.00     0.007 C 
ENDBRANCH  14  21
ENDBRANCH   2  13
BRANCH   3  23
HETATM   23  C   UNL     1     -42.103 -44.528  13.049  1.00  0.00     0.147 C 
BRANCH  23  24
HETATM   24  C   UNL     1     -41.999 -44.153  11.576  1.00  0.00     0.040 C 
HETATM   25  C   UNL     1     -41.867 -45.298  10.546  1.00  0.00     0.183 C 
HETATM   26  O   UNL     1     -40.679 -44.686   9.982  1.00  0.00    -0.389 OA
HETATM   27  C   UNL     1     -40.546 -43.844  11.155  1.00  0.00     0.183 C 
BRANCH  24  28
HETATM   28  C   UNL     1     -42.994 -43.093  11.115  1.00  0.00     0.179 C 
BRANCH  28  29
HETATM   29  O   UNL     1     -43.687 -43.565   9.965  1.00  0.00    -0.400 OA
HETATM   30  H   UNL     1     -44.198 -42.828   9.588  1.00  0.00     0.209 HD
ENDBRANCH  28  29
ENDBRANCH  24  28
ENDBRANCH  23  24
ENDBRANCH   3  23
TORSDOF 6
ENDMDL
MODEL 8
REMARK VINA RESULT:      -5.9      1.710      2.143
REMARK  6 active torsions:
REMARK  status: ('A' for Active; 'I' for Inactive)
REMARK    1  A    between atoms: N_2  and  C_3 
REMARK    2  A    between atoms: N_4  and  C_18 
REMARK    3  A    between atoms: C_9  and  C_26 
REMARK    4  A    between atoms: C_16  and  C_18 
REMARK    5  A    between atoms: C_16  and  C_25 
REMARK    6  A    between atoms: C_25  and  O_28 
ROOT
HETATM    1  C   UNL     1     -42.691 -50.723  12.900  1.00  0.00     0.122 A 
HETATM    2  C   UNL     1     -41.636 -50.305  12.043  1.00  0.00     0.136 A 
HETATM    3  N   UNL     1     -43.885 -52.217  13.963  1.00  0.00    -0.326 N 
HETATM    4  C   UNL     1     -42.878 -52.088  13.050  1.00  0.00     0.140 A 
HETATM    5  N   UNL     1     -43.609 -50.037  13.678  1.00  0.00    -0.346 N 
ATOM      6  HN  UNL     1     -43.706 -49.026  13.772  1.00  0.00     0.167 HD
HETATM    7  C   UNL     1     -44.328 -50.965  14.270  1.00  0.00     0.185 A 
HETATM    8  N   UNL     1     -40.954 -51.303  11.402  1.00  0.00    -0.337 N 
ATOM      9  HN  UNL     1     -40.205 -51.070  10.751  1.00  0.00     0.168 HD
HETATM   10  N   UNL     1     -42.205 -53.083  12.454  1.00  0.00    -0.336 N 
ATOM     11  HN  UNL     1     -42.380 -54.076  12.607  1.00  0.00     0.168 HD
HETATM   12  C   UNL     1     -41.269 -52.593  11.627  1.00  0.00     0.183 A 
ENDROOT
BRANCH   2  13
HETATM   13  N   UNL     1     -41.255 -48.982  11.813  1.00  0.00    -0.350 N 
HETATM   14  C   UNL     1     -40.033 -48.451  12.471  1.00  0.00     0.177 C 
HETATM   15  C   UNL     1     -39.968 -46.903  12.389  1.00  0.00     0.242 C 
HETATM   16  O   UNL     1     -39.391 -46.226  13.241  1.00  0.00    -0.271 OA
HETATM   17  N   UNL     1     -40.343 -46.388  11.144  1.00  0.00    -0.353 N 
HETATM   18  C   UNL     1     -41.559 -46.907  10.533  1.00  0.00     0.145 C 
HETATM   19  C   UNL     1     -39.804 -45.117  10.727  1.00  0.00     0.152 C 
HETATM   20  C   UNL     1     -41.574 -48.440  10.489  1.00  0.00     0.145 C 
BRANCH  14  21
HETATM   21  C   UNL     1     -38.714 -48.873  11.778  1.00  0.00     0.030 C 
HETATM   22  C   UNL     1     -37.794 -49.825  12.512  1.00  0.00     0.007 C 
ENDBRANCH  14  21
ENDBRANCH   2  13
BRANCH   3  23
HETATM   23  C   UNL     1     -44.401 -53.475  14.479  1.00  0.00     0.147 C 
BRANCH  23  24
HETATM   24  C   UNL     1     -43.710 -53.946  15.753  1.00  0.00     0.040 C 
HETATM   25  C   UNL     1     -42.336 -53.328  16.100  1.00  0.00     0.183 C 
HETATM   26  O   UNL     1     -41.747 -54.647  16.222  1.00  0.00    -0.389 OA
HETATM   27  C   UNL     1     -42.878 -55.226  15.525  1.00  0.00     0.183 C 
BRANCH  24  28
HETATM   28  C   UNL     1     -44.615 -54.030  16.977  1.00  0.00     0.179 C 
BRANCH  28  29
HETATM   29  O   UNL     1     -44.215 -55.131  17.785  1.00  0.00    -0.400 OA
HETATM   30  H   UNL     1     -44.767 -55.898  17.558  1.00  0.00     0.209 HD
ENDBRANCH  28  29
ENDBRANCH  24  28
ENDBRANCH  23  24
ENDBRANCH   3  23
TORSDOF 6
ENDMDL
MODEL 9
REMARK VINA RESULT:      -5.9      2.027      2.848
REMARK  6 active torsions:
REMARK  status: ('A' for Active; 'I' for Inactive)
REMARK    1  A    between atoms: N_2  and  C_3 
REMARK    2  A    between atoms: N_4  and  C_18 
REMARK    3  A    between atoms: C_9  and  C_26 
REMARK    4  A    between atoms: C_16  and  C_18 
REMARK    5  A    between atoms: C_16  and  C_25 
REMARK    6  A    between atoms: C_25  and  O_28 
ROOT
HETATM    1  C   UNL     1     -42.329 -50.336  12.495  1.00  0.00     0.122 A 
HETATM    2  C   UNL     1     -41.304 -49.379  12.263  1.00  0.00     0.136 A 
HETATM    3  N   UNL     1     -43.086 -52.349  12.896  1.00  0.00    -0.326 N 
HETATM    4  C   UNL     1     -41.942 -51.662  12.608  1.00  0.00     0.140 A 
HETATM    5  N   UNL     1     -43.700 -50.233  12.665  1.00  0.00    -0.346 N 
ATOM      6  HN  UNL     1     -44.264 -49.384  12.639  1.00  0.00     0.167 HD
HETATM    7  C   UNL     1     -44.120 -51.462  12.867  1.00  0.00     0.185 A 
HETATM    8  N   UNL     1     -40.040 -49.882  12.110  1.00  0.00    -0.337 N 
ATOM      9  HN  UNL     1     -39.263 -49.252  11.912  1.00  0.00     0.168 HD
HETATM   10  N   UNL     1     -40.708 -52.173  12.489  1.00  0.00    -0.336 N 
ATOM     11  HN  UNL     1     -40.477 -53.162  12.590  1.00  0.00     0.168 HD
HETATM   12  C   UNL     1     -39.819 -51.205  12.219  1.00  0.00     0.183 A 
ENDROOT
BRANCH   2  13
HETATM   13  N   UNL     1     -41.486 -47.998  12.181  1.00  0.00    -0.350 N 
HETATM   14  C   UNL     1     -41.721 -47.371  10.855  1.00  0.00     0.177 C 
HETATM   15  C   UNL     1     -41.546 -45.830  10.914  1.00  0.00     0.242 C 
HETATM   16  O   UNL     1     -41.188 -45.174   9.936  1.00  0.00    -0.271 OA
HETATM   17  N   UNL     1     -42.112 -45.241  12.049  1.00  0.00    -0.353 N 
HETATM   18  C   UNL     1     -41.844 -45.861  13.341  1.00  0.00     0.145 C 
HETATM   19  C   UNL     1     -42.544 -43.867  11.978  1.00  0.00     0.152 C 
HETATM   20  C   UNL     1     -42.141 -47.366  13.330  1.00  0.00     0.145 C 
BRANCH  14  21
HETATM   21  C   UNL     1     -43.175 -47.517  10.341  1.00  0.00     0.030 C 
HETATM   22  C   UNL     1     -43.406 -47.524   8.845  1.00  0.00     0.007 C 
ENDBRANCH  14  21
ENDBRANCH   2  13
BRANCH   3  23
HETATM   23  C   UNL     1     -43.170 -53.778  13.153  1.00  0.00     0.147 C 
BRANCH  23  24
HETATM   24  C   UNL     1     -43.747 -54.123  14.522  1.00  0.00     0.040 C 
HETATM   25  C   UNL     1     -43.326 -53.247  15.724  1.00  0.00     0.183 C 
HETATM   26  O   UNL     1     -42.915 -54.423  16.467  1.00  0.00    -0.389 OA
HETATM   27  C   UNL     1     -42.919 -55.205  15.246  1.00  0.00     0.183 C 
BRANCH  24  28
HETATM   28  C   UNL     1     -45.244 -54.408  14.530  1.00  0.00     0.179 C 
BRANCH  28  29
HETATM   29  O   UNL     1     -45.679 -54.687  13.204  1.00  0.00    -0.400 OA
HETATM   30  H   UNL     1     -45.515 -53.903  12.653  1.00  0.00     0.209 HD
ENDBRANCH  28  29
ENDBRANCH  24  28
ENDBRANCH  23  24
ENDBRANCH   3  23
TORSDOF 6
ENDMDL
