MODEL 1
REMARK VINA RESULT:      -6.0      0.000      0.000
REMARK  7 active torsions:
REMARK  status: ('A' for Active; 'I' for Inactive)
REMARK    1  A    between atoms: O_1  and  C_2 
REMARK    2  A    between atoms: C_2  and  C_3 
REMARK    3  A    between atoms: C_3  and  C_4 
REMARK    4  A    between atoms: N_13  and  C_14 
REMARK    5  A    between atoms: C_14  and  C_15 
REMARK    6  A    between atoms: C_15  and  O_16 
REMARK    7  A    between atoms: O_16  and  C_17 
ROOT
HETATM    1  C   UNL     1     -42.256 -52.578  12.814  1.00  0.00     0.086 A 
HETATM    2  N   UNL     1     -43.285 -53.035  12.127  1.00  0.00    -0.344 N 
ATOM      3  HN  UNL     1     -43.257 -53.644  11.310  1.00  0.00     0.167 HD
HETATM    4  C   UNL     1     -44.401 -52.524  12.737  1.00  0.00     0.060 A 
HETATM    5  C   UNL     1     -45.755 -52.712  12.411  1.00  0.00     0.032 A 
HETATM    6  C   UNL     1     -46.731 -52.098  13.207  1.00  0.00     0.002 A 
HETATM    7  C   UNL     1     -46.366 -51.317  14.303  1.00  0.00     0.002 A 
HETATM    8  C   UNL     1     -45.021 -51.119  14.642  1.00  0.00     0.032 A 
HETATM    9  C   UNL     1     -44.058 -51.740  13.834  1.00  0.00     0.062 A 
HETATM   10  N   UNL     1     -42.679 -51.776  13.856  1.00  0.00    -0.333 N 
ENDROOT
BRANCH  10  11
HETATM   11  C   UNL     1     -41.839 -51.125  14.845  1.00  0.00     0.157 C 
BRANCH  11  12
HETATM   12  C   UNL     1     -41.538 -49.679  14.466  1.00  0.00     0.196 C 
BRANCH  12  13
HETATM   13  O   UNL     1     -40.158 -49.391  14.717  1.00  0.00    -0.348 OA
BRANCH  13  14
HETATM   14  C   UNL     1     -39.267 -49.707  13.717  1.00  0.00     0.090 A 
HETATM   15  C   UNL     1     -39.262 -49.109  12.450  1.00  0.00     0.038 A 
HETATM   16  C   UNL     1     -38.329 -49.493  11.481  1.00  0.00     0.003 A 
HETATM   17  C   UNL     1     -37.388 -50.477  11.763  1.00  0.00     0.002 A 
HETATM   18  C   UNL     1     -37.375 -51.078  13.021  1.00  0.00     0.026 A 
HETATM   19  C   UNL     1     -38.307 -50.696  13.993  1.00  0.00     0.067 A 
HETATM   20 CL   UNL     1     -38.233 -51.479  15.532  1.00  0.00    -0.081 Cl
ENDBRANCH  13  14
ENDBRANCH  12  13
ENDBRANCH  11  12
ENDBRANCH  10  11
BRANCH   1  21
HETATM   21  C   UNL     1     -40.829 -52.927  12.526  1.00  0.00     0.102 C 
BRANCH  21  22
HETATM   22  C   UNL     1     -40.364 -54.153  13.303  1.00  0.00     0.171 C 
BRANCH  22  23
HETATM   23  O   UNL     1     -38.942 -54.240  13.304  1.00  0.00    -0.400 OA
HETATM   24  H   UNL     1     -38.684 -54.601  12.436  1.00  0.00     0.209 HD
ENDBRANCH  22  23
ENDBRANCH  21  22
ENDBRANCH   1  21
TORSDOF 7
ENDMDL
MODEL 2
REMARK VINA RESULT:      -5.9      3.472      6.303
REMARK  7 active torsions:
REMARK  status: ('A' for Active; 'I' for Inactive)
REMARK    1  A    between atoms: O_1  and  C_2 
REMARK    2  A    between atoms: C_2  and  C_3 
REMARK    3  A    between atoms: C_3  and  C_4 
REMARK    4  A    between atoms: N_13  and  C_14 
REMARK    5  A    between atoms: C_14  and  C_15 
REMARK    6  A    between atoms: C_15  and  O_16 
REMARK    7  A    between atoms: O_16  and  C_17 
ROOT
HETATM    1  C   UNL     1     -43.214 -54.317  13.896  1.00  0.00     0.086 A 
HETATM    2  N   UNL     1     -42.871 -55.131  14.875  1.00  0.00    -0.344 N 
ATOM      3  HN  UNL     1     -43.431 -55.886  15.272  1.00  0.00     0.167 HD
HETATM    4  C   UNL     1     -41.609 -54.755  15.251  1.00  0.00     0.060 A 
HETATM    5  C   UNL     1     -40.777 -55.305  16.243  1.00  0.00     0.032 A 
HETATM    6  C   UNL     1     -39.500 -54.760  16.430  1.00  0.00     0.002 A 
HETATM    7  C   UNL     1     -39.061 -53.693  15.646  1.00  0.00     0.002 A 
HETATM    8  C   UNL     1     -39.876 -53.133  14.654  1.00  0.00     0.032 A 
HETATM    9  C   UNL     1     -41.151 -53.691  14.481  1.00  0.00     0.062 A 
HETATM   10  N   UNL     1     -42.201 -53.417  13.629  1.00  0.00    -0.333 N 
ENDROOT
BRANCH  10  11
HETATM   11  C   UNL     1     -42.200 -52.393  12.600  1.00  0.00     0.157 C 
BRANCH  11  12
HETATM   12  C   UNL     1     -42.582 -51.028  13.161  1.00  0.00     0.196 C 
BRANCH  12  13
HETATM   13  O   UNL     1     -43.982 -50.800  12.969  1.00  0.00    -0.348 OA
BRANCH  13  14
HETATM   14  C   UNL     1     -44.788 -50.921  14.077  1.00  0.00     0.090 A 
HETATM   15  C   UNL     1     -44.362 -50.680  15.389  1.00  0.00     0.038 A 
HETATM   16  C   UNL     1     -45.239 -50.836  16.468  1.00  0.00     0.003 A 
HETATM   17  C   UNL     1     -46.555 -51.232  16.250  1.00  0.00     0.002 A 
HETATM   18  C   UNL     1     -46.997 -51.470  14.950  1.00  0.00     0.026 A 
HETATM   19  C   UNL     1     -46.122 -51.314  13.869  1.00  0.00     0.067 A 
HETATM   20 CL   UNL     1     -46.736 -51.621  12.283  1.00  0.00    -0.081 Cl
ENDBRANCH  13  14
ENDBRANCH  12  13
ENDBRANCH  11  12
ENDBRANCH  10  11
BRANCH   1  21
HETATM   21  C   UNL     1     -44.507 -54.398  13.146  1.00  0.00     0.102 C 
BRANCH  21  22
HETATM   22  C   UNL     1     -45.557 -55.215  13.890  1.00  0.00     0.171 C 
BRANCH  22  23
HETATM   23  O   UNL     1     -45.743 -54.714  15.211  1.00  0.00    -0.400 OA
HETATM   24  H   UNL     1     -46.679 -54.865  15.437  1.00  0.00     0.209 HD
ENDBRANCH  22  23
ENDBRANCH  21  22
ENDBRANCH   1  21
TORSDOF 7
ENDMDL
MODEL 3
REMARK VINA RESULT:      -5.9      2.587      6.504
REMARK  7 active torsions:
REMARK  status: ('A' for Active; 'I' for Inactive)
REMARK    1  A    between atoms: O_1  and  C_2 
REMARK    2  A    between atoms: C_2  and  C_3 
REMARK    3  A    between atoms: C_3  and  C_4 
REMARK    4  A    between atoms: N_13  and  C_14 
REMARK    5  A    between atoms: C_14  and  C_15 
REMARK    6  A    between atoms: C_15  and  O_16 
REMARK    7  A    between atoms: O_16  and  C_17 
ROOT
HETATM    1  C   UNL     1     -39.832 -53.062  13.836  1.00  0.00     0.086 A 
HETATM    2  N   UNL     1     -38.737 -52.482  14.286  1.00  0.00    -0.344 N 
ATOM      3  HN  UNL     1     -38.116 -52.827  15.019  1.00  0.00     0.167 HD
HETATM    4  C   UNL     1     -38.602 -51.323  13.569  1.00  0.00     0.060 A 
HETATM    5  C   UNL     1     -37.597 -50.343  13.645  1.00  0.00     0.032 A 
HETATM    6  C   UNL     1     -37.661 -49.243  12.781  1.00  0.00     0.002 A 
HETATM    7  C   UNL     1     -38.702 -49.122  11.860  1.00  0.00     0.002 A 
HETATM    8  C   UNL     1     -39.712 -50.089  11.771  1.00  0.00     0.032 A 
HETATM    9  C   UNL     1     -39.632 -51.183  12.644  1.00  0.00     0.062 A 
HETATM   10  N   UNL     1     -40.416 -52.300  12.842  1.00  0.00    -0.333 N 
ENDROOT
BRANCH  10  11
HETATM   11  C   UNL     1     -41.613 -52.629  12.088  1.00  0.00     0.157 C 
BRANCH  11  12
HETATM   12  C   UNL     1     -42.852 -51.961  12.674  1.00  0.00     0.196 C 
BRANCH  12  13
HETATM   13  O   UNL     1     -43.988 -52.815  12.504  1.00  0.00    -0.348 OA
BRANCH  13  14
HETATM   14  C   UNL     1     -45.034 -52.637  13.379  1.00  0.00     0.090 A 
HETATM   15  C   UNL     1     -45.742 -51.437  13.525  1.00  0.00     0.038 A 
HETATM   16  C   UNL     1     -46.789 -51.330  14.447  1.00  0.00     0.003 A 
HETATM   17  C   UNL     1     -47.144 -52.420  15.234  1.00  0.00     0.002 A 
HETATM   18  C   UNL     1     -46.454 -53.623  15.098  1.00  0.00     0.026 A 
HETATM   19  C   UNL     1     -45.407 -53.733  14.176  1.00  0.00     0.067 A 
HETATM   20 CL   UNL     1     -44.596 -55.255  14.055  1.00  0.00    -0.081 Cl
ENDBRANCH  13  14
ENDBRANCH  12  13
ENDBRANCH  11  12
ENDBRANCH  10  11
BRANCH   1  21
HETATM   21  C   UNL     1     -40.340 -54.389  14.307  1.00  0.00     0.102 C 
BRANCH  21  22
HETATM   22  C   UNL     1     -39.507 -54.954  15.452  1.00  0.00     0.171 C 
BRANCH  22  23
HETATM   23  O   UNL     1     -38.362 -55.640  14.952  1.00  0.00    -0.400 OA
HETATM   24  H   UNL     1     -37.735 -54.956  14.655  1.00  0.00     0.209 HD
ENDBRANCH  22  23
ENDBRANCH  21  22
ENDBRANCH   1  21
TORSDOF 7
ENDMDL
MODEL 4
REMARK VINA RESULT:      -5.9      3.274      6.106
REMARK  7 active torsions:
REMARK  status: ('A' for Active; 'I' for Inactive)
REMARK    1  A    between atoms: O_1  and  C_2 
REMARK    2  A    between atoms: C_2  and  C_3 
REMARK    3  A    between atoms: C_3  and  C_4 
REMARK    4  A    between atoms: N_13  and  C_14 
REMARK    5  A    between atoms: C_14  and  C_15 
REMARK    6  A    between atoms: C_15  and  O_16 
REMARK    7  A    between atoms: O_16  and  C_17 
ROOT
HETATM    1  C   UNL     1     -39.905 -54.084  15.643  1.00  0.00     0.086 A 
HETATM    2  N   UNL     1     -39.245 -53.192  14.930  1.00  0.00    -0.344 N 
ATOM      3  HN  UNL     1     -38.285 -52.878  15.073  1.00  0.00     0.167 HD
HETATM    4  C   UNL     1     -40.113 -52.773  13.956  1.00  0.00     0.060 A 
HETATM    5  C   UNL     1     -39.907 -51.840  12.925  1.00  0.00     0.032 A 
HETATM    6  C   UNL     1     -40.949 -51.592  12.022  1.00  0.00     0.002 A 
HETATM    7  C   UNL     1     -42.168 -52.258  12.144  1.00  0.00     0.002 A 
HETATM    8  C   UNL     1     -42.391 -53.191  13.165  1.00  0.00     0.032 A 
HETATM    9  C   UNL     1     -41.336 -53.427  14.059  1.00  0.00     0.062 A 
HETATM   10  N   UNL     1     -41.186 -54.250  15.155  1.00  0.00    -0.333 N 
ENDROOT
BRANCH  10  11
HETATM   11  C   UNL     1     -42.193 -55.168  15.659  1.00  0.00     0.157 C 
BRANCH  11  12
HETATM   12  C   UNL     1     -43.080 -54.511  16.711  1.00  0.00     0.196 C 
BRANCH  12  13
HETATM   13  O   UNL     1     -44.456 -54.653  16.340  1.00  0.00    -0.348 OA
BRANCH  13  14
HETATM   14  C   UNL     1     -45.034 -53.591  15.684  1.00  0.00     0.090 A 
HETATM   15  C   UNL     1     -45.045 -52.278  16.172  1.00  0.00     0.038 A 
HETATM   16  C   UNL     1     -45.665 -51.251  15.450  1.00  0.00     0.003 A 
HETATM   17  C   UNL     1     -46.279 -51.522  14.232  1.00  0.00     0.002 A 
HETATM   18  C   UNL     1     -46.271 -52.822  13.729  1.00  0.00     0.026 A 
HETATM   19  C   UNL     1     -45.651 -53.850  14.448  1.00  0.00     0.067 A 
HETATM   20 CL   UNL     1     -45.674 -55.439  13.766  1.00  0.00    -0.081 Cl
ENDBRANCH  13  14
ENDBRANCH  12  13
ENDBRANCH  11  12
ENDBRANCH  10  11
BRANCH   1  21
HETATM   21  C   UNL     1     -39.320 -54.843  16.793  1.00  0.00     0.102 C 
BRANCH  21  22
HETATM   22  C   UNL     1     -38.175 -55.752  16.364  1.00  0.00     0.171 C 
BRANCH  22  23
HETATM   23  O   UNL     1     -38.156 -55.906  14.947  1.00  0.00    -0.400 OA
HETATM   24  H   UNL     1     -38.535 -55.090  14.573  1.00  0.00     0.209 HD
ENDBRANCH  22  23
ENDBRANCH  21  22
ENDBRANCH   1  21
TORSDOF 7
ENDMDL
MODEL 5
REMARK VINA RESULT:      -5.9      1.938      3.276
REMARK  7 active torsions:
REMARK  status: ('A' for Active; 'I' for Inactive)
REMARK    1  A    between atoms: O_1  and  C_2 
REMARK    2  A    between atoms: C_2  and  C_3 
REMARK    3  A    between atoms: C_3  and  C_4 
REMARK    4  A    between atoms: N_13  and  C_14 
REMARK    5  A    between atoms: C_14  and  C_15 
REMARK    6  A    between atoms: C_15  and  O_16 
REMARK    7  A    between atoms: O_16  and  C_17 
ROOT
HETATM    1  C   UNL     1     -42.302 -50.545  12.685  1.00  0.00     0.086 A 
HETATM    2  N   UNL     1     -43.518 -50.165  13.025  1.00  0.00    -0.344 N 
ATOM      3  HN  UNL     1     -43.842 -49.212  13.185  1.00  0.00     0.167 HD
HETATM    4  C   UNL     1     -44.258 -51.314  13.120  1.00  0.00     0.060 A 
HETATM    5  C   UNL     1     -45.618 -51.471  13.440  1.00  0.00     0.032 A 
HETATM    6  C   UNL     1     -46.164 -52.761  13.449  1.00  0.00     0.002 A 
HETATM    7  C   UNL     1     -45.374 -53.869  13.146  1.00  0.00     0.002 A 
HETATM    8  C   UNL     1     -44.017 -53.732  12.826  1.00  0.00     0.032 A 
HETATM    9  C   UNL     1     -43.488 -52.433  12.821  1.00  0.00     0.062 A 
HETATM   10  N   UNL     1     -42.235 -51.920  12.560  1.00  0.00    -0.333 N 
ENDROOT
BRANCH  10  11
HETATM   11  C   UNL     1     -41.074 -52.698  12.168  1.00  0.00     0.157 C 
BRANCH  11  12
HETATM   12  C   UNL     1     -40.334 -53.259  13.378  1.00  0.00     0.196 C 
BRANCH  12  13
HETATM   13  O   UNL     1     -38.970 -52.825  13.355  1.00  0.00    -0.348 OA
BRANCH  13  14
HETATM   14  C   UNL     1     -38.647 -51.751  14.152  1.00  0.00     0.090 A 
HETATM   15  C   UNL     1     -39.040 -51.619  15.490  1.00  0.00     0.038 A 
HETATM   16  C   UNL     1     -38.682 -50.489  16.234  1.00  0.00     0.003 A 
HETATM   17  C   UNL     1     -37.925 -49.478  15.652  1.00  0.00     0.002 A 
HETATM   18  C   UNL     1     -37.520 -49.596  14.324  1.00  0.00     0.026 A 
HETATM   19  C   UNL     1     -37.877 -50.726  13.577  1.00  0.00     0.067 A 
HETATM   20 CL   UNL     1     -37.339 -50.811  11.937  1.00  0.00    -0.081 Cl
ENDBRANCH  13  14
ENDBRANCH  12  13
ENDBRANCH  11  12
ENDBRANCH  10  11
BRANCH   1  21
HETATM   21  C   UNL     1     -41.167 -49.605  12.423  1.00  0.00     0.102 C 
BRANCH  21  22
HETATM   22  C   UNL     1     -41.191 -49.050  11.003  1.00  0.00     0.171 C 
BRANCH  22  23
HETATM   23  O   UNL     1     -40.475 -49.904  10.115  1.00  0.00    -0.400 OA
HETATM   24  H   UNL     1     -39.885 -50.448  10.667  1.00  0.00     0.209 HD
ENDBRANCH  22  23
ENDBRANCH  21  22
ENDBRANCH   1  21
TORSDOF 7
ENDMDL
MODEL 6
REMARK VINA RESULT:      -5.8      3.130      5.691
REMARK  7 active torsions:
REMARK  status: ('A' for Active; 'I' for Inactive)
REMARK    1  A    between atoms: O_1  and  C_2 
REMARK    2  A    between atoms: C_2  and  C_3 
REMARK    3  A    between atoms: C_3  and  C_4 
REMARK    4  A    between atoms: N_13  and  C_14 
REMARK    5  A    between atoms: C_14  and  C_15 
REMARK    6  A    between atoms: C_15  and  O_16 
REMARK    7  A    between atoms: O_16  and  C_17 
ROOT
HETATM    1  C   UNL     1     -39.412 -48.780  12.131  1.00  0.00     0.086 A 
HETATM    2  N   UNL     1     -39.475 -47.669  11.423  1.00  0.00    -0.344 N 
ATOM      3  HN  UNL     1     -38.694 -47.083  11.128  1.00  0.00     0.167 HD
HETATM    4  C   UNL     1     -40.804 -47.463  11.164  1.00  0.00     0.060 A 
HETATM    5  C   UNL     1     -41.417 -46.429  10.435  1.00  0.00     0.032 A 
HETATM    6  C   UNL     1     -42.809 -46.445  10.283  1.00  0.00     0.002 A 
HETATM    7  C   UNL     1     -43.574 -47.469  10.842  1.00  0.00     0.002 A 
HETATM    8  C   UNL     1     -42.980 -48.507  11.571  1.00  0.00     0.032 A 
HETATM    9  C   UNL     1     -41.585 -48.475  11.714  1.00  0.00     0.062 A 
HETATM   10  N   UNL     1     -40.675 -49.299  12.342  1.00  0.00    -0.333 N 
ENDROOT
BRANCH  10  11
HETATM   11  C   UNL     1     -41.001 -50.526  13.047  1.00  0.00     0.157 C 
BRANCH  11  12
HETATM   12  C   UNL     1     -41.128 -51.709  12.093  1.00  0.00     0.196 C 
BRANCH  12  13
HETATM   13  O   UNL     1     -40.998 -52.934  12.822  1.00  0.00    -0.348 OA
BRANCH  13  14
HETATM   14  C   UNL     1     -42.165 -53.541  13.227  1.00  0.00     0.090 A 
HETATM   15  C   UNL     1     -43.400 -53.375  12.588  1.00  0.00     0.038 A 
HETATM   16  C   UNL     1     -44.547 -54.017  13.067  1.00  0.00     0.003 A 
HETATM   17  C   UNL     1     -44.475 -54.836  14.189  1.00  0.00     0.002 A 
HETATM   18  C   UNL     1     -43.252 -55.017  14.833  1.00  0.00     0.026 A 
HETATM   19  C   UNL     1     -42.103 -54.376  14.356  1.00  0.00     0.067 A 
HETATM   20 CL   UNL     1     -40.619 -54.647  15.199  1.00  0.00    -0.081 Cl
ENDBRANCH  13  14
ENDBRANCH  12  13
ENDBRANCH  11  12
ENDBRANCH  10  11
BRANCH   1  21
HETATM   21  C   UNL     1     -38.138 -49.412  12.597  1.00  0.00     0.102 C 
BRANCH  21  22
HETATM   22  C   UNL     1     -37.589 -50.418  11.592  1.00  0.00     0.171 C 
BRANCH  22  23
HETATM   23  O   UNL     1     -37.631 -49.885  10.271  1.00  0.00    -0.400 OA
HETATM   24  H   UNL     1     -38.527 -50.055   9.930  1.00  0.00     0.209 HD
ENDBRANCH  22  23
ENDBRANCH  21  22
ENDBRANCH   1  21
TORSDOF 7
ENDMDL
MODEL 7
REMARK VINA RESULT:      -5.8      1.502      1.817
REMARK  7 active torsions:
REMARK  status: ('A' for Active; 'I' for Inactive)
REMARK    1  A    between atoms: O_1  and  C_2 
REMARK    2  A    between atoms: C_2  and  C_3 
REMARK    3  A    between atoms: C_3  and  C_4 
REMARK    4  A    between atoms: N_13  and  C_14 
REMARK    5  A    between atoms: C_14  and  C_15 
REMARK    6  A    between atoms: C_15  and  O_16 
REMARK    7  A    between atoms: O_16  and  C_17 
ROOT
HETATM    1  C   UNL     1     -42.357 -53.150  12.960  1.00  0.00     0.086 A 
HETATM    2  N   UNL     1     -43.267 -54.076  13.195  1.00  0.00    -0.344 N 
ATOM      3  HN  UNL     1     -43.141 -55.087  13.148  1.00  0.00     0.167 HD
HETATM    4  C   UNL     1     -44.416 -53.402  13.515  1.00  0.00     0.060 A 
HETATM    5  C   UNL     1     -45.678 -53.914  13.865  1.00  0.00     0.032 A 
HETATM    6  C   UNL     1     -46.705 -53.016  14.179  1.00  0.00     0.002 A 
HETATM    7  C   UNL     1     -46.482 -51.640  14.148  1.00  0.00     0.002 A 
HETATM    8  C   UNL     1     -45.231 -51.113  13.801  1.00  0.00     0.032 A 
HETATM    9  C   UNL     1     -44.214 -52.026  13.490  1.00  0.00     0.062 A 
HETATM   10  N   UNL     1     -42.893 -51.886  13.117  1.00  0.00    -0.333 N 
ENDROOT
BRANCH  10  11
HETATM   11  C   UNL     1     -42.190 -50.624  12.976  1.00  0.00     0.157 C 
BRANCH  11  12
HETATM   12  C   UNL     1     -41.546 -50.187  14.287  1.00  0.00     0.196 C 
BRANCH  12  13
HETATM   13  O   UNL     1     -40.488 -49.259  14.021  1.00  0.00    -0.348 OA
BRANCH  13  14
HETATM   14  C   UNL     1     -39.395 -49.745  13.342  1.00  0.00     0.090 A 
HETATM   15  C   UNL     1     -38.604 -50.813  13.786  1.00  0.00     0.038 A 
HETATM   16  C   UNL     1     -37.498 -51.242  13.045  1.00  0.00     0.003 A 
HETATM   17  C   UNL     1     -37.169 -50.613  11.849  1.00  0.00     0.002 A 
HETATM   18  C   UNL     1     -37.948 -49.553  11.389  1.00  0.00     0.026 A 
HETATM   19  C   UNL     1     -39.055 -49.122  12.129  1.00  0.00     0.067 A 
HETATM   20 CL   UNL     1     -39.982 -47.804  11.500  1.00  0.00    -0.081 Cl
ENDBRANCH  13  14
ENDBRANCH  12  13
ENDBRANCH  11  12
ENDBRANCH  10  11
BRANCH   1  21
HETATM   21  C   UNL     1     -40.929 -53.439  12.619  1.00  0.00     0.102 C 
BRANCH  21  22
HETATM   22  C   UNL     1     -40.195 -54.148  13.751  1.00  0.00     0.171 C 
BRANCH  22  23
HETATM   23  O   UNL     1     -38.923 -54.617  13.312  1.00  0.00    -0.400 OA
HETATM   24  H   UNL     1     -38.266 -54.278  13.946  1.00  0.00     0.209 HD
ENDBRANCH  22  23
ENDBRANCH  21  22
ENDBRANCH   1  21
TORSDOF 7
ENDMDL
MODEL 8
REMARK VINA RESULT:      -5.7      3.049      5.614
REMARK  7 active torsions:
REMARK  status: ('A' for Active; 'I' for Inactive)
REMARK    1  A    between atoms: O_1  and  C_2 
REMARK    2  A    between atoms: C_2  and  C_3 
REMARK    3  A    between atoms: C_3  and  C_4 
REMARK    4  A    between atoms: N_13  and  C_14 
REMARK    5  A    between atoms: C_14  and  C_15 
REMARK    6  A    between atoms: C_15  and  O_16 
REMARK    7  A    between atoms: O_16  and  C_17 
ROOT
HETATM    1  C   UNL     1     -40.631 -53.264  13.593  1.00  0.00     0.086 A 
HETATM    2  N   UNL     1     -40.295 -52.361  12.692  1.00  0.00    -0.344 N 
ATOM      3  HN  UNL     1     -39.511 -52.405  12.040  1.00  0.00     0.167 HD
HETATM    4  C   UNL     1     -41.214 -51.352  12.809  1.00  0.00     0.060 A 
HETATM    5  C   UNL     1     -41.320 -50.158  12.076  1.00  0.00     0.032 A 
HETATM    6  C   UNL     1     -42.373 -49.281  12.364  1.00  0.00     0.002 A 
HETATM    7  C   UNL     1     -43.300 -49.587  13.360  1.00  0.00     0.002 A 
HETATM    8  C   UNL     1     -43.210 -50.772  14.101  1.00  0.00     0.032 A 
HETATM    9  C   UNL     1     -42.149 -51.638  13.799  1.00  0.00     0.062 A 
HETATM   10  N   UNL     1     -41.748 -52.860  14.298  1.00  0.00    -0.333 N 
ENDROOT
BRANCH  10  11
HETATM   11  C   UNL     1     -42.429 -53.603  15.343  1.00  0.00     0.157 C 
BRANCH  11  12
HETATM   12  C   UNL     1     -43.217 -54.780  14.778  1.00  0.00     0.196 C 
BRANCH  12  13
HETATM   13  O   UNL     1     -44.599 -54.648  15.126  1.00  0.00    -0.348 OA
BRANCH  13  14
HETATM   14  C   UNL     1     -45.308 -53.656  14.488  1.00  0.00     0.090 A 
HETATM   15  C   UNL     1     -45.369 -53.505  13.097  1.00  0.00     0.038 A 
HETATM   16  C   UNL     1     -46.103 -52.462  12.522  1.00  0.00     0.003 A 
HETATM   17  C   UNL     1     -46.787 -51.558  13.327  1.00  0.00     0.002 A 
HETATM   18  C   UNL     1     -46.742 -51.698  14.713  1.00  0.00     0.026 A 
HETATM   19  C   UNL     1     -46.009 -52.741  15.292  1.00  0.00     0.067 A 
HETATM   20 CL   UNL     1     -45.998 -52.859  17.016  1.00  0.00    -0.081 Cl
ENDBRANCH  13  14
ENDBRANCH  12  13
ENDBRANCH  11  12
ENDBRANCH  10  11
BRANCH   1  21
HETATM   21  C   UNL     1     -39.922 -54.568  13.786  1.00  0.00     0.102 C 
BRANCH  21  22
HETATM   22  C   UNL     1     -38.961 -54.535  14.969  1.00  0.00     0.171 C 
BRANCH  22  23
HETATM   23  O   UNL     1     -38.232 -55.756  15.060  1.00  0.00    -0.400 OA
HETATM   24  H   UNL     1     -38.877 -56.476  14.938  1.00  0.00     0.209 HD
ENDBRANCH  22  23
ENDBRANCH  21  22
ENDBRANCH   1  21
TORSDOF 7
ENDMDL
MODEL 9
REMARK VINA RESULT:      -5.7      2.843      6.280
REMARK  7 active torsions:
REMARK  status: ('A' for Active; 'I' for Inactive)
REMARK    1  A    between atoms: O_1  and  C_2 
REMARK    2  A    between atoms: C_2  and  C_3 
REMARK    3  A    between atoms: C_3  and  C_4 
REMARK    4  A    between atoms: N_13  and  C_14 
REMARK    5  A    between atoms: C_14  and  C_15 
REMARK    6  A    between atoms: C_15  and  O_16 
REMARK    7  A    between atoms: O_16  and  C_17 
ROOT
HETATM    1  C   UNL     1     -39.378 -51.650  13.237  1.00  0.00     0.086 A 
HETATM    2  N   UNL     1     -38.669 -51.868  14.327  1.00  0.00    -0.344 N 
ATOM      3  HN  UNL     1     -37.838 -51.361  14.632  1.00  0.00     0.167 HD
HETATM    4  C   UNL     1     -39.277 -52.915  14.968  1.00  0.00     0.060 A 
HETATM    5  C   UNL     1     -38.931 -53.535  16.182  1.00  0.00     0.032 A 
HETATM    6  C   UNL     1     -39.730 -54.584  16.654  1.00  0.00     0.002 A 
HETATM    7  C   UNL     1     -40.847 -55.006  15.935  1.00  0.00     0.002 A 
HETATM    8  C   UNL     1     -41.207 -54.400  14.724  1.00  0.00     0.032 A 
HETATM    9  C   UNL     1     -40.396 -53.351  14.266  1.00  0.00     0.062 A 
HETATM   10  N   UNL     1     -40.434 -52.538  13.153  1.00  0.00    -0.333 N 
ENDROOT
BRANCH  10  11
HETATM   11  C   UNL     1     -41.447 -52.583  12.115  1.00  0.00     0.157 C 
BRANCH  11  12
HETATM   12  C   UNL     1     -42.750 -51.934  12.569  1.00  0.00     0.196 C 
BRANCH  12  13
HETATM   13  O   UNL     1     -43.813 -52.892  12.515  1.00  0.00    -0.348 OA
BRANCH  13  14
HETATM   14  C   UNL     1     -44.888 -52.673  13.344  1.00  0.00     0.090 A 
HETATM   15  C   UNL     1     -45.584 -51.459  13.425  1.00  0.00     0.038 A 
HETATM   16  C   UNL     1     -46.662 -51.310  14.303  1.00  0.00     0.003 A 
HETATM   17  C   UNL     1     -47.063 -52.370  15.110  1.00  0.00     0.002 A 
HETATM   18  C   UNL     1     -46.386 -53.586  15.037  1.00  0.00     0.026 A 
HETATM   19  C   UNL     1     -45.306 -53.739  14.159  1.00  0.00     0.067 A 
HETATM   20 CL   UNL     1     -44.514 -55.274  14.116  1.00  0.00    -0.081 Cl
ENDBRANCH  13  14
ENDBRANCH  12  13
ENDBRANCH  11  12
ENDBRANCH  10  11
BRANCH   1  21
HETATM   21  C   UNL     1     -39.100 -50.556  12.254  1.00  0.00     0.102 C 
BRANCH  21  22
HETATM   22  C   UNL     1     -37.613 -50.415  11.951  1.00  0.00     0.171 C 
BRANCH  22  23
HETATM   23  O   UNL     1     -37.005 -51.696  11.802  1.00  0.00    -0.400 OA
HETATM   24  H   UNL     1     -37.689 -52.355  12.015  1.00  0.00     0.209 HD
ENDBRANCH  22  23
ENDBRANCH  21  22
ENDBRANCH   1  21
TORSDOF 7
ENDMDL
