MODEL 1
REMARK VINA RESULT:      -5.0      0.000      0.000
REMARK  5 active torsions:
REMARK  status: ('A' for Active; 'I' for Inactive)
REMARK    1  A    between atoms: C_2  and  C_3 
REMARK    2  A    between atoms: C_6  and  C_7 
REMARK    3  A    between atoms: C_7  and  C_8 
REMARK    4  A    between atoms: C_8  and  N_9 
REMARK       I    between atoms: N_9  and  C_10 
REMARK    5  A    between atoms: C_10  and  C_12 
ROOT
HETATM    1  C   UNL     1     -43.204 -51.449  13.146  1.00  0.00     0.022 A 
HETATM    2  N   UNL     1     -42.555 -50.413  12.494  1.00  0.00    -0.356 N 
ATOM      3  HN  UNL     1     -42.898 -49.454  12.442  1.00  0.00     0.166 HD
HETATM    4  C   UNL     1     -41.435 -50.840  11.953  1.00  0.00     0.053 A 
HETATM    5  S   UNL     1     -41.118 -52.516  12.158  1.00  0.00    -0.080 SA
HETATM    6  C   UNL     1     -42.570 -52.678  13.057  1.00  0.00     0.003 A 
HETATM    7  C   UNL     1     -42.980 -53.993  13.618  1.00  0.00     0.058 C 
ENDROOT
BRANCH   4   8
HETATM    8  C   UNL     1     -40.465 -49.982  11.199  1.00  0.00     0.084 C 
BRANCH   8   9
HETATM    9  C   UNL     1     -40.744 -48.493  11.409  1.00  0.00     0.129 C 
BRANCH   9  10
HETATM   10  N   UNL     1     -41.399 -47.883  10.264  1.00  0.00    -0.360 N 
HETATM   11  C   UNL     1     -42.757 -47.682  10.239  1.00  0.00     0.221 C 
HETATM   12  O   UNL     1     -43.512 -47.960  11.159  1.00  0.00    -0.273 OA
HETATM   13  H   UNL     1     -40.832 -47.576   9.486  1.00  0.00     0.162 HD
BRANCH  11  14
HETATM   14  C   UNL     1     -43.261 -47.055   8.985  1.00  0.00     0.078 A 
HETATM   15  C   UNL     1     -44.694 -47.285   8.563  1.00  0.00     0.015 A 
HETATM   16  C   UNL     1     -43.576 -47.906   7.776  1.00  0.00     0.015 A 
ENDBRANCH  11  14
ENDBRANCH   9  10
ENDBRANCH   8   9
ENDBRANCH   4   8
BRANCH   1  17
HETATM   17  C   UNL     1     -44.481 -51.136  13.858  1.00  0.00     0.054 C 
HETATM   18  C   UNL     1     -45.703 -51.462  13.016  1.00  0.00     0.011 C 
ENDBRANCH   1  17
TORSDOF 5
ENDMDL
MODEL 2
REMARK VINA RESULT:      -5.0      1.270      1.635
REMARK  5 active torsions:
REMARK  status: ('A' for Active; 'I' for Inactive)
REMARK    1  A    between atoms: C_2  and  C_3 
REMARK    2  A    between atoms: C_6  and  C_7 
REMARK    3  A    between atoms: C_7  and  C_8 
REMARK    4  A    between atoms: C_8  and  N_9 
REMARK       I    between atoms: N_9  and  C_10 
REMARK    5  A    between atoms: C_10  and  C_12 
ROOT
HETATM    1  C   UNL     1     -44.828 -52.467  13.076  1.00  0.00     0.022 A 
HETATM    2  N   UNL     1     -44.000 -51.468  12.593  1.00  0.00    -0.356 N 
ATOM      3  HN  UNL     1     -44.321 -50.563  12.247  1.00  0.00     0.166 HD
HETATM    4  C   UNL     1     -42.742 -51.848  12.641  1.00  0.00     0.053 A 
HETATM    5  S   UNL     1     -42.485 -53.442  13.228  1.00  0.00    -0.080 SA
HETATM    6  C   UNL     1     -44.174 -53.627  13.459  1.00  0.00     0.003 A 
HETATM    7  C   UNL     1     -44.738 -54.891  14.005  1.00  0.00     0.058 C 
ENDROOT
BRANCH   4   8
HETATM    8  C   UNL     1     -41.574 -51.005  12.227  1.00  0.00     0.084 C 
BRANCH   8   9
HETATM    9  C   UNL     1     -41.916 -49.515  12.245  1.00  0.00     0.129 C 
BRANCH   9  10
HETATM   10  N   UNL     1     -42.134 -48.979  10.912  1.00  0.00    -0.360 N 
HETATM   11  C   UNL     1     -42.857 -47.829  10.713  1.00  0.00     0.221 C 
HETATM   12  O   UNL     1     -43.342 -47.155  11.610  1.00  0.00    -0.273 OA
HETATM   13  H   UNL     1     -41.717 -49.452  10.123  1.00  0.00     0.162 HD
BRANCH  11  14
HETATM   14  C   UNL     1     -42.990 -47.428   9.283  1.00  0.00     0.078 A 
HETATM   15  C   UNL     1     -43.805 -46.207   8.928  1.00  0.00     0.015 A 
HETATM   16  C   UNL     1     -44.313 -47.573   8.567  1.00  0.00     0.015 A 
ENDBRANCH  11  14
ENDBRANCH   9  10
ENDBRANCH   8   9
ENDBRANCH   4   8
BRANCH   1  17
HETATM   17  C   UNL     1     -46.296 -52.192  13.134  1.00  0.00     0.054 C 
HETATM   18  C   UNL     1     -46.681 -51.378  14.359  1.00  0.00     0.011 C 
ENDBRANCH   1  17
TORSDOF 5
ENDMDL
MODEL 3
REMARK VINA RESULT:      -4.9      3.282      4.452
REMARK  5 active torsions:
REMARK  status: ('A' for Active; 'I' for Inactive)
REMARK    1  A    between atoms: C_2  and  C_3 
REMARK    2  A    between atoms: C_6  and  C_7 
REMARK    3  A    between atoms: C_7  and  C_8 
REMARK    4  A    between atoms: C_8  and  N_9 
REMARK       I    between atoms: N_9  and  C_10 
REMARK    5  A    between atoms: C_10  and  C_12 
ROOT
HETATM    1  C   UNL     1     -45.350 -52.524  13.268  1.00  0.00     0.022 A 
HETATM    2  N   UNL     1     -44.106 -52.197  12.754  1.00  0.00    -0.356 N 
ATOM      3  HN  UNL     1     -43.919 -51.397  12.149  1.00  0.00     0.166 HD
HETATM    4  C   UNL     1     -43.201 -53.061  13.156  1.00  0.00     0.053 A 
HETATM    5  S   UNL     1     -43.797 -54.339  14.137  1.00  0.00    -0.080 SA
HETATM    6  C   UNL     1     -45.375 -53.675  14.038  1.00  0.00     0.003 A 
HETATM    7  C   UNL     1     -46.522 -54.323  14.728  1.00  0.00     0.058 C 
ENDROOT
BRANCH   4   8
HETATM    8  C   UNL     1     -41.742 -52.996  12.817  1.00  0.00     0.084 C 
BRANCH   8   9
HETATM    9  C   UNL     1     -41.454 -51.935  11.754  1.00  0.00     0.129 C 
BRANCH   9  10
HETATM   10  N   UNL     1     -40.094 -51.430  11.827  1.00  0.00    -0.360 N 
HETATM   11  C   UNL     1     -39.798 -50.124  11.522  1.00  0.00     0.221 C 
HETATM   12  O   UNL     1     -40.628 -49.285  11.201  1.00  0.00    -0.273 OA
HETATM   13  H   UNL     1     -39.360 -52.050  12.139  1.00  0.00     0.162 HD
BRANCH  11  14
HETATM   14  C   UNL     1     -38.353 -49.778  11.641  1.00  0.00     0.078 A 
HETATM   15  C   UNL     1     -37.446 -50.659  12.468  1.00  0.00     0.015 A 
HETATM   16  C   UNL     1     -37.791 -49.281  12.953  1.00  0.00     0.015 A 
ENDBRANCH  11  14
ENDBRANCH   9  10
ENDBRANCH   8   9
ENDBRANCH   4   8
BRANCH   1  17
HETATM   17  C   UNL     1     -46.498 -51.622  12.946  1.00  0.00     0.054 C 
HETATM   18  C   UNL     1     -47.005 -51.820  11.527  1.00  0.00     0.011 C 
ENDBRANCH   1  17
TORSDOF 5
ENDMDL
MODEL 4
REMARK VINA RESULT:      -4.8      1.879      2.318
REMARK  5 active torsions:
REMARK  status: ('A' for Active; 'I' for Inactive)
REMARK    1  A    between atoms: C_2  and  C_3 
REMARK    2  A    between atoms: C_6  and  C_7 
REMARK    3  A    between atoms: C_7  and  C_8 
REMARK    4  A    between atoms: C_8  and  N_9 
REMARK       I    between atoms: N_9  and  C_10 
REMARK    5  A    between atoms: C_10  and  C_12 
ROOT
HETATM    1  C   UNL     1     -42.949 -51.705  12.923  1.00  0.00     0.022 A 
HETATM    2  N   UNL     1     -43.439 -50.412  12.836  1.00  0.00    -0.356 N 
ATOM      3  HN  UNL     1     -44.379 -50.127  13.109  1.00  0.00     0.166 HD
HETATM    4  C   UNL     1     -42.522 -49.605  12.351  1.00  0.00     0.053 A 
HETATM    5  S   UNL     1     -41.035 -50.357  11.932  1.00  0.00    -0.080 SA
HETATM    6  C   UNL     1     -41.653 -51.867  12.461  1.00  0.00     0.003 A 
HETATM    7  C   UNL     1     -40.824 -53.100  12.393  1.00  0.00     0.058 C 
ENDROOT
BRANCH   4   8
HETATM    8  C   UNL     1     -42.696 -48.130  12.150  1.00  0.00     0.084 C 
BRANCH   8   9
HETATM    9  C   UNL     1     -42.808 -47.770  10.668  1.00  0.00     0.129 C 
BRANCH   9  10
HETATM   10  N   UNL     1     -44.175 -47.836  10.181  1.00  0.00    -0.360 N 
HETATM   11  C   UNL     1     -44.480 -47.587   8.866  1.00  0.00     0.221 C 
HETATM   12  O   UNL     1     -43.653 -47.325   8.004  1.00  0.00    -0.273 OA
HETATM   13  H   UNL     1     -44.908 -48.102  10.824  1.00  0.00     0.162 HD
BRANCH  11  14
HETATM   14  C   UNL     1     -45.931 -47.690   8.542  1.00  0.00     0.078 A 
HETATM   15  C   UNL     1     -46.792 -48.674   9.299  1.00  0.00     0.015 A 
HETATM   16  C   UNL     1     -46.476 -48.919   7.852  1.00  0.00     0.015 A 
ENDBRANCH  11  14
ENDBRANCH   9  10
ENDBRANCH   8   9
ENDBRANCH   4   8
BRANCH   1  17
HETATM   17  C   UNL     1     -43.847 -52.755  13.495  1.00  0.00     0.054 C 
HETATM   18  C   UNL     1     -44.946 -53.162  12.528  1.00  0.00     0.011 C 
ENDBRANCH   1  17
TORSDOF 5
ENDMDL
MODEL 5
REMARK VINA RESULT:      -4.7      3.504      6.137
REMARK  5 active torsions:
REMARK  status: ('A' for Active; 'I' for Inactive)
REMARK    1  A    between atoms: C_2  and  C_3 
REMARK    2  A    between atoms: C_6  and  C_7 
REMARK    3  A    between atoms: C_7  and  C_8 
REMARK    4  A    between atoms: C_8  and  N_9 
REMARK       I    between atoms: N_9  and  C_10 
REMARK    5  A    between atoms: C_10  and  C_12 
ROOT
HETATM    1  C   UNL     1     -39.297 -50.239  12.133  1.00  0.00     0.022 A 
HETATM    2  N   UNL     1     -39.921 -51.474  12.072  1.00  0.00    -0.356 N 
ATOM      3  HN  UNL     1     -39.434 -52.371  12.043  1.00  0.00     0.166 HD
HETATM    4  C   UNL     1     -41.227 -51.330  12.057  1.00  0.00     0.053 A 
HETATM    5  S   UNL     1     -41.782 -49.705  12.072  1.00  0.00    -0.080 SA
HETATM    6  C   UNL     1     -40.159 -49.154  12.127  1.00  0.00     0.003 A 
HETATM    7  C   UNL     1     -39.844 -47.701  12.170  1.00  0.00     0.058 C 
ENDROOT
BRANCH   4   8
HETATM    8  C   UNL     1     -42.215 -52.458  12.027  1.00  0.00     0.084 C 
BRANCH   8   9
HETATM    9  C   UNL     1     -42.697 -52.825  13.431  1.00  0.00     0.129 C 
BRANCH   9  10
HETATM   10  N   UNL     1     -44.068 -52.410  13.673  1.00  0.00    -0.360 N 
HETATM   11  C   UNL     1     -45.131 -53.187  13.283  1.00  0.00     0.221 C 
HETATM   12  O   UNL     1     -45.025 -54.278  12.740  1.00  0.00    -0.273 OA
HETATM   13  H   UNL     1     -44.235 -51.545  14.168  1.00  0.00     0.162 HD
BRANCH  11  14
HETATM   14  C   UNL     1     -46.466 -52.606  13.602  1.00  0.00     0.078 A 
HETATM   15  C   UNL     1     -46.548 -51.355  14.445  1.00  0.00     0.015 A 
HETATM   16  C   UNL     1     -47.010 -52.667  15.010  1.00  0.00     0.015 A 
ENDBRANCH  11  14
ENDBRANCH   9  10
ENDBRANCH   8   9
ENDBRANCH   4   8
BRANCH   1  17
HETATM   17  C   UNL     1     -37.804 -50.212  12.198  1.00  0.00     0.054 C 
HETATM   18  C   UNL     1     -37.173 -49.941  10.843  1.00  0.00     0.011 C 
ENDBRANCH   1  17
TORSDOF 5
ENDMDL
MODEL 6
REMARK VINA RESULT:      -4.7      3.943      5.007
REMARK  5 active torsions:
REMARK  status: ('A' for Active; 'I' for Inactive)
REMARK    1  A    between atoms: C_2  and  C_3 
REMARK    2  A    between atoms: C_6  and  C_7 
REMARK    3  A    between atoms: C_7  and  C_8 
REMARK    4  A    between atoms: C_8  and  N_9 
REMARK       I    between atoms: N_9  and  C_10 
REMARK    5  A    between atoms: C_10  and  C_12 
ROOT
HETATM    1  C   UNL     1     -44.898 -52.568  12.957  1.00  0.00     0.022 A 
HETATM    2  N   UNL     1     -43.890 -51.722  12.525  1.00  0.00    -0.356 N 
ATOM      3  HN  UNL     1     -44.035 -50.770  12.187  1.00  0.00     0.166 HD
HETATM    4  C   UNL     1     -42.721 -52.317  12.613  1.00  0.00     0.053 A 
HETATM    5  S   UNL     1     -42.769 -53.939  13.177  1.00  0.00    -0.080 SA
HETATM    6  C   UNL     1     -44.472 -53.829  13.340  1.00  0.00     0.003 A 
HETATM    7  C   UNL     1     -45.269 -54.982  13.838  1.00  0.00     0.058 C 
ENDROOT
BRANCH   4   8
HETATM    8  C   UNL     1     -41.408 -51.685  12.260  1.00  0.00     0.084 C 
BRANCH   8   9
HETATM    9  C   UNL     1     -40.255 -52.296  13.056  1.00  0.00     0.129 C 
BRANCH   9  10
HETATM   10  N   UNL     1     -39.477 -51.294  13.766  1.00  0.00    -0.360 N 
HETATM   11  C   UNL     1     -38.203 -50.967  13.373  1.00  0.00     0.221 C 
HETATM   12  O   UNL     1     -37.635 -51.449  12.404  1.00  0.00    -0.273 OA
HETATM   13  H   UNL     1     -39.902 -50.811  14.545  1.00  0.00     0.162 HD
BRANCH  11  14
HETATM   14  C   UNL     1     -37.549 -49.927  14.217  1.00  0.00     0.078 A 
HETATM   15  C   UNL     1     -38.404 -49.003  15.052  1.00  0.00     0.015 A 
HETATM   16  C   UNL     1     -37.669 -48.464  13.860  1.00  0.00     0.015 A 
ENDBRANCH  11  14
ENDBRANCH   9  10
ENDBRANCH   8   9
ENDBRANCH   4   8
BRANCH   1  17
HETATM   17  C   UNL     1     -46.297 -52.041  12.966  1.00  0.00     0.054 C 
HETATM   18  C   UNL     1     -46.677 -51.438  14.308  1.00  0.00     0.011 C 
ENDBRANCH   1  17
TORSDOF 5
ENDMDL
MODEL 7
REMARK VINA RESULT:      -4.6      2.291      5.820
REMARK  5 active torsions:
REMARK  status: ('A' for Active; 'I' for Inactive)
REMARK    1  A    between atoms: C_2  and  C_3 
REMARK    2  A    between atoms: C_6  and  C_7 
REMARK    3  A    between atoms: C_7  and  C_8 
REMARK    4  A    between atoms: C_8  and  N_9 
REMARK       I    between atoms: N_9  and  C_10 
REMARK    5  A    between atoms: C_10  and  C_12 
ROOT
HETATM    1  C   UNL     1     -42.360 -47.163  10.058  1.00  0.00     0.022 A 
HETATM    2  N   UNL     1     -42.515 -48.497  10.395  1.00  0.00    -0.356 N 
ATOM      3  HN  UNL     1     -43.200 -49.127   9.977  1.00  0.00     0.166 HD
HETATM    4  C   UNL     1     -41.656 -48.838  11.330  1.00  0.00     0.053 A 
HETATM    5  S   UNL     1     -40.643 -47.568  11.888  1.00  0.00    -0.080 SA
HETATM    6  C   UNL     1     -41.389 -46.491  10.783  1.00  0.00     0.003 A 
HETATM    7  C   UNL     1     -40.965 -45.067  10.697  1.00  0.00     0.058 C 
ENDROOT
BRANCH   4   8
HETATM    8  C   UNL     1     -41.522 -50.213  11.911  1.00  0.00     0.084 C 
BRANCH   8   9
HETATM    9  C   UNL     1     -42.392 -50.389  13.156  1.00  0.00     0.129 C 
BRANCH   9  10
HETATM   10  N   UNL     1     -43.702 -50.934  12.846  1.00  0.00    -0.360 N 
HETATM   11  C   UNL     1     -44.028 -52.233  13.147  1.00  0.00     0.221 C 
HETATM   12  O   UNL     1     -43.280 -53.018  13.713  1.00  0.00    -0.273 OA
HETATM   13  H   UNL     1     -44.394 -50.328  12.426  1.00  0.00     0.162 HD
BRANCH  11  14
HETATM   14  C   UNL     1     -45.409 -52.627  12.750  1.00  0.00     0.078 A 
HETATM   15  C   UNL     1     -46.471 -51.563  12.601  1.00  0.00     0.015 A 
HETATM   16  C   UNL     1     -46.546 -52.535  13.742  1.00  0.00     0.015 A 
ENDBRANCH  11  14
ENDBRANCH   9  10
ENDBRANCH   8   9
ENDBRANCH   4   8
BRANCH   1  17
HETATM   17  C   UNL     1     -43.230 -46.609   8.976  1.00  0.00     0.054 C 
HETATM   18  C   UNL     1     -43.626 -47.666   7.958  1.00  0.00     0.011 C 
ENDBRANCH   1  17
TORSDOF 5
ENDMDL
MODEL 8
REMARK VINA RESULT:      -4.5      4.053      5.755
REMARK  5 active torsions:
REMARK  status: ('A' for Active; 'I' for Inactive)
REMARK    1  A    between atoms: C_2  and  C_3 
REMARK    2  A    between atoms: C_6  and  C_7 
REMARK    3  A    between atoms: C_7  and  C_8 
REMARK    4  A    between atoms: C_8  and  N_9 
REMARK       I    between atoms: N_9  and  C_10 
REMARK    5  A    between atoms: C_10  and  C_12 
ROOT
HETATM    1  C   UNL     1     -39.236 -51.138  13.313  1.00  0.00     0.022 A 
HETATM    2  N   UNL     1     -40.104 -52.008  12.674  1.00  0.00    -0.356 N 
ATOM      3  HN  UNL     1     -40.453 -51.888  11.723  1.00  0.00     0.166 HD
HETATM    4  C   UNL     1     -40.416 -53.010  13.465  1.00  0.00     0.053 A 
HETATM    5  S   UNL     1     -39.720 -52.944  15.035  1.00  0.00    -0.080 SA
HETATM    6  C   UNL     1     -38.925 -51.484  14.618  1.00  0.00     0.003 A 
HETATM    7  C   UNL     1     -38.047 -50.785  15.594  1.00  0.00     0.058 C 
ENDROOT
BRANCH   4   8
HETATM    8  C   UNL     1     -41.308 -54.155  13.090  1.00  0.00     0.084 C 
BRANCH   8   9
HETATM    9  C   UNL     1     -42.539 -54.233  13.994  1.00  0.00     0.129 C 
BRANCH   9  10
HETATM   10  N   UNL     1     -43.371 -53.046  13.902  1.00  0.00    -0.360 N 
HETATM   11  C   UNL     1     -44.467 -53.002  13.075  1.00  0.00     0.221 C 
HETATM   12  O   UNL     1     -44.848 -53.936  12.385  1.00  0.00    -0.273 OA
HETATM   13  H   UNL     1     -43.151 -52.251  14.486  1.00  0.00     0.162 HD
BRANCH  11  14
HETATM   14  C   UNL     1     -45.201 -51.705  13.099  1.00  0.00     0.078 A 
HETATM   15  C   UNL     1     -46.369 -51.531  14.040  1.00  0.00     0.015 A 
HETATM   16  C   UNL     1     -46.610 -51.613  12.561  1.00  0.00     0.015 A 
ENDBRANCH  11  14
ENDBRANCH   9  10
ENDBRANCH   8   9
ENDBRANCH   4   8
BRANCH   1  17
HETATM   17  C   UNL     1     -38.741 -49.955  12.545  1.00  0.00     0.054 C 
HETATM   18  C   UNL     1     -37.552 -50.299  11.662  1.00  0.00     0.011 C 
ENDBRANCH   1  17
TORSDOF 5
ENDMDL
MODEL 9
REMARK VINA RESULT:      -4.4      4.406      6.673
REMARK  5 active torsions:
REMARK  status: ('A' for Active; 'I' for Inactive)
REMARK    1  A    between atoms: C_2  and  C_3 
REMARK    2  A    between atoms: C_6  and  C_7 
REMARK    3  A    between atoms: C_7  and  C_8 
REMARK    4  A    between atoms: C_8  and  N_9 
REMARK       I    between atoms: N_9  and  C_10 
REMARK    5  A    between atoms: C_10  and  C_12 
ROOT
HETATM    1  C   UNL     1     -45.525 -52.529  13.118  1.00  0.00     0.022 A 
HETATM    2  N   UNL     1     -44.292 -52.278  12.537  1.00  0.00    -0.356 N 
ATOM      3  HN  UNL     1     -44.103 -51.523  11.878  1.00  0.00     0.166 HD
HETATM    4  C   UNL     1     -43.401 -53.150  12.954  1.00  0.00     0.053 A 
HETATM    5  S   UNL     1     -44.000 -54.345  14.033  1.00  0.00    -0.080 SA
HETATM    6  C   UNL     1     -45.557 -53.631  13.956  1.00  0.00     0.003 A 
HETATM    7  C   UNL     1     -46.697 -54.194  14.728  1.00  0.00     0.058 C 
ENDROOT
BRANCH   4   8
HETATM    8  C   UNL     1     -41.956 -53.158  12.555  1.00  0.00     0.084 C 
BRANCH   8   9
HETATM    9  C   UNL     1     -41.116 -52.252  13.455  1.00  0.00     0.129 C 
BRANCH   9  10
HETATM   10  N   UNL     1     -40.647 -52.934  14.649  1.00  0.00    -0.360 N 
HETATM   11  C   UNL     1     -39.494 -53.678  14.643  1.00  0.00     0.221 C 
HETATM   12  O   UNL     1     -38.761 -53.807  13.672  1.00  0.00    -0.273 OA
HETATM   13  H   UNL     1     -41.171 -52.829  15.507  1.00  0.00     0.162 HD
BRANCH  11  14
HETATM   14  C   UNL     1     -39.168 -54.316  15.949  1.00  0.00     0.078 A 
HETATM   15  C   UNL     1     -38.220 -55.492  15.986  1.00  0.00     0.015 A 
HETATM   16  C   UNL     1     -39.678 -55.701  16.274  1.00  0.00     0.015 A 
ENDBRANCH  11  14
ENDBRANCH   9  10
ENDBRANCH   8   9
ENDBRANCH   4   8
BRANCH   1  17
HETATM   17  C   UNL     1     -46.654 -51.606  12.788  1.00  0.00     0.054 C 
HETATM   18  C   UNL     1     -47.111 -51.749  11.346  1.00  0.00     0.011 C 
ENDBRANCH   1  17
TORSDOF 5
ENDMDL
