MODEL 1
REMARK VINA RESULT:      -6.1      0.000      0.000
REMARK  3 active torsions:
REMARK  status: ('A' for Active; 'I' for Inactive)
REMARK    1  A    between atoms: C_7  and  N_8 
REMARK       I    between atoms: N_8  and  C_9 
REMARK    2  A    between atoms: C_9  and  C_11 
REMARK    3  A    between atoms: C_11  and  C_12 
ROOT
HETATM    1  C   UNL     1     -45.749 -54.559  14.018  1.00  0.00     0.149 C 
ENDROOT
BRANCH   1   2
HETATM    2  C   UNL     1     -44.402 -54.273  13.354  1.00  0.00     0.222 C 
HETATM    3  N   UNL     1     -43.352 -54.151  14.240  1.00  0.00    -0.356 N 
HETATM    4  H   UNL     1     -43.467 -54.630  15.133  1.00  0.00     0.162 HD
HETATM    5  O   UNL     1     -44.288 -54.151  12.138  1.00  0.00    -0.273 OA
BRANCH   3   6
HETATM    6  C   UNL     1     -41.993 -53.856  13.804  1.00  0.00     0.088 C 
HETATM    7  C   UNL     1     -40.913 -54.583  14.640  1.00  0.00     0.004 C 
HETATM    8  C   UNL     1     -40.981 -54.278  16.142  1.00  0.00     0.012 C 
HETATM    9  C   UNL     1     -39.519 -54.235  14.088  1.00  0.00     0.006 C 
HETATM   10  C   UNL     1     -39.268 -52.729  14.014  1.00  0.00     0.001 C 
HETATM   11  C   UNL     1     -40.366 -52.002  13.244  1.00  0.00     0.002 C 
HETATM   12  C   UNL     1     -41.762 -52.341  13.763  1.00  0.00     0.025 C 
ENDBRANCH   3   6
ENDBRANCH   1   2
BRANCH   1  13
HETATM   13  C   UNL     1     -46.172 -53.409  14.882  1.00  0.00     0.041 C 
HETATM   14  C   UNL     1     -46.604 -52.188  14.507  1.00  0.00     0.018 C 
HETATM   15  C   UNL     1     -46.698 -51.725  13.075  1.00  0.00     0.069 C 
HETATM   16  N   UNL     1     -46.993 -51.209  15.399  1.00  0.00    -0.349 N 
HETATM   17  C   UNL     1     -47.002 -51.498  16.656  1.00  0.00     0.080 C 
ATOM     18  HN  UNL     1     -47.266 -50.282  15.074  1.00  0.00     0.167 HD
HETATM   19  C   UNL     1     -47.447 -50.493  17.677  1.00  0.00     0.089 C 
HETATM   20  N   UNL     1     -46.612 -52.705  17.148  1.00  0.00    -0.313 N 
HETATM   21  C   UNL     1     -46.035 -53.633  16.344  1.00  0.00     0.255 C 
HETATM   22  H   UNL     1     -46.524 -52.855  18.141  1.00  0.00     0.170 HD
HETATM   23  O   UNL     1     -45.400 -54.583  16.796  1.00  0.00    -0.268 OA
ENDBRANCH   1  13
TORSDOF 3
ENDMDL
MODEL 2
REMARK VINA RESULT:      -6.1      2.375      6.691
REMARK  3 active torsions:
REMARK  status: ('A' for Active; 'I' for Inactive)
REMARK    1  A    between atoms: C_7  and  N_8 
REMARK       I    between atoms: N_8  and  C_9 
REMARK    2  A    between atoms: C_9  and  C_11 
REMARK    3  A    between atoms: C_11  and  C_12 
ROOT
HETATM    1  C   UNL     1     -41.432 -54.300  13.231  1.00  0.00     0.149 C 
ENDROOT
BRANCH   1   2
HETATM    2  C   UNL     1     -42.540 -54.059  14.257  1.00  0.00     0.222 C 
HETATM    3  N   UNL     1     -43.544 -53.225  13.815  1.00  0.00    -0.356 N 
HETATM    4  H   UNL     1     -43.673 -53.180  12.804  1.00  0.00     0.162 HD
HETATM    5  O   UNL     1     -42.511 -54.562  15.376  1.00  0.00    -0.273 OA
BRANCH   3   6
HETATM    6  C   UNL     1     -44.677 -52.855  14.654  1.00  0.00     0.088 C 
HETATM    7  C   UNL     1     -46.044 -53.065  13.961  1.00  0.00     0.004 C 
HETATM    8  C   UNL     1     -46.193 -52.300  12.639  1.00  0.00     0.012 C 
HETATM    9  C   UNL     1     -47.174 -52.678  14.931  1.00  0.00     0.006 C 
HETATM   10  C   UNL     1     -47.024 -51.260  15.483  1.00  0.00     0.001 C 
HETATM   11  C   UNL     1     -45.652 -51.032  16.110  1.00  0.00     0.002 C 
HETATM   12  C   UNL     1     -44.512 -51.421  15.173  1.00  0.00     0.025 C 
ENDBRANCH   3   6
ENDBRANCH   1   2
BRANCH   1  13
HETATM   13  C   UNL     1     -40.434 -53.181  13.250  1.00  0.00     0.041 C 
HETATM   14  C   UNL     1     -39.387 -53.000  14.080  1.00  0.00     0.018 C 
HETATM   15  C   UNL     1     -39.045 -53.920  15.225  1.00  0.00     0.069 C 
HETATM   16  N   UNL     1     -38.514 -51.935  13.987  1.00  0.00    -0.349 N 
HETATM   17  C   UNL     1     -38.673 -51.100  13.017  1.00  0.00     0.080 C 
ATOM     18  HN  UNL     1     -37.764 -51.811  14.667  1.00  0.00     0.167 HD
HETATM   19  C   UNL     1     -37.740 -49.940  12.835  1.00  0.00     0.089 C 
HETATM   20  N   UNL     1     -39.678 -51.196  12.105  1.00  0.00    -0.313 N 
HETATM   21  C   UNL     1     -40.678 -52.101  12.260  1.00  0.00     0.255 C 
HETATM   22  H   UNL     1     -39.838 -50.463  11.431  1.00  0.00     0.170 HD
HETATM   23  O   UNL     1     -41.739 -52.011  11.648  1.00  0.00    -0.268 OA
ENDBRANCH   1  13
TORSDOF 3
ENDMDL
MODEL 3
REMARK VINA RESULT:      -6.0      3.656      7.094
REMARK  3 active torsions:
REMARK  status: ('A' for Active; 'I' for Inactive)
REMARK    1  A    between atoms: C_7  and  N_8 
REMARK       I    between atoms: N_8  and  C_9 
REMARK    2  A    between atoms: C_9  and  C_11 
REMARK    3  A    between atoms: C_11  and  C_12 
ROOT
HETATM    1  C   UNL     1     -42.789 -49.045  11.888  1.00  0.00     0.149 C 
ENDROOT
BRANCH   1   2
HETATM    2  C   UNL     1     -43.300 -49.720  13.160  1.00  0.00     0.222 C 
HETATM    3  N   UNL     1     -44.202 -50.737  12.935  1.00  0.00    -0.356 N 
HETATM    4  H   UNL     1     -44.142 -51.191  12.023  1.00  0.00     0.162 HD
HETATM    5  O   UNL     1     -42.937 -49.363  14.278  1.00  0.00    -0.273 OA
BRANCH   3   6
HETATM    6  C   UNL     1     -44.821 -51.487  14.021  1.00  0.00     0.088 C 
HETATM    7  C   UNL     1     -44.288 -52.935  14.142  1.00  0.00     0.004 C 
HETATM    8  C   UNL     1     -44.457 -53.768  12.866  1.00  0.00     0.012 C 
HETATM    9  C   UNL     1     -44.975 -53.634  15.330  1.00  0.00     0.006 C 
HETATM   10  C   UNL     1     -46.501 -53.591  15.243  1.00  0.00     0.001 C 
HETATM   11  C   UNL     1     -47.024 -52.170  15.058  1.00  0.00     0.002 C 
HETATM   12  C   UNL     1     -46.349 -51.448  13.894  1.00  0.00     0.025 C 
ENDBRANCH   3   6
ENDBRANCH   1   2
BRANCH   1  13
HETATM   13  C   UNL     1     -41.315 -49.265  11.722  1.00  0.00     0.041 C 
HETATM   14  C   UNL     1     -40.351 -48.359  11.464  1.00  0.00     0.018 C 
HETATM   15  C   UNL     1     -40.608 -46.890  11.242  1.00  0.00     0.069 C 
HETATM   16  N   UNL     1     -39.012 -48.677  11.355  1.00  0.00    -0.349 N 
HETATM   17  C   UNL     1     -38.657 -49.898  11.571  1.00  0.00     0.080 C 
ATOM     18  HN  UNL     1     -38.322 -47.967  11.111  1.00  0.00     0.167 HD
HETATM   19  C   UNL     1     -37.215 -50.307  11.504  1.00  0.00     0.089 C 
HETATM   20  N   UNL     1     -39.538 -50.892  11.864  1.00  0.00    -0.313 N 
HETATM   21  C   UNL     1     -40.877 -50.683  11.789  1.00  0.00     0.255 C 
HETATM   22  H   UNL     1     -39.237 -51.854  11.913  1.00  0.00     0.170 HD
HETATM   23  O   UNL     1     -41.680 -51.611  11.739  1.00  0.00    -0.268 OA
ENDBRANCH   1  13
TORSDOF 3
ENDMDL
MODEL 4
REMARK VINA RESULT:      -5.9      1.673      5.999
REMARK  3 active torsions:
REMARK  status: ('A' for Active; 'I' for Inactive)
REMARK    1  A    between atoms: C_7  and  N_8 
REMARK       I    between atoms: N_8  and  C_9 
REMARK    2  A    between atoms: C_9  and  C_11 
REMARK    3  A    between atoms: C_11  and  C_12 
ROOT
HETATM    1  C   UNL     1     -44.273 -55.172  14.180  1.00  0.00     0.149 C 
ENDROOT
BRANCH   1   2
HETATM    2  C   UNL     1     -45.401 -54.512  14.973  1.00  0.00     0.222 C 
HETATM    3  N   UNL     1     -44.996 -53.446  15.746  1.00  0.00    -0.356 N 
HETATM    4  H   UNL     1     -44.151 -52.966  15.436  1.00  0.00     0.162 HD
HETATM    5  O   UNL     1     -46.557 -54.922  14.923  1.00  0.00    -0.273 OA
BRANCH   3   6
HETATM    6  C   UNL     1     -45.920 -52.700  16.592  1.00  0.00     0.088 C 
HETATM    7  C   UNL     1     -47.109 -52.094  15.810  1.00  0.00     0.004 C 
HETATM    8  C   UNL     1     -46.689 -51.160  14.668  1.00  0.00     0.012 C 
HETATM    9  C   UNL     1     -48.041 -51.355  16.788  1.00  0.00     0.006 C 
HETATM   10  C   UNL     1     -47.311 -50.304  17.625  1.00  0.00     0.001 C 
HETATM   11  C   UNL     1     -46.099 -50.887  18.346  1.00  0.00     0.002 C 
HETATM   12  C   UNL     1     -45.165 -51.637  17.400  1.00  0.00     0.025 C 
ENDBRANCH   3   6
ENDBRANCH   1   2
BRANCH   1  13
HETATM   13  C   UNL     1     -43.312 -54.143  13.662  1.00  0.00     0.041 C 
HETATM   14  C   UNL     1     -42.104 -53.797  14.150  1.00  0.00     0.018 C 
HETATM   15  C   UNL     1     -41.494 -54.386  15.397  1.00  0.00     0.069 C 
HETATM   16  N   UNL     1     -41.291 -52.844  13.570  1.00  0.00    -0.349 N 
HETATM   17  C   UNL     1     -41.681 -52.299  12.468  1.00  0.00     0.080 C 
ATOM     18  HN  UNL     1     -40.406 -52.578  14.001  1.00  0.00     0.167 HD
HETATM   19  C   UNL     1     -40.832 -51.282  11.766  1.00  0.00     0.089 C 
HETATM   20  N   UNL     1     -42.869 -52.588  11.871  1.00  0.00    -0.313 N 
HETATM   21  C   UNL     1     -43.793 -53.363  12.493  1.00  0.00     0.255 C 
HETATM   22  H   UNL     1     -43.190 -52.059  11.074  1.00  0.00     0.170 HD
HETATM   23  O   UNL     1     -44.968 -53.390  12.136  1.00  0.00    -0.268 OA
ENDBRANCH   1  13
TORSDOF 3
ENDMDL
MODEL 5
REMARK VINA RESULT:      -5.9      4.658      7.535
REMARK  3 active torsions:
REMARK  status: ('A' for Active; 'I' for Inactive)
REMARK    1  A    between atoms: C_7  and  N_8 
REMARK       I    between atoms: N_8  and  C_9 
REMARK    2  A    between atoms: C_9  and  C_11 
REMARK    3  A    between atoms: C_11  and  C_12 
ROOT
HETATM    1  C   UNL     1     -41.292 -50.088  11.586  1.00  0.00     0.149 C 
ENDROOT
BRANCH   1   2
HETATM    2  C   UNL     1     -42.311 -50.212  12.719  1.00  0.00     0.222 C 
HETATM    3  N   UNL     1     -43.118 -51.326  12.631  1.00  0.00    -0.356 N 
HETATM    4  H   UNL     1     -42.733 -52.115  12.110  1.00  0.00     0.162 HD
HETATM    5  O   UNL     1     -42.397 -49.374  13.612  1.00  0.00    -0.273 OA
BRANCH   3   6
HETATM    6  C   UNL     1     -44.166 -51.610  13.603  1.00  0.00     0.088 C 
HETATM    7  C   UNL     1     -44.146 -53.070  14.113  1.00  0.00     0.004 C 
HETATM    8  C   UNL     1     -44.268 -54.118  13.000  1.00  0.00     0.012 C 
HETATM    9  C   UNL     1     -45.264 -53.263  15.153  1.00  0.00     0.006 C 
HETATM   10  C   UNL     1     -46.642 -52.861  14.627  1.00  0.00     0.001 C 
HETATM   11  C   UNL     1     -46.647 -51.443  14.064  1.00  0.00     0.002 C 
HETATM   12  C   UNL     1     -45.538 -51.219  13.039  1.00  0.00     0.025 C 
ENDBRANCH   3   6
ENDBRANCH   1   2
BRANCH   1  13
HETATM   13  C   UNL     1     -40.829 -48.669  11.437  1.00  0.00     0.041 C 
HETATM   14  C   UNL     1     -39.816 -48.043  12.068  1.00  0.00     0.018 C 
HETATM   15  C   UNL     1     -38.952 -48.684  13.125  1.00  0.00     0.069 C 
HETATM   16  N   UNL     1     -39.464 -46.730  11.831  1.00  0.00    -0.349 N 
HETATM   17  C   UNL     1     -40.100 -46.085  10.913  1.00  0.00     0.080 C 
ATOM     18  HN  UNL     1     -38.721 -46.281  12.367  1.00  0.00     0.167 HD
HETATM   19  C   UNL     1     -39.746 -44.666  10.579  1.00  0.00     0.089 C 
HETATM   20  N   UNL     1     -41.122 -46.621  10.195  1.00  0.00    -0.313 N 
HETATM   21  C   UNL     1     -41.642 -47.833  10.517  1.00  0.00     0.255 C 
HETATM   22  H   UNL     1     -41.669 -46.052   9.567  1.00  0.00     0.170 HD
HETATM   23  O   UNL     1     -42.739 -48.203  10.105  1.00  0.00    -0.268 OA
ENDBRANCH   1  13
TORSDOF 3
ENDMDL
MODEL 6
REMARK VINA RESULT:      -5.8      1.633      3.295
REMARK  3 active torsions:
REMARK  status: ('A' for Active; 'I' for Inactive)
REMARK    1  A    between atoms: C_7  and  N_8 
REMARK       I    between atoms: N_8  and  C_9 
REMARK    2  A    between atoms: C_9  and  C_11 
REMARK    3  A    between atoms: C_11  and  C_12 
ROOT
HETATM    1  C   UNL     1     -45.443 -53.917  16.721  1.00  0.00     0.149 C 
ENDROOT
BRANCH   1   2
HETATM    2  C   UNL     1     -43.942 -53.717  16.928  1.00  0.00     0.222 C 
HETATM    3  N   UNL     1     -43.154 -54.389  16.019  1.00  0.00    -0.356 N 
HETATM    4  H   UNL     1     -43.591 -54.600  15.122  1.00  0.00     0.162 HD
HETATM    5  O   UNL     1     -43.497 -53.025  17.840  1.00  0.00    -0.273 OA
BRANCH   3   6
HETATM    6  C   UNL     1     -41.698 -54.343  16.064  1.00  0.00     0.088 C 
HETATM    7  C   UNL     1     -41.072 -53.636  14.838  1.00  0.00     0.004 C 
HETATM    8  C   UNL     1     -41.462 -54.263  13.494  1.00  0.00     0.012 C 
HETATM    9  C   UNL     1     -39.540 -53.609  14.990  1.00  0.00     0.006 C 
HETATM   10  C   UNL     1     -38.942 -54.998  15.216  1.00  0.00     0.001 C 
HETATM   11  C   UNL     1     -39.602 -55.722  16.385  1.00  0.00     0.002 C 
HETATM   12  C   UNL     1     -41.124 -55.751  16.267  1.00  0.00     0.025 C 
ENDBRANCH   3   6
ENDBRANCH   1   2
BRANCH   1  13
HETATM   13  C   UNL     1     -45.908 -53.219  15.478  1.00  0.00     0.041 C 
HETATM   14  C   UNL     1     -46.370 -51.961  15.340  1.00  0.00     0.018 C 
HETATM   15  C   UNL     1     -46.551 -50.996  16.485  1.00  0.00     0.069 C 
HETATM   16  N   UNL     1     -46.750 -51.414  14.131  1.00  0.00    -0.349 N 
HETATM   17  C   UNL     1     -46.598 -52.126  13.066  1.00  0.00     0.080 C 
ATOM     18  HN  UNL     1     -47.140 -50.473  14.080  1.00  0.00     0.167 HD
HETATM   19  C   UNL     1     -46.957 -51.582  11.715  1.00  0.00     0.089 C 
HETATM   20  N   UNL     1     -46.118 -53.399  13.080  1.00  0.00    -0.313 N 
HETATM   21  C   UNL     1     -45.917 -54.056  14.251  1.00  0.00     0.255 C 
HETATM   22  H   UNL     1     -46.121 -53.963  12.244  1.00  0.00     0.170 HD
HETATM   23  O   UNL     1     -45.788 -55.277  14.298  1.00  0.00    -0.268 OA
ENDBRANCH   1  13
TORSDOF 3
ENDMDL
MODEL 7
REMARK VINA RESULT:      -5.8      3.166      6.727
REMARK  3 active torsions:
REMARK  status: ('A' for Active; 'I' for Inactive)
REMARK    1  A    between atoms: C_7  and  N_8 
REMARK       I    between atoms: N_8  and  C_9 
REMARK    2  A    between atoms: C_9  and  C_11 
REMARK    3  A    between atoms: C_11  and  C_12 
ROOT
HETATM    1  C   UNL     1     -41.370 -52.208  12.013  1.00  0.00     0.149 C 
ENDROOT
BRANCH   1   2
HETATM    2  C   UNL     1     -42.343 -52.589  13.128  1.00  0.00     0.222 C 
HETATM    3  N   UNL     1     -43.505 -51.846  13.140  1.00  0.00    -0.356 N 
HETATM    4  H   UNL     1     -43.780 -51.437  12.247  1.00  0.00     0.162 HD
HETATM    5  O   UNL     1     -42.088 -53.471  13.942  1.00  0.00    -0.273 OA
BRANCH   3   6
HETATM    6  C   UNL     1     -44.547 -52.043  14.139  1.00  0.00     0.088 C 
HETATM    7  C   UNL     1     -45.888 -52.522  13.536  1.00  0.00     0.004 C 
HETATM    8  C   UNL     1     -46.460 -51.581  12.468  1.00  0.00     0.012 C 
HETATM    9  C   UNL     1     -46.912 -52.730  14.666  1.00  0.00     0.006 C 
HETATM   10  C   UNL     1     -47.090 -51.490  15.543  1.00  0.00     0.001 C 
HETATM   11  C   UNL     1     -45.760 -50.978  16.087  1.00  0.00     0.002 C 
HETATM   12  C   UNL     1     -44.720 -50.776  14.987  1.00  0.00     0.025 C 
ENDBRANCH   3   6
ENDBRANCH   1   2
BRANCH   1  13
HETATM   13  C   UNL     1     -40.450 -51.110  12.459  1.00  0.00     0.041 C 
HETATM   14  C   UNL     1     -40.542 -49.786  12.224  1.00  0.00     0.018 C 
HETATM   15  C   UNL     1     -41.623 -49.148  11.388  1.00  0.00     0.069 C 
HETATM   16  N   UNL     1     -39.641 -48.860  12.710  1.00  0.00    -0.349 N 
HETATM   17  C   UNL     1     -38.695 -49.277  13.480  1.00  0.00     0.080 C 
ATOM     18  HN  UNL     1     -39.722 -47.873  12.467  1.00  0.00     0.167 HD
HETATM   19  C   UNL     1     -37.702 -48.321  14.072  1.00  0.00     0.089 C 
HETATM   20  N   UNL     1     -38.518 -50.586  13.806  1.00  0.00    -0.313 N 
HETATM   21  C   UNL     1     -39.247 -51.560  13.204  1.00  0.00     0.255 C 
HETATM   22  H   UNL     1     -37.702 -50.887  14.316  1.00  0.00     0.170 HD
HETATM   23  O   UNL     1     -38.910 -52.741  13.238  1.00  0.00    -0.268 OA
ENDBRANCH   1  13
TORSDOF 3
ENDMDL
MODEL 8
REMARK VINA RESULT:      -5.8      3.869      6.888
REMARK  3 active torsions:
REMARK  status: ('A' for Active; 'I' for Inactive)
REMARK    1  A    between atoms: C_7  and  N_8 
REMARK       I    between atoms: N_8  and  C_9 
REMARK    2  A    between atoms: C_9  and  C_11 
REMARK    3  A    between atoms: C_11  and  C_12 
ROOT
HETATM    1  C   UNL     1     -38.844 -51.190  14.094  1.00  0.00     0.149 C 
ENDROOT
BRANCH   1   2
HETATM    2  C   UNL     1     -39.724 -52.379  13.711  1.00  0.00     0.222 C 
HETATM    3  N   UNL     1     -41.070 -52.178  13.931  1.00  0.00    -0.356 N 
HETATM    4  H   UNL     1     -41.379 -51.206  13.931  1.00  0.00     0.162 HD
HETATM    5  O   UNL     1     -39.252 -53.421  13.263  1.00  0.00    -0.273 OA
BRANCH   3   6
HETATM    6  C   UNL     1     -42.068 -53.202  13.651  1.00  0.00     0.088 C 
HETATM    7  C   UNL     1     -43.239 -52.690  12.779  1.00  0.00     0.004 C 
HETATM    8  C   UNL     1     -43.980 -51.489  13.377  1.00  0.00     0.012 C 
HETATM    9  C   UNL     1     -44.221 -53.846  12.513  1.00  0.00     0.006 C 
HETATM   10  C   UNL     1     -44.715 -54.513  13.797  1.00  0.00     0.001 C 
HETATM   11  C   UNL     1     -43.561 -54.961  14.689  1.00  0.00     0.002 C 
HETATM   12  C   UNL     1     -42.563 -53.836  14.958  1.00  0.00     0.025 C 
ENDBRANCH   3   6
ENDBRANCH   1   2
BRANCH   1  13
HETATM   13  C   UNL     1     -39.147 -50.002  13.229  1.00  0.00     0.041 C 
HETATM   14  C   UNL     1     -38.582 -49.645  12.059  1.00  0.00     0.018 C 
HETATM   15  C   UNL     1     -37.453 -50.397  11.400  1.00  0.00     0.069 C 
HETATM   16  N   UNL     1     -38.963 -48.533  11.334  1.00  0.00    -0.349 N 
HETATM   17  C   UNL     1     -39.954 -47.832  11.771  1.00  0.00     0.080 C 
ATOM     18  HN  UNL     1     -38.475 -48.274  10.478  1.00  0.00     0.167 HD
HETATM   19  C   UNL     1     -40.443 -46.632  11.015  1.00  0.00     0.089 C 
HETATM   20  N   UNL     1     -40.615 -48.111  12.926  1.00  0.00    -0.313 N 
HETATM   21  C   UNL     1     -40.163 -49.066  13.777  1.00  0.00     0.255 C 
HETATM   22  H   UNL     1     -41.308 -47.476  13.292  1.00  0.00     0.170 HD
HETATM   23  O   UNL     1     -40.540 -49.131  14.944  1.00  0.00    -0.268 OA
ENDBRANCH   1  13
TORSDOF 3
ENDMDL
MODEL 9
REMARK VINA RESULT:      -5.7      3.369      6.032
REMARK  3 active torsions:
REMARK  status: ('A' for Active; 'I' for Inactive)
REMARK    1  A    between atoms: C_7  and  N_8 
REMARK       I    between atoms: N_8  and  C_9 
REMARK    2  A    between atoms: C_9  and  C_11 
REMARK    3  A    between atoms: C_11  and  C_12 
ROOT
HETATM    1  C   UNL     1     -39.384 -53.862  14.554  1.00  0.00     0.149 C 
ENDROOT
BRANCH   1   2
HETATM    2  C   UNL     1     -39.163 -52.473  15.153  1.00  0.00     0.222 C 
HETATM    3  N   UNL     1     -38.696 -51.540  14.252  1.00  0.00    -0.356 N 
HETATM    4  H   UNL     1     -38.915 -51.719  13.272  1.00  0.00     0.162 HD
HETATM    5  O   UNL     1     -39.375 -52.234  16.338  1.00  0.00    -0.273 OA
BRANCH   3   6
HETATM    6  C   UNL     1     -38.403 -50.164  14.635  1.00  0.00     0.088 C 
HETATM    7  C   UNL     1     -38.656 -49.147  13.498  1.00  0.00     0.004 C 
HETATM    8  C   UNL     1     -37.863 -49.438  12.217  1.00  0.00     0.012 C 
HETATM    9  C   UNL     1     -38.349 -47.726  14.005  1.00  0.00     0.006 C 
HETATM   10  C   UNL     1     -36.941 -47.595  14.587  1.00  0.00     0.001 C 
HETATM   11  C   UNL     1     -36.667 -48.639  15.665  1.00  0.00     0.002 C 
HETATM   12  C   UNL     1     -36.977 -50.058  15.192  1.00  0.00     0.025 C 
ENDBRANCH   3   6
ENDBRANCH   1   2
BRANCH   1  13
HETATM   13  C   UNL     1     -40.837 -54.096  14.269  1.00  0.00     0.041 C 
HETATM   14  C   UNL     1     -41.750 -54.744  15.021  1.00  0.00     0.018 C 
HETATM   15  C   UNL     1     -41.439 -55.423  16.331  1.00  0.00     0.069 C 
HETATM   16  N   UNL     1     -43.077 -54.878  14.665  1.00  0.00    -0.349 N 
HETATM   17  C   UNL     1     -43.479 -54.299  13.585  1.00  0.00     0.080 C 
ATOM     18  HN  UNL     1     -43.722 -55.419  15.240  1.00  0.00     0.167 HD
HETATM   19  C   UNL     1     -44.915 -54.373  13.157  1.00  0.00     0.089 C 
HETATM   20  N   UNL     1     -42.654 -53.597  12.762  1.00  0.00    -0.313 N 
HETATM   21  C   UNL     1     -41.310 -53.598  12.952  1.00  0.00     0.255 C 
HETATM   22  H   UNL     1     -42.980 -53.256  11.870  1.00  0.00     0.170 HD
HETATM   23  O   UNL     1     -40.527 -53.247  12.074  1.00  0.00    -0.268 OA
ENDBRANCH   1  13
TORSDOF 3
ENDMDL
