MODEL 1
REMARK VINA RESULT:      -5.3      0.000      0.000
REMARK  4 active torsions:
REMARK  status: ('A' for Active; 'I' for Inactive)
REMARK    1  A    between atoms: C_2  and  C_3 
REMARK    2  A    between atoms: C_2  and  N_10 
REMARK    3  A    between atoms: C_3  and  N_4 
REMARK       I    between atoms: N_10  and  C_11 
REMARK    4  A    between atoms: C_11  and  C_13 
ROOT
HETATM    1  N   UNL     1     -43.130 -52.947  14.682  1.00  0.00    -0.355 N 
HETATM    2  C   UNL     1     -43.078 -51.737  15.333  1.00  0.00     0.222 C 
HETATM    3  O   UNL     1     -42.184 -51.449  16.121  1.00  0.00    -0.273 OA
HETATM    4  H   UNL     1     -43.790 -53.062  13.922  1.00  0.00     0.162 HD
ENDROOT
BRANCH   1   5
HETATM    5  C   UNL     1     -42.102 -53.964  14.901  1.00  0.00     0.098 C 
HETATM    6  C   UNL     1     -42.765 -55.246  15.398  1.00  0.00     0.034 C 
BRANCH   5   7
HETATM    7  C   UNL     1     -41.262 -54.186  13.628  1.00  0.00     0.153 C 
BRANCH   7   8
HETATM    8  N   UNL     1     -40.849 -52.965  12.965  1.00  0.00    -0.350 N 
HETATM    9  C   UNL     1     -39.869 -52.109  13.382  1.00  0.00     0.108 A 
HETATM   10  C   UNL     1     -39.834 -51.120  12.426  1.00  0.00     0.106 A 
HETATM   11  N   UNL     1     -40.762 -51.358  11.446  1.00  0.00    -0.361 N 
HETATM   12  C   UNL     1     -41.345 -52.486  11.787  1.00  0.00     0.182 A 
ATOM     13  HN  UNL     1     -40.959 -50.784  10.627  1.00  0.00     0.166 HD
ENDBRANCH   7   8
ENDBRANCH   5   7
ENDBRANCH   1   5
BRANCH   2  14
HETATM   14  C   UNL     1     -44.182 -50.752  14.972  1.00  0.00     0.081 C 
HETATM   15  C   UNL     1     -45.370 -50.830  15.947  1.00  0.00     0.018 C 
HETATM   16  C   UNL     1     -46.665 -51.478  15.450  1.00  0.00     0.027 C 
HETATM   17  C   UNL     1     -46.822 -51.585  13.973  1.00  0.00    -0.031 C 
HETATM   18  C   UNL     1     -45.857 -51.302  13.094  1.00  0.00    -0.030 C 
HETATM   19  C   UNL     1     -44.489 -50.839  13.469  1.00  0.00     0.041 C 
ENDBRANCH   2  14
TORSDOF 4
ENDMDL
MODEL 2
REMARK VINA RESULT:      -5.3      1.858      2.665
REMARK  4 active torsions:
REMARK  status: ('A' for Active; 'I' for Inactive)
REMARK    1  A    between atoms: C_2  and  C_3 
REMARK    2  A    between atoms: C_2  and  N_10 
REMARK    3  A    between atoms: C_3  and  N_4 
REMARK       I    between atoms: N_10  and  C_11 
REMARK    4  A    between atoms: C_11  and  C_13 
ROOT
HETATM    1  N   UNL     1     -43.147 -53.389  13.684  1.00  0.00    -0.355 N 
HETATM    2  C   UNL     1     -44.098 -54.283  14.115  1.00  0.00     0.222 C 
HETATM    3  O   UNL     1     -43.824 -55.254  14.812  1.00  0.00    -0.273 OA
HETATM    4  H   UNL     1     -43.452 -52.522  13.260  1.00  0.00     0.162 HD
ENDROOT
BRANCH   1   5
HETATM    5  C   UNL     1     -41.739 -53.556  14.046  1.00  0.00     0.098 C 
HETATM    6  C   UNL     1     -41.018 -54.292  12.919  1.00  0.00     0.034 C 
BRANCH   5   7
HETATM    7  C   UNL     1     -41.088 -52.199  14.379  1.00  0.00     0.153 C 
BRANCH   7   8
HETATM    8  N   UNL     1     -40.654 -51.445  13.220  1.00  0.00    -0.350 N 
HETATM    9  C   UNL     1     -41.453 -50.728  12.374  1.00  0.00     0.108 A 
HETATM   10  C   UNL     1     -40.590 -50.181  11.452  1.00  0.00     0.106 A 
HETATM   11  N   UNL     1     -39.297 -50.546  11.721  1.00  0.00    -0.361 N 
HETATM   12  C   UNL     1     -39.363 -51.291  12.801  1.00  0.00     0.182 A 
ATOM     13  HN  UNL     1     -38.461 -50.294  11.194  1.00  0.00     0.166 HD
ENDBRANCH   7   8
ENDBRANCH   5   7
ENDBRANCH   1   5
BRANCH   2  14
HETATM   14  C   UNL     1     -45.531 -53.961  13.710  1.00  0.00     0.081 C 
HETATM   15  C   UNL     1     -45.598 -52.842  12.657  1.00  0.00     0.018 C 
HETATM   16  C   UNL     1     -46.090 -51.463  13.104  1.00  0.00     0.027 C 
HETATM   17  C   UNL     1     -46.860 -51.422  14.378  1.00  0.00    -0.031 C 
HETATM   18  C   UNL     1     -47.000 -52.462  15.204  1.00  0.00    -0.030 C 
HETATM   19  C   UNL     1     -46.405 -53.810  14.964  1.00  0.00     0.041 C 
ENDBRANCH   2  14
TORSDOF 4
ENDMDL
MODEL 3
REMARK VINA RESULT:      -5.2      1.904      2.594
REMARK  4 active torsions:
REMARK  status: ('A' for Active; 'I' for Inactive)
REMARK    1  A    between atoms: C_2  and  C_3 
REMARK    2  A    between atoms: C_2  and  N_10 
REMARK    3  A    between atoms: C_3  and  N_4 
REMARK       I    between atoms: N_10  and  C_11 
REMARK    4  A    between atoms: C_11  and  C_13 
ROOT
HETATM    1  N   UNL     1     -43.685 -54.150  15.306  1.00  0.00    -0.355 N 
HETATM    2  C   UNL     1     -44.943 -54.132  15.859  1.00  0.00     0.222 C 
HETATM    3  O   UNL     1     -45.139 -54.283  17.060  1.00  0.00    -0.273 OA
HETATM    4  H   UNL     1     -43.572 -53.853  14.345  1.00  0.00     0.162 HD
ENDROOT
BRANCH   1   5
HETATM    5  C   UNL     1     -42.500 -54.351  16.140  1.00  0.00     0.098 C 
HETATM    6  C   UNL     1     -42.185 -55.844  16.208  1.00  0.00     0.034 C 
BRANCH   5   7
HETATM    7  C   UNL     1     -41.311 -53.517  15.624  1.00  0.00     0.153 C 
BRANCH   7   8
HETATM    8  N   UNL     1     -41.298 -53.323  14.187  1.00  0.00    -0.350 N 
HETATM    9  C   UNL     1     -41.735 -52.216  13.516  1.00  0.00     0.108 A 
HETATM   10  C   UNL     1     -41.501 -52.493  12.188  1.00  0.00     0.106 A 
HETATM   11  N   UNL     1     -40.935 -53.733  12.043  1.00  0.00    -0.361 N 
HETATM   12  C   UNL     1     -40.807 -54.201  13.264  1.00  0.00     0.182 A 
ATOM     13  HN  UNL     1     -40.670 -54.195  11.173  1.00  0.00     0.166 HD
ENDBRANCH   7   8
ENDBRANCH   5   7
ENDBRANCH   1   5
BRANCH   2  14
HETATM   14  C   UNL     1     -46.083 -53.861  14.885  1.00  0.00     0.081 C 
HETATM   15  C   UNL     1     -45.631 -53.974  13.419  1.00  0.00     0.018 C 
HETATM   16  C   UNL     1     -45.484 -52.682  12.611  1.00  0.00     0.027 C 
HETATM   17  C   UNL     1     -46.188 -51.486  13.151  1.00  0.00    -0.031 C 
HETATM   18  C   UNL     1     -46.786 -51.442  14.344  1.00  0.00    -0.030 C 
HETATM   19  C   UNL     1     -46.833 -52.586  15.302  1.00  0.00     0.041 C 
ENDBRANCH   2  14
TORSDOF 4
ENDMDL
MODEL 4
REMARK VINA RESULT:      -5.1      2.676      3.974
REMARK  4 active torsions:
REMARK  status: ('A' for Active; 'I' for Inactive)
REMARK    1  A    between atoms: C_2  and  C_3 
REMARK    2  A    between atoms: C_2  and  N_10 
REMARK    3  A    between atoms: C_3  and  N_4 
REMARK       I    between atoms: N_10  and  C_11 
REMARK    4  A    between atoms: C_11  and  C_13 
ROOT
HETATM    1  N   UNL     1     -43.292 -53.850  13.483  1.00  0.00    -0.355 N 
HETATM    2  C   UNL     1     -44.353 -54.581  13.961  1.00  0.00     0.222 C 
HETATM    3  O   UNL     1     -44.207 -55.601  14.625  1.00  0.00    -0.273 OA
HETATM    4  H   UNL     1     -43.470 -52.933  13.090  1.00  0.00     0.162 HD
ENDROOT
BRANCH   1   5
HETATM    5  C   UNL     1     -41.914 -54.260  13.752  1.00  0.00     0.098 C 
HETATM    6  C   UNL     1     -40.999 -53.665  12.685  1.00  0.00     0.034 C 
BRANCH   5   7
HETATM    7  C   UNL     1     -41.489 -53.872  15.182  1.00  0.00     0.153 C 
BRANCH   7   8
HETATM    8  N   UNL     1     -40.550 -54.790  15.795  1.00  0.00    -0.350 N 
HETATM    9  C   UNL     1     -39.187 -54.712  15.741  1.00  0.00     0.108 A 
HETATM   10  C   UNL     1     -38.742 -55.784  16.482  1.00  0.00     0.106 A 
HETATM   11  N   UNL     1     -39.798 -56.501  16.980  1.00  0.00    -0.361 N 
HETATM   12  C   UNL     1     -40.874 -55.869  16.567  1.00  0.00     0.182 A 
ATOM     13  HN  UNL     1     -39.758 -57.346  17.550  1.00  0.00     0.166 HD
ENDBRANCH   7   8
ENDBRANCH   5   7
ENDBRANCH   1   5
BRANCH   2  14
HETATM   14  C   UNL     1     -45.732 -54.012  13.652  1.00  0.00     0.081 C 
HETATM   15  C   UNL     1     -45.664 -52.816  12.688  1.00  0.00     0.018 C 
HETATM   16  C   UNL     1     -45.918 -51.418  13.259  1.00  0.00     0.027 C 
HETATM   17  C   UNL     1     -46.623 -51.362  14.570  1.00  0.00    -0.031 C 
HETATM   18  C   UNL     1     -46.892 -52.432  15.323  1.00  0.00    -0.030 C 
HETATM   19  C   UNL     1     -46.525 -53.831  14.956  1.00  0.00     0.041 C 
ENDBRANCH   2  14
TORSDOF 4
ENDMDL
MODEL 5
REMARK VINA RESULT:      -5.1      4.839      7.537
REMARK  4 active torsions:
REMARK  status: ('A' for Active; 'I' for Inactive)
REMARK    1  A    between atoms: C_2  and  C_3 
REMARK    2  A    between atoms: C_2  and  N_10 
REMARK    3  A    between atoms: C_3  and  N_4 
REMARK       I    between atoms: N_10  and  C_11 
REMARK    4  A    between atoms: C_11  and  C_13 
ROOT
HETATM    1  N   UNL     1     -39.936 -47.134  10.976  1.00  0.00    -0.355 N 
HETATM    2  C   UNL     1     -39.465 -47.954  11.974  1.00  0.00     0.222 C 
HETATM    3  O   UNL     1     -39.206 -47.543  13.100  1.00  0.00    -0.273 OA
HETATM    4  H   UNL     1     -40.291 -47.556  10.127  1.00  0.00     0.162 HD
ENDROOT
BRANCH   1   5
HETATM    5  C   UNL     1     -40.158 -45.708  11.217  1.00  0.00     0.098 C 
HETATM    6  C   UNL     1     -39.565 -44.909  10.059  1.00  0.00     0.034 C 
BRANCH   5   7
HETATM    7  C   UNL     1     -41.654 -45.409  11.438  1.00  0.00     0.153 C 
BRANCH   7   8
HETATM    8  N   UNL     1     -42.551 -46.342  10.785  1.00  0.00    -0.350 N 
HETATM    9  C   UNL     1     -42.895 -46.344   9.463  1.00  0.00     0.108 A 
HETATM   10  C   UNL     1     -43.745 -47.418   9.320  1.00  0.00     0.106 A 
HETATM   11  N   UNL     1     -43.920 -48.061  10.518  1.00  0.00    -0.361 N 
HETATM   12  C   UNL     1     -43.175 -47.403  11.377  1.00  0.00     0.182 A 
ATOM     13  HN  UNL     1     -44.504 -48.875  10.703  1.00  0.00     0.166 HD
ENDBRANCH   7   8
ENDBRANCH   5   7
ENDBRANCH   1   5
BRANCH   2  14
HETATM   14  C   UNL     1     -39.330 -49.425  11.603  1.00  0.00     0.081 C 
HETATM   15  C   UNL     1     -40.273 -50.319  12.426  1.00  0.00     0.018 C 
HETATM   16  C   UNL     1     -39.658 -51.197  13.519  1.00  0.00     0.027 C 
HETATM   17  C   UNL     1     -38.193 -51.445  13.416  1.00  0.00    -0.031 C 
HETATM   18  C   UNL     1     -37.388 -50.833  12.544  1.00  0.00    -0.030 C 
HETATM   19  C   UNL     1     -37.845 -49.816  11.551  1.00  0.00     0.041 C 
ENDBRANCH   2  14
TORSDOF 4
ENDMDL
MODEL 6
REMARK VINA RESULT:      -5.0      2.374      3.788
REMARK  4 active torsions:
REMARK  status: ('A' for Active; 'I' for Inactive)
REMARK    1  A    between atoms: C_2  and  C_3 
REMARK    2  A    between atoms: C_2  and  N_10 
REMARK    3  A    between atoms: C_3  and  N_4 
REMARK       I    between atoms: N_10  and  C_11 
REMARK    4  A    between atoms: C_11  and  C_13 
ROOT
HETATM    1  N   UNL     1     -42.686 -50.386  12.542  1.00  0.00    -0.355 N 
HETATM    2  C   UNL     1     -42.584 -51.757  12.526  1.00  0.00     0.222 C 
HETATM    3  O   UNL     1     -41.687 -52.345  11.931  1.00  0.00    -0.273 OA
HETATM    4  H   UNL     1     -43.340 -49.955  13.183  1.00  0.00     0.162 HD
ENDROOT
BRANCH   1   5
HETATM    5  C   UNL     1     -41.711 -49.551  11.840  1.00  0.00     0.098 C 
HETATM    6  C   UNL     1     -42.435 -48.367  11.203  1.00  0.00     0.034 C 
BRANCH   5   7
HETATM    7  C   UNL     1     -40.574 -49.113  12.784  1.00  0.00     0.153 C 
BRANCH   7   8
HETATM    8  N   UNL     1     -39.329 -49.828  12.590  1.00  0.00    -0.350 N 
HETATM    9  C   UNL     1     -38.678 -50.590  13.519  1.00  0.00     0.108 A 
HETATM   10  C   UNL     1     -37.567 -51.072  12.865  1.00  0.00     0.106 A 
HETATM   11  N   UNL     1     -37.532 -50.623  11.571  1.00  0.00    -0.361 N 
HETATM   12  C   UNL     1     -38.615 -49.892  11.427  1.00  0.00     0.182 A 
ATOM     13  HN  UNL     1     -36.818 -50.814  10.868  1.00  0.00     0.166 HD
ENDBRANCH   7   8
ENDBRANCH   5   7
ENDBRANCH   1   5
BRANCH   2  14
HETATM   14  C   UNL     1     -43.634 -52.501  13.340  1.00  0.00     0.081 C 
HETATM   15  C   UNL     1     -44.743 -53.092  12.454  1.00  0.00     0.018 C 
HETATM   16  C   UNL     1     -46.119 -52.422  12.484  1.00  0.00     0.027 C 
HETATM   17  C   UNL     1     -46.400 -51.549  13.657  1.00  0.00    -0.031 C 
HETATM   18  C   UNL     1     -45.489 -51.204  14.570  1.00  0.00    -0.030 C 
HETATM   19  C   UNL     1     -44.064 -51.647  14.543  1.00  0.00     0.041 C 
ENDBRANCH   2  14
TORSDOF 4
ENDMDL
MODEL 7
REMARK VINA RESULT:      -5.0      3.142      4.108
REMARK  4 active torsions:
REMARK  status: ('A' for Active; 'I' for Inactive)
REMARK    1  A    between atoms: C_2  and  C_3 
REMARK    2  A    between atoms: C_2  and  N_10 
REMARK    3  A    between atoms: C_3  and  N_4 
REMARK       I    between atoms: N_10  and  C_11 
REMARK    4  A    between atoms: C_11  and  C_13 
ROOT
HETATM    1  N   UNL     1     -43.050 -51.252  12.562  1.00  0.00    -0.355 N 
HETATM    2  C   UNL     1     -44.210 -51.291  13.298  1.00  0.00     0.222 C 
HETATM    3  O   UNL     1     -44.429 -50.520  14.226  1.00  0.00    -0.273 OA
HETATM    4  H   UNL     1     -42.997 -51.794  11.708  1.00  0.00     0.162 HD
ENDROOT
BRANCH   1   5
HETATM    5  C   UNL     1     -42.005 -50.270  12.855  1.00  0.00     0.098 C 
HETATM    6  C   UNL     1     -40.913 -50.937  13.688  1.00  0.00     0.034 C 
BRANCH   5   7
HETATM    7  C   UNL     1     -41.460 -49.638  11.559  1.00  0.00     0.153 C 
BRANCH   7   8
HETATM    8  N   UNL     1     -41.986 -48.318  11.273  1.00  0.00    -0.350 N 
HETATM    9  C   UNL     1     -41.284 -47.256  10.777  1.00  0.00     0.108 A 
HETATM   10  C   UNL     1     -42.210 -46.244  10.659  1.00  0.00     0.106 A 
HETATM   11  N   UNL     1     -43.448 -46.669  11.067  1.00  0.00    -0.361 N 
HETATM   12  C   UNL     1     -43.287 -47.926  11.413  1.00  0.00     0.182 A 
ATOM     13  HN  UNL     1     -44.310 -46.125  11.097  1.00  0.00     0.166 HD
ENDBRANCH   7   8
ENDBRANCH   5   7
ENDBRANCH   1   5
BRANCH   2  14
HETATM   14  C   UNL     1     -45.234 -52.326  12.852  1.00  0.00     0.081 C 
HETATM   15  C   UNL     1     -46.554 -52.210  13.634  1.00  0.00     0.018 C 
HETATM   16  C   UNL     1     -46.867 -53.285  14.677  1.00  0.00     0.027 C 
HETATM   17  C   UNL     1     -46.109 -54.561  14.555  1.00  0.00    -0.031 C 
HETATM   18  C   UNL     1     -45.092 -54.751  13.710  1.00  0.00    -0.030 C 
HETATM   19  C   UNL     1     -44.574 -53.712  12.773  1.00  0.00     0.041 C 
ENDBRANCH   2  14
TORSDOF 4
ENDMDL
MODEL 8
REMARK VINA RESULT:      -5.0      2.128      2.755
REMARK  4 active torsions:
REMARK  status: ('A' for Active; 'I' for Inactive)
REMARK    1  A    between atoms: C_2  and  C_3 
REMARK    2  A    between atoms: C_2  and  N_10 
REMARK    3  A    between atoms: C_3  and  N_4 
REMARK       I    between atoms: N_10  and  C_11 
REMARK    4  A    between atoms: C_11  and  C_13 
ROOT
HETATM    1  N   UNL     1     -42.704 -52.716  13.438  1.00  0.00    -0.355 N 
HETATM    2  C   UNL     1     -43.804 -51.951  13.132  1.00  0.00     0.222 C 
HETATM    3  O   UNL     1     -43.761 -50.726  13.076  1.00  0.00    -0.273 OA
HETATM    4  H   UNL     1     -42.756 -53.718  13.303  1.00  0.00     0.162 HD
ENDROOT
BRANCH   1   5
HETATM    5  C   UNL     1     -41.408 -52.095  13.714  1.00  0.00     0.098 C 
HETATM    6  C   UNL     1     -40.780 -52.771  14.930  1.00  0.00     0.034 C 
BRANCH   5   7
HETATM    7  C   UNL     1     -40.496 -52.140  12.472  1.00  0.00     0.153 C 
BRANCH   7   8
HETATM    8  N   UNL     1     -39.883 -50.870  12.136  1.00  0.00    -0.350 N 
HETATM    9  C   UNL     1     -38.656 -50.429  12.544  1.00  0.00     0.108 A 
HETATM   10  C   UNL     1     -38.512 -49.193  11.957  1.00  0.00     0.106 A 
HETATM   11  N   UNL     1     -39.616 -48.879  11.207  1.00  0.00    -0.361 N 
HETATM   12  C   UNL     1     -40.416 -49.916  11.318  1.00  0.00     0.182 A 
ATOM     13  HN  UNL     1     -39.781 -48.024  10.677  1.00  0.00     0.166 HD
ENDBRANCH   7   8
ENDBRANCH   5   7
ENDBRANCH   1   5
BRANCH   2  14
HETATM   14  C   UNL     1     -45.075 -52.728  12.815  1.00  0.00     0.081 C 
HETATM   15  C   UNL     1     -46.294 -52.181  13.577  1.00  0.00     0.018 C 
HETATM   16  C   UNL     1     -46.841 -53.008  14.743  1.00  0.00     0.027 C 
HETATM   17  C   UNL     1     -46.444 -54.443  14.775  1.00  0.00    -0.031 C 
HETATM   18  C   UNL     1     -45.538 -54.989  13.960  1.00  0.00    -0.030 C 
HETATM   19  C   UNL     1     -44.799 -54.237  12.903  1.00  0.00     0.041 C 
ENDBRANCH   2  14
TORSDOF 4
ENDMDL
MODEL 9
REMARK VINA RESULT:      -4.8      4.109      7.079
REMARK  4 active torsions:
REMARK  status: ('A' for Active; 'I' for Inactive)
REMARK    1  A    between atoms: C_2  and  C_3 
REMARK    2  A    between atoms: C_2  and  N_10 
REMARK    3  A    between atoms: C_3  and  N_4 
REMARK       I    between atoms: N_10  and  C_11 
REMARK    4  A    between atoms: C_11  and  C_13 
ROOT
HETATM    1  N   UNL     1     -41.119 -48.658  12.673  1.00  0.00    -0.355 N 
HETATM    2  C   UNL     1     -40.213 -49.063  11.722  1.00  0.00     0.222 C 
HETATM    3  O   UNL     1     -40.554 -49.534  10.642  1.00  0.00    -0.273 OA
HETATM    4  H   UNL     1     -40.786 -48.125  13.466  1.00  0.00     0.162 HD
ENDROOT
BRANCH   1   5
HETATM    5  C   UNL     1     -42.559 -48.771  12.436  1.00  0.00     0.098 C 
HETATM    6  C   UNL     1     -43.214 -49.430  13.647  1.00  0.00     0.034 C 
BRANCH   5   7
HETATM    7  C   UNL     1     -43.174 -47.397  12.103  1.00  0.00     0.153 C 
BRANCH   7   8
HETATM    8  N   UNL     1     -43.303 -47.130  10.684  1.00  0.00    -0.350 N 
HETATM    9  C   UNL     1     -44.380 -47.430   9.898  1.00  0.00     0.108 A 
HETATM   10  C   UNL     1     -44.042 -46.970   8.645  1.00  0.00     0.106 A 
HETATM   11  N   UNL     1     -42.795 -46.401   8.657  1.00  0.00    -0.361 N 
HETATM   12  C   UNL     1     -42.383 -46.495   9.901  1.00  0.00     0.182 A 
ATOM     13  HN  UNL     1     -42.294 -45.993   7.869  1.00  0.00     0.166 HD
ENDBRANCH   7   8
ENDBRANCH   5   7
ENDBRANCH   1   5
BRANCH   2  14
HETATM   14  C   UNL     1     -38.748 -48.841  12.077  1.00  0.00     0.081 C 
HETATM   15  C   UNL     1     -37.866 -50.035  11.674  1.00  0.00     0.018 C 
HETATM   16  C   UNL     1     -37.336 -50.943  12.786  1.00  0.00     0.027 C 
HETATM   17  C   UNL     1     -37.346 -50.373  14.162  1.00  0.00    -0.031 C 
HETATM   18  C   UNL     1     -37.922 -49.213  14.488  1.00  0.00    -0.030 C 
HETATM   19  C   UNL     1     -38.634 -48.327  13.520  1.00  0.00     0.041 C 
ENDBRANCH   2  14
TORSDOF 4
ENDMDL
