MODEL 1
REMARK VINA RESULT:      -5.9      0.000      0.000
REMARK  5 active torsions:
REMARK  status: ('A' for Active; 'I' for Inactive)
REMARK    1  A    between atoms: C_2  and  C_4 
REMARK    2  A    between atoms: C_7  and  C_8 
REMARK    3  A    between atoms: C_8  and  C_9 
REMARK       I    between atoms: C_9  and  N_11 
REMARK    4  A    between atoms: N_11  and  C_12 
REMARK    5  A    between atoms: C_12  and  C_13 
ROOT
HETATM    1  C   UNL     1     -40.420 -49.518  11.434  1.00  0.00     0.160 C 
ENDROOT
BRANCH   1   2
HETATM    2  C   UNL     1     -41.123 -48.328  10.867  1.00  0.00     0.025 A 
HETATM    3  N   UNL     1     -42.209 -48.510  10.019  1.00  0.00    -0.356 N 
HETATM    4  C   UNL     1     -42.740 -47.347   9.700  1.00  0.00     0.054 A 
ATOM      5  HN  UNL     1     -42.546 -49.414   9.690  1.00  0.00     0.166 HD
HETATM    6  S   UNL     1     -41.962 -45.974  10.386  1.00  0.00    -0.086 SA
HETATM    7  C   UNL     1     -40.842 -47.006  11.162  1.00  0.00     0.077 A 
BRANCH   4   8
HETATM    8  C   UNL     1     -43.933 -47.160   8.796  1.00  0.00     0.035 C 
HETATM    9  C   UNL     1     -43.772 -47.995   7.525  1.00  0.00     0.016 C 
HETATM   10  C   UNL     1     -45.232 -47.517   9.519  1.00  0.00     0.016 C 
ENDBRANCH   4   8
ENDBRANCH   1   2
BRANCH   1  11
HETATM   11  C   UNL     1     -41.307 -50.613  11.993  1.00  0.00     0.223 C 
HETATM   12  O   UNL     1     -42.270 -50.327  12.710  1.00  0.00    -0.273 OA
HETATM   13  N   UNL     1     -41.064 -51.905  11.589  1.00  0.00    -0.358 N 
HETATM   14  H   UNL     1     -40.149 -52.116  11.190  1.00  0.00     0.162 HD
BRANCH  13  15
HETATM   15  C   UNL     1     -41.865 -52.987  12.131  1.00  0.00     0.154 C 
BRANCH  15  16
HETATM   16  C   UNL     1     -41.061 -54.034  12.896  1.00  0.00     0.139 C 
HETATM   17  C   UNL     1     -41.632 -54.279  14.290  1.00  0.00     0.035 C 
HETATM   18  C   UNL     1     -40.423 -54.423  15.190  1.00  0.00     0.029 C 
HETATM   19  C   UNL     1     -39.232 -54.266  14.270  1.00  0.00     0.168 C 
HETATM   20  O   UNL     1     -39.709 -53.588  13.104  1.00  0.00    -0.384 OA
ENDBRANCH  15  16
ENDBRANCH  13  15
ENDBRANCH   1  11
TORSDOF 5
ENDMDL
MODEL 2
REMARK VINA RESULT:      -5.8      1.615      2.246
REMARK  5 active torsions:
REMARK  status: ('A' for Active; 'I' for Inactive)
REMARK    1  A    between atoms: C_2  and  C_4 
REMARK    2  A    between atoms: C_7  and  C_8 
REMARK    3  A    between atoms: C_8  and  C_9 
REMARK       I    between atoms: C_9  and  N_11 
REMARK    4  A    between atoms: N_11  and  C_12 
REMARK    5  A    between atoms: C_12  and  C_13 
ROOT
HETATM    1  C   UNL     1     -39.911 -49.679  11.126  1.00  0.00     0.160 C 
ENDROOT
BRANCH   1   2
HETATM    2  C   UNL     1     -41.102 -48.779  11.067  1.00  0.00     0.025 A 
HETATM    3  N   UNL     1     -41.690 -48.495   9.841  1.00  0.00    -0.356 N 
HETATM    4  C   UNL     1     -42.771 -47.761  10.011  1.00  0.00     0.054 A 
ATOM      5  HN  UNL     1     -41.335 -48.810   8.938  1.00  0.00     0.166 HD
HETATM    6  S   UNL     1     -43.134 -47.359  11.644  1.00  0.00    -0.086 SA
HETATM    7  C   UNL     1     -41.754 -48.228  12.156  1.00  0.00     0.077 A 
BRANCH   4   8
HETATM    8  C   UNL     1     -43.661 -47.263   8.899  1.00  0.00     0.035 C 
HETATM    9  C   UNL     1     -43.332 -47.982   7.591  1.00  0.00     0.016 C 
HETATM   10  C   UNL     1     -45.137 -47.437   9.258  1.00  0.00     0.016 C 
ENDBRANCH   4   8
ENDBRANCH   1   2
BRANCH   1  11
HETATM   11  C   UNL     1     -40.123 -51.021  11.798  1.00  0.00     0.223 C 
HETATM   12  O   UNL     1     -39.305 -51.440  12.621  1.00  0.00    -0.273 OA
HETATM   13  N   UNL     1     -41.296 -51.692  11.537  1.00  0.00    -0.358 N 
HETATM   14  H   UNL     1     -41.822 -51.427  10.704  1.00  0.00     0.162 HD
BRANCH  13  15
HETATM   15  C   UNL     1     -41.521 -52.997  12.129  1.00  0.00     0.154 C 
BRANCH  15  16
HETATM   16  C   UNL     1     -42.737 -53.061  13.050  1.00  0.00     0.139 C 
HETATM   17  C   UNL     1     -42.590 -54.151  14.107  1.00  0.00     0.035 C 
HETATM   18  C   UNL     1     -43.964 -54.778  14.218  1.00  0.00     0.029 C 
HETATM   19  C   UNL     1     -44.822 -54.012  13.234  1.00  0.00     0.168 C 
HETATM   20  O   UNL     1     -43.922 -53.398  12.307  1.00  0.00    -0.384 OA
ENDBRANCH  15  16
ENDBRANCH  13  15
ENDBRANCH   1  11
TORSDOF 5
ENDMDL
MODEL 3
REMARK VINA RESULT:      -5.8      3.404      6.935
REMARK  5 active torsions:
REMARK  status: ('A' for Active; 'I' for Inactive)
REMARK    1  A    between atoms: C_2  and  C_4 
REMARK    2  A    between atoms: C_7  and  C_8 
REMARK    3  A    between atoms: C_8  and  C_9 
REMARK       I    between atoms: C_9  and  N_11 
REMARK    4  A    between atoms: N_11  and  C_12 
REMARK    5  A    between atoms: C_12  and  C_13 
ROOT
HETATM    1  C   UNL     1     -41.584 -50.875  12.201  1.00  0.00     0.160 C 
ENDROOT
BRANCH   1   2
HETATM    2  C   UNL     1     -42.637 -51.706  12.856  1.00  0.00     0.025 A 
HETATM    3  N   UNL     1     -43.976 -51.370  12.699  1.00  0.00    -0.356 N 
HETATM    4  C   UNL     1     -44.746 -52.271  13.276  1.00  0.00     0.054 A 
ATOM      5  HN  UNL     1     -44.315 -50.543  12.207  1.00  0.00     0.166 HD
HETATM    6  S   UNL     1     -43.909 -53.561  14.049  1.00  0.00    -0.086 SA
HETATM    7  C   UNL     1     -42.420 -52.867  13.577  1.00  0.00     0.077 A 
BRANCH   4   8
HETATM    8  C   UNL     1     -46.253 -52.228  13.307  1.00  0.00     0.035 C 
HETATM    9  C   UNL     1     -46.737 -51.392  14.491  1.00  0.00     0.016 C 
HETATM   10  C   UNL     1     -46.814 -51.685  11.993  1.00  0.00     0.016 C 
ENDBRANCH   4   8
ENDBRANCH   1   2
BRANCH   1  11
HETATM   11  C   UNL     1     -41.962 -49.438  11.898  1.00  0.00     0.223 C 
HETATM   12  O   UNL     1     -42.330 -48.688  12.805  1.00  0.00    -0.273 OA
HETATM   13  N   UNL     1     -41.779 -48.984  10.612  1.00  0.00    -0.358 N 
HETATM   14  H   UNL     1     -41.691 -49.678   9.869  1.00  0.00     0.162 HD
BRANCH  13  15
HETATM   15  C   UNL     1     -42.163 -47.627  10.271  1.00  0.00     0.154 C 
BRANCH  15  16
HETATM   16  C   UNL     1     -43.378 -47.538   9.350  1.00  0.00     0.139 C 
HETATM   17  C   UNL     1     -43.607 -46.113   8.853  1.00  0.00     0.035 C 
HETATM   18  C   UNL     1     -45.108 -45.924   8.882  1.00  0.00     0.029 C 
HETATM   19  C   UNL     1     -45.657 -47.244   9.379  1.00  0.00     0.168 C 
HETATM   20  O   UNL     1     -44.579 -47.902  10.052  1.00  0.00    -0.384 OA
ENDBRANCH  15  16
ENDBRANCH  13  15
ENDBRANCH   1  11
TORSDOF 5
ENDMDL
MODEL 4
REMARK VINA RESULT:      -5.7      3.398      6.051
REMARK  5 active torsions:
REMARK  status: ('A' for Active; 'I' for Inactive)
REMARK    1  A    between atoms: C_2  and  C_4 
REMARK    2  A    between atoms: C_7  and  C_8 
REMARK    3  A    between atoms: C_8  and  C_9 
REMARK       I    between atoms: C_9  and  N_11 
REMARK    4  A    between atoms: N_11  and  C_12 
REMARK    5  A    between atoms: C_12  and  C_13 
ROOT
HETATM    1  C   UNL     1     -41.251 -52.684  12.091  1.00  0.00     0.160 C 
ENDROOT
BRANCH   1   2
HETATM    2  C   UNL     1     -42.622 -52.864  12.656  1.00  0.00     0.025 A 
HETATM    3  N   UNL     1     -43.557 -51.844  12.531  1.00  0.00    -0.356 N 
HETATM    4  C   UNL     1     -44.722 -52.229  13.012  1.00  0.00     0.054 A 
ATOM      5  HN  UNL     1     -43.368 -50.927  12.126  1.00  0.00     0.166 HD
HETATM    6  S   UNL     1     -44.757 -53.826  13.652  1.00  0.00    -0.086 SA
HETATM    7  C   UNL     1     -43.105 -54.013  13.255  1.00  0.00     0.077 A 
BRANCH   4   8
HETATM    8  C   UNL     1     -45.967 -51.379  13.045  1.00  0.00     0.035 C 
HETATM    9  C   UNL     1     -46.915 -51.779  11.915  1.00  0.00     0.016 C 
HETATM   10  C   UNL     1     -46.667 -51.481  14.401  1.00  0.00     0.016 C 
ENDBRANCH   4   8
ENDBRANCH   1   2
BRANCH   1  11
HETATM   11  C   UNL     1     -40.630 -51.313  12.273  1.00  0.00     0.223 C 
HETATM   12  O   UNL     1     -40.087 -51.014  13.340  1.00  0.00    -0.273 OA
HETATM   13  N   UNL     1     -40.602 -50.471  11.185  1.00  0.00    -0.358 N 
HETATM   14  H   UNL     1     -41.243 -50.664  10.415  1.00  0.00     0.162 HD
BRANCH  13  15
HETATM   15  C   UNL     1     -40.050 -49.136  11.328  1.00  0.00     0.154 C 
BRANCH  15  16
HETATM   16  C   UNL     1     -41.062 -48.017  11.093  1.00  0.00     0.139 C 
HETATM   17  C   UNL     1     -42.062 -47.908  12.241  1.00  0.00     0.035 C 
HETATM   18  C   UNL     1     -43.393 -47.631  11.576  1.00  0.00     0.029 C 
HETATM   19  C   UNL     1     -43.087 -47.585  10.095  1.00  0.00     0.168 C 
HETATM   20  O   UNL     1     -41.848 -48.278   9.917  1.00  0.00    -0.384 OA
ENDBRANCH  15  16
ENDBRANCH  13  15
ENDBRANCH   1  11
TORSDOF 5
ENDMDL
MODEL 5
REMARK VINA RESULT:      -5.7      3.736      5.750
REMARK  5 active torsions:
REMARK  status: ('A' for Active; 'I' for Inactive)
REMARK    1  A    between atoms: C_2  and  C_4 
REMARK    2  A    between atoms: C_7  and  C_8 
REMARK    3  A    between atoms: C_8  and  C_9 
REMARK       I    between atoms: C_9  and  N_11 
REMARK    4  A    between atoms: N_11  and  C_12 
REMARK    5  A    between atoms: C_12  and  C_13 
ROOT
HETATM    1  C   UNL     1     -41.740 -52.651  12.061  1.00  0.00     0.160 C 
ENDROOT
BRANCH   1   2
HETATM    2  C   UNL     1     -43.012 -53.082  12.713  1.00  0.00     0.025 A 
HETATM    3  N   UNL     1     -44.158 -52.309  12.565  1.00  0.00    -0.356 N 
HETATM    4  C   UNL     1     -45.187 -52.900  13.137  1.00  0.00     0.054 A 
ATOM      5  HN  UNL     1     -44.196 -51.412  12.082  1.00  0.00     0.166 HD
HETATM    6  S   UNL     1     -44.837 -54.405  13.895  1.00  0.00    -0.086 SA
HETATM    7  C   UNL     1     -43.201 -54.254  13.422  1.00  0.00     0.077 A 
BRANCH   4   8
HETATM    8  C   UNL     1     -46.589 -52.348  13.175  1.00  0.00     0.035 C 
HETATM    9  C   UNL     1     -46.749 -51.382  14.349  1.00  0.00     0.016 C 
HETATM   10  C   UNL     1     -46.946 -51.663  11.856  1.00  0.00     0.016 C 
ENDBRANCH   4   8
ENDBRANCH   1   2
BRANCH   1  11
HETATM   11  C   UNL     1     -41.424 -51.170  12.129  1.00  0.00     0.223 C 
HETATM   12  O   UNL     1     -41.845 -50.487  13.066  1.00  0.00    -0.273 OA
HETATM   13  N   UNL     1     -40.575 -50.650  11.178  1.00  0.00    -0.358 N 
HETATM   14  H   UNL     1     -40.437 -51.183  10.319  1.00  0.00     0.162 HD
BRANCH  13  15
HETATM   15  C   UNL     1     -40.278 -49.230  11.185  1.00  0.00     0.154 C 
BRANCH  15  16
HETATM   16  C   UNL     1     -38.957 -48.875  11.865  1.00  0.00     0.139 C 
HETATM   17  C   UNL     1     -38.012 -50.072  11.925  1.00  0.00     0.035 C 
HETATM   18  C   UNL     1     -37.363 -49.992  13.290  1.00  0.00     0.029 C 
HETATM   19  C   UNL     1     -37.957 -48.756  13.931  1.00  0.00     0.168 C 
HETATM   20  O   UNL     1     -39.175 -48.485  13.232  1.00  0.00    -0.384 OA
ENDBRANCH  15  16
ENDBRANCH  13  15
ENDBRANCH   1  11
TORSDOF 5
ENDMDL
MODEL 6
REMARK VINA RESULT:      -5.6      2.331      3.089
REMARK  5 active torsions:
REMARK  status: ('A' for Active; 'I' for Inactive)
REMARK    1  A    between atoms: C_2  and  C_4 
REMARK    2  A    between atoms: C_7  and  C_8 
REMARK    3  A    between atoms: C_8  and  C_9 
REMARK       I    between atoms: C_9  and  N_11 
REMARK    4  A    between atoms: N_11  and  C_12 
REMARK    5  A    between atoms: C_12  and  C_13 
ROOT
HETATM    1  C   UNL     1     -40.509 -49.991  11.468  1.00  0.00     0.160 C 
ENDROOT
BRANCH   1   2
HETATM    2  C   UNL     1     -41.099 -48.704  10.994  1.00  0.00     0.025 A 
HETATM    3  N   UNL     1     -42.130 -48.722  10.062  1.00  0.00    -0.356 N 
HETATM    4  C   UNL     1     -42.569 -47.499   9.842  1.00  0.00     0.054 A 
ATOM      5  HN  UNL     1     -42.493 -49.562   9.612  1.00  0.00     0.166 HD
HETATM    6  S   UNL     1     -41.764 -46.262  10.728  1.00  0.00    -0.086 SA
HETATM    7  C   UNL     1     -40.765 -47.443  11.454  1.00  0.00     0.077 A 
BRANCH   4   8
HETATM    8  C   UNL     1     -43.680 -47.139   8.889  1.00  0.00     0.035 C 
HETATM    9  C   UNL     1     -43.522 -47.902   7.574  1.00  0.00     0.016 C 
HETATM   10  C   UNL     1     -45.050 -47.410   9.512  1.00  0.00     0.016 C 
ENDBRANCH   4   8
ENDBRANCH   1   2
BRANCH   1  11
HETATM   11  C   UNL     1     -41.335 -50.776  12.469  1.00  0.00     0.223 C 
HETATM   12  O   UNL     1     -41.299 -50.485  13.667  1.00  0.00    -0.273 OA
HETATM   13  N   UNL     1     -42.191 -51.737  11.982  1.00  0.00    -0.358 N 
HETATM   14  H   UNL     1     -42.026 -52.088  11.038  1.00  0.00     0.162 HD
BRANCH  13  15
HETATM   15  C   UNL     1     -42.971 -52.535  12.908  1.00  0.00     0.154 C 
BRANCH  15  16
HETATM   16  C   UNL     1     -44.479 -52.329  12.790  1.00  0.00     0.139 C 
HETATM   17  C   UNL     1     -44.934 -51.061  13.508  1.00  0.00     0.035 C 
HETATM   18  C   UNL     1     -46.239 -51.436  14.176  1.00  0.00     0.029 C 
HETATM   19  C   UNL     1     -46.468 -52.884  13.799  1.00  0.00     0.168 C 
HETATM   20  O   UNL     1     -45.193 -53.408  13.419  1.00  0.00    -0.384 OA
ENDBRANCH  15  16
ENDBRANCH  13  15
ENDBRANCH   1  11
TORSDOF 5
ENDMDL
MODEL 7
REMARK VINA RESULT:      -5.0      3.525      5.561
REMARK  5 active torsions:
REMARK  status: ('A' for Active; 'I' for Inactive)
REMARK    1  A    between atoms: C_2  and  C_4 
REMARK    2  A    between atoms: C_7  and  C_8 
REMARK    3  A    between atoms: C_8  and  C_9 
REMARK       I    between atoms: C_9  and  N_11 
REMARK    4  A    between atoms: N_11  and  C_12 
REMARK    5  A    between atoms: C_12  and  C_13 
ROOT
HETATM    1  C   UNL     1     -41.861 -53.754  12.770  1.00  0.00     0.160 C 
ENDROOT
BRANCH   1   2
HETATM    2  C   UNL     1     -41.623 -52.291  12.595  1.00  0.00     0.025 A 
HETATM    3  N   UNL     1     -40.387 -51.843  12.145  1.00  0.00    -0.356 N 
HETATM    4  C   UNL     1     -40.407 -50.537  11.974  1.00  0.00     0.054 A 
ATOM      5  HN  UNL     1     -39.579 -52.442  11.972  1.00  0.00     0.166 HD
HETATM    6  S   UNL     1     -41.900 -49.772  12.357  1.00  0.00    -0.086 SA
HETATM    7  C   UNL     1     -42.562 -51.291  12.775  1.00  0.00     0.077 A 
BRANCH   4   8
HETATM    8  C   UNL     1     -39.240 -49.710  11.497  1.00  0.00     0.035 C 
HETATM    9  C   UNL     1     -39.345 -48.282  12.031  1.00  0.00     0.016 C 
HETATM   10  C   UNL     1     -37.911 -50.346  11.908  1.00  0.00     0.016 C 
ENDBRANCH   4   8
ENDBRANCH   1   2
BRANCH   1  11
HETATM   11  C   UNL     1     -42.981 -54.139  13.717  1.00  0.00     0.223 C 
HETATM   12  O   UNL     1     -42.798 -54.116  14.937  1.00  0.00    -0.273 OA
HETATM   13  N   UNL     1     -44.217 -54.408  13.175  1.00  0.00    -0.358 N 
HETATM   14  H   UNL     1     -44.263 -54.631  12.180  1.00  0.00     0.162 HD
BRANCH  13  15
HETATM   15  C   UNL     1     -45.305 -54.817  14.043  1.00  0.00     0.154 C 
BRANCH  15  16
HETATM   16  C   UNL     1     -46.364 -53.739  14.262  1.00  0.00     0.139 C 
HETATM   17  C   UNL     1     -46.240 -52.609  13.244  1.00  0.00     0.035 C 
HETATM   18  C   UNL     1     -46.499 -51.342  14.031  1.00  0.00     0.029 C 
HETATM   19  C   UNL     1     -46.767 -51.810  15.445  1.00  0.00     0.168 C 
HETATM   20  O   UNL     1     -46.202 -53.120  15.551  1.00  0.00    -0.384 OA
ENDBRANCH  15  16
ENDBRANCH  13  15
ENDBRANCH   1  11
TORSDOF 5
ENDMDL
MODEL 8
REMARK VINA RESULT:      -5.0      3.074      4.312
REMARK  5 active torsions:
REMARK  status: ('A' for Active; 'I' for Inactive)
REMARK    1  A    between atoms: C_2  and  C_4 
REMARK    2  A    between atoms: C_7  and  C_8 
REMARK    3  A    between atoms: C_8  and  C_9 
REMARK       I    between atoms: C_9  and  N_11 
REMARK    4  A    between atoms: N_11  and  C_12 
REMARK    5  A    between atoms: C_12  and  C_13 
ROOT
HETATM    1  C   UNL     1     -41.226 -52.560  11.949  1.00  0.00     0.160 C 
ENDROOT
BRANCH   1   2
HETATM    2  C   UNL     1     -41.052 -51.116  12.289  1.00  0.00     0.025 A 
HETATM    3  N   UNL     1     -41.658 -50.145  11.500  1.00  0.00    -0.356 N 
HETATM    4  C   UNL     1     -41.458 -48.948  12.013  1.00  0.00     0.054 A 
ATOM      5  HN  UNL     1     -42.182 -50.333  10.645  1.00  0.00     0.166 HD
HETATM    6  S   UNL     1     -40.524 -48.917  13.458  1.00  0.00    -0.086 SA
HETATM    7  C   UNL     1     -40.381 -50.619  13.392  1.00  0.00     0.077 A 
BRANCH   4   8
HETATM    8  C   UNL     1     -41.969 -47.658  11.421  1.00  0.00     0.035 C 
HETATM    9  C   UNL     1     -42.459 -47.886   9.991  1.00  0.00     0.016 C 
HETATM   10  C   UNL     1     -43.078 -47.058  12.286  1.00  0.00     0.016 C 
ENDBRANCH   4   8
ENDBRANCH   1   2
BRANCH   1  11
HETATM   11  C   UNL     1     -42.187 -53.339  12.826  1.00  0.00     0.223 C 
HETATM   12  O   UNL     1     -41.862 -53.661  13.971  1.00  0.00    -0.273 OA
HETATM   13  N   UNL     1     -43.453 -53.575  12.339  1.00  0.00    -0.358 N 
HETATM   14  H   UNL     1     -43.600 -53.493  11.332  1.00  0.00     0.162 HD
BRANCH  13  15
HETATM   15  C   UNL     1     -44.390 -54.350  13.130  1.00  0.00     0.154 C 
BRANCH  15  16
HETATM   16  C   UNL     1     -45.647 -53.582  13.532  1.00  0.00     0.139 C 
HETATM   17  C   UNL     1     -46.030 -52.537  12.488  1.00  0.00     0.035 C 
HETATM   18  C   UNL     1     -46.481 -51.332  13.285  1.00  0.00     0.029 C 
HETATM   19  C   UNL     1     -46.345 -51.750  14.733  1.00  0.00     0.168 C 
HETATM   20  O   UNL     1     -45.430 -52.850  14.751  1.00  0.00    -0.384 OA
ENDBRANCH  15  16
ENDBRANCH  13  15
ENDBRANCH   1  11
TORSDOF 5
ENDMDL
MODEL 9
REMARK VINA RESULT:      -4.9      4.068      6.006
REMARK  5 active torsions:
REMARK  status: ('A' for Active; 'I' for Inactive)
REMARK    1  A    between atoms: C_2  and  C_4 
REMARK    2  A    between atoms: C_7  and  C_8 
REMARK    3  A    between atoms: C_8  and  C_9 
REMARK       I    between atoms: C_9  and  N_11 
REMARK    4  A    between atoms: N_11  and  C_12 
REMARK    5  A    between atoms: C_12  and  C_13 
ROOT
HETATM    1  C   UNL     1     -40.446 -53.790  14.637  1.00  0.00     0.160 C 
ENDROOT
BRANCH   1   2
HETATM    2  C   UNL     1     -39.694 -52.508  14.783  1.00  0.00     0.025 A 
HETATM    3  N   UNL     1     -39.135 -51.906  13.663  1.00  0.00    -0.356 N 
HETATM    4  C   UNL     1     -38.595 -50.749  13.987  1.00  0.00     0.054 A 
ATOM      5  HN  UNL     1     -39.142 -52.304  12.724  1.00  0.00     0.166 HD
HETATM    6  S   UNL     1     -38.714 -50.325  15.650  1.00  0.00    -0.086 SA
HETATM    7  C   UNL     1     -39.546 -51.787  15.954  1.00  0.00     0.077 A 
BRANCH   4   8
HETATM    8  C   UNL     1     -37.896 -49.822  13.024  1.00  0.00     0.035 C 
HETATM    9  C   UNL     1     -37.380 -50.601  11.814  1.00  0.00     0.016 C 
HETATM   10  C   UNL     1     -38.821 -48.687  12.584  1.00  0.00     0.016 C 
ENDBRANCH   4   8
ENDBRANCH   1   2
BRANCH   1  11
HETATM   11  C   UNL     1     -41.510 -53.819  13.556  1.00  0.00     0.223 C 
HETATM   12  O   UNL     1     -41.194 -53.695  12.370  1.00  0.00    -0.273 OA
HETATM   13  N   UNL     1     -42.804 -54.092  13.937  1.00  0.00    -0.358 N 
HETATM   14  H   UNL     1     -43.049 -53.967  14.919  1.00  0.00     0.162 HD
BRANCH  13  15
HETATM   15  C   UNL     1     -43.857 -54.092  12.939  1.00  0.00     0.154 C 
BRANCH  15  16
HETATM   16  C   UNL     1     -44.550 -52.742  12.767  1.00  0.00     0.139 C 
HETATM   17  C   UNL     1     -44.883 -52.101  14.112  1.00  0.00     0.035 C 
HETATM   18  C   UNL     1     -46.252 -51.486  13.925  1.00  0.00     0.029 C 
HETATM   19  C   UNL     1     -46.626 -51.793  12.491  1.00  0.00     0.168 C 
HETATM   20  O   UNL     1     -45.810 -52.898  12.090  1.00  0.00    -0.384 OA
ENDBRANCH  15  16
ENDBRANCH  13  15
ENDBRANCH   1  11
TORSDOF 5
ENDMDL
