MODEL 1
REMARK VINA RESULT:      -5.7      0.000      0.000
REMARK  6 active torsions:
REMARK  status: ('A' for Active; 'I' for Inactive)
REMARK    1  A    between atoms: S_2  and  C_3 
REMARK    2  A    between atoms: C_3  and  C_4 
REMARK    3  A    between atoms: C_4  and  C_5 
REMARK       I    between atoms: C_5  and  N_7 
REMARK    4  A    between atoms: N_7  and  C_8 
REMARK    5  A    between atoms: C_8  and  C_9 
REMARK    6  A    between atoms: C_12  and  N_16 
ROOT
HETATM    1  C   UNL     1     -41.461 -49.719  11.755  1.00  0.00    -0.025 A 
HETATM    2  C   UNL     1     -42.572 -49.824  12.585  1.00  0.00     0.014 A 
HETATM    3  C   UNL     1     -43.014 -51.086  12.986  1.00  0.00     0.049 A 
HETATM    4  C   UNL     1     -42.364 -52.242  12.552  1.00  0.00     0.103 A 
HETATM    5  N   UNL     1     -41.328 -52.144  11.691  1.00  0.00    -0.352 N 
ATOM      6  HN  UNL     1     -40.877 -52.981  11.324  1.00  0.00     0.166 HD
HETATM    7  C   UNL     1     -40.898 -50.910  11.323  1.00  0.00     0.098 A 
ENDROOT
BRANCH   1   8
HETATM    8  C   UNL     1     -40.893 -48.390  11.362  1.00  0.00     0.162 C 
BRANCH   8   9
HETATM    9  N   UNL     1     -41.557 -47.813  10.217  1.00  0.00    -0.357 N 
HETATM   10  C   UNL     1     -42.503 -46.827  10.407  1.00  0.00     0.218 C 
HETATM   11  O   UNL     1     -42.861 -46.452  11.517  1.00  0.00    -0.274 OA
HETATM   12  H   UNL     1     -41.154 -47.952   9.300  1.00  0.00     0.162 HD
BRANCH  10  13
HETATM   13  C   UNL     1     -43.071 -46.237   9.135  1.00  0.00     0.113 C 
BRANCH  13  14
HETATM   14  C   UNL     1     -43.960 -47.246   8.424  1.00  0.00     0.082 C 
BRANCH  14  15
HETATM   15  S   UNL     1     -45.614 -47.270   9.184  1.00  0.00    -0.173 SA
HETATM   16  C   UNL     1     -46.342 -48.608   8.207  1.00  0.00     0.089 C 
ENDBRANCH  14  15
ENDBRANCH  13  14
ENDBRANCH  10  13
ENDBRANCH   8   9
ENDBRANCH   1   8
BRANCH   4  17
HETATM   17  N   UNL     1     -42.763 -53.489  12.978  1.00  0.00    -0.363 N 
HETATM   18  C   UNL     1     -44.086 -54.043  12.676  1.00  0.00     0.150 C 
HETATM   19  C   UNL     1     -44.821 -54.418  13.972  1.00  0.00     0.188 C 
HETATM   20  O   UNL     1     -44.034 -55.286  14.798  1.00  0.00    -0.383 OA
HETATM   21  C   UNL     1     -42.813 -54.624  15.189  1.00  0.00     0.135 C 
HETATM   22  C   UNL     1     -42.056 -55.589  16.094  1.00  0.00     0.041 C 
HETATM   23  C   UNL     1     -41.966 -54.243  13.954  1.00  0.00     0.155 C 
ENDBRANCH   4  17
TORSDOF 6
ENDMDL
MODEL 2
REMARK VINA RESULT:      -5.7      2.202      7.220
REMARK  6 active torsions:
REMARK  status: ('A' for Active; 'I' for Inactive)
REMARK    1  A    between atoms: S_2  and  C_3 
REMARK    2  A    between atoms: C_3  and  C_4 
REMARK    3  A    between atoms: C_4  and  C_5 
REMARK       I    between atoms: C_5  and  N_7 
REMARK    4  A    between atoms: N_7  and  C_8 
REMARK    5  A    between atoms: C_8  and  C_9 
REMARK    6  A    between atoms: C_12  and  N_16 
ROOT
HETATM    1  C   UNL     1     -42.057 -52.127  12.746  1.00  0.00    -0.025 A 
HETATM    2  C   UNL     1     -42.810 -51.027  13.143  1.00  0.00     0.014 A 
HETATM    3  C   UNL     1     -42.576 -49.785  12.551  1.00  0.00     0.049 A 
HETATM    4  C   UNL     1     -41.587 -49.630  11.580  1.00  0.00     0.103 A 
HETATM    5  N   UNL     1     -40.809 -50.682  11.245  1.00  0.00    -0.352 N 
ATOM      6  HN  UNL     1     -40.048 -50.572  10.575  1.00  0.00     0.166 HD
HETATM    7  C   UNL     1     -41.058 -51.888  11.814  1.00  0.00     0.098 A 
ENDROOT
BRANCH   1   8
HETATM    8  C   UNL     1     -42.321 -53.499  13.285  1.00  0.00     0.162 C 
BRANCH   8   9
HETATM    9  N   UNL     1     -43.409 -53.528  14.235  1.00  0.00    -0.357 N 
HETATM   10  C   UNL     1     -44.606 -54.113  13.877  1.00  0.00     0.218 C 
HETATM   11  O   UNL     1     -44.820 -54.562  12.757  1.00  0.00    -0.274 OA
HETATM   12  H   UNL     1     -43.208 -53.352  15.210  1.00  0.00     0.162 HD
BRANCH  10  13
HETATM   13  C   UNL     1     -45.643 -54.162  14.977  1.00  0.00     0.113 C 
BRANCH  13  14
HETATM   14  C   UNL     1     -46.890 -53.388  14.575  1.00  0.00     0.082 C 
BRANCH  14  15
HETATM   15  S   UNL     1     -46.495 -51.623  14.373  1.00  0.00    -0.173 SA
HETATM   16  C   UNL     1     -46.601 -51.525  12.570  1.00  0.00     0.089 C 
ENDBRANCH  14  15
ENDBRANCH  13  14
ENDBRANCH  10  13
ENDBRANCH   8   9
ENDBRANCH   1   8
BRANCH   4  17
HETATM   17  N   UNL     1     -41.378 -48.420  10.958  1.00  0.00    -0.363 N 
HETATM   18  C   UNL     1     -40.364 -47.463  11.408  1.00  0.00     0.150 C 
HETATM   19  C   UNL     1     -41.008 -46.104  11.724  1.00  0.00     0.188 C 
HETATM   20  O   UNL     1     -41.781 -45.612  10.622  1.00  0.00    -0.383 OA
HETATM   21  C   UNL     1     -42.858 -46.525  10.326  1.00  0.00     0.135 C 
HETATM   22  C   UNL     1     -43.654 -45.915   9.179  1.00  0.00     0.041 C 
HETATM   23  C   UNL     1     -42.317 -47.921   9.945  1.00  0.00     0.155 C 
ENDBRANCH   4  17
TORSDOF 6
ENDMDL
MODEL 3
REMARK VINA RESULT:      -5.5      4.441      7.117
REMARK  6 active torsions:
REMARK  status: ('A' for Active; 'I' for Inactive)
REMARK    1  A    between atoms: S_2  and  C_3 
REMARK    2  A    between atoms: C_3  and  C_4 
REMARK    3  A    between atoms: C_4  and  C_5 
REMARK       I    between atoms: C_5  and  N_7 
REMARK    4  A    between atoms: N_7  and  C_8 
REMARK    5  A    between atoms: C_8  and  C_9 
REMARK    6  A    between atoms: C_12  and  N_16 
ROOT
HETATM    1  C   UNL     1     -44.853 -54.506  13.980  1.00  0.00    -0.025 A 
HETATM    2  C   UNL     1     -43.830 -54.951  14.811  1.00  0.00     0.014 A 
HETATM    3  C   UNL     1     -42.504 -54.664  14.482  1.00  0.00     0.049 A 
HETATM    4  C   UNL     1     -42.193 -53.951  13.324  1.00  0.00     0.103 A 
HETATM    5  N   UNL     1     -43.181 -53.580  12.482  1.00  0.00    -0.352 N 
ATOM      6  HN  UNL     1     -42.965 -53.104  11.605  1.00  0.00     0.166 HD
HETATM    7  C   UNL     1     -44.467 -53.849  12.822  1.00  0.00     0.098 A 
ENDROOT
BRANCH   1   8
HETATM    8  C   UNL     1     -46.295 -54.712  14.327  1.00  0.00     0.162 C 
BRANCH   8   9
HETATM    9  N   UNL     1     -46.998 -53.472  14.558  1.00  0.00    -0.357 N 
HETATM   10  C   UNL     1     -46.826 -52.807  15.754  1.00  0.00     0.218 C 
HETATM   11  O   UNL     1     -46.145 -53.251  16.671  1.00  0.00    -0.274 OA
HETATM   12  H   UNL     1     -47.400 -52.985  13.767  1.00  0.00     0.162 HD
BRANCH  10  13
HETATM   13  C   UNL     1     -47.542 -51.478  15.852  1.00  0.00     0.113 C 
BRANCH  13  14
HETATM   14  C   UNL     1     -48.038 -51.239  17.270  1.00  0.00     0.082 C 
BRANCH  14  15
HETATM   15  S   UNL     1     -46.928 -50.087  18.138  1.00  0.00    -0.173 SA
HETATM   16  C   UNL     1     -46.554 -51.108  19.584  1.00  0.00     0.089 C 
ENDBRANCH  14  15
ENDBRANCH  13  14
ENDBRANCH  10  13
ENDBRANCH   8   9
ENDBRANCH   1   8
BRANCH   4  17
HETATM   17  N   UNL     1     -40.892 -53.624  13.013  1.00  0.00    -0.363 N 
HETATM   18  C   UNL     1     -39.740 -54.285  13.631  1.00  0.00     0.150 C 
HETATM   19  C   UNL     1     -38.828 -53.253  14.314  1.00  0.00     0.188 C 
HETATM   20  O   UNL     1     -38.446 -52.204  13.414  1.00  0.00    -0.383 OA
HETATM   21  C   UNL     1     -39.615 -51.491  12.960  1.00  0.00     0.135 C 
HETATM   22  C   UNL     1     -39.126 -50.372  12.048  1.00  0.00     0.041 C 
HETATM   23  C   UNL     1     -40.586 -52.431  12.212  1.00  0.00     0.155 C 
ENDBRANCH   4  17
TORSDOF 6
ENDMDL
MODEL 4
REMARK VINA RESULT:      -5.5      1.527      1.943
REMARK  6 active torsions:
REMARK  status: ('A' for Active; 'I' for Inactive)
REMARK    1  A    between atoms: S_2  and  C_3 
REMARK    2  A    between atoms: C_3  and  C_4 
REMARK    3  A    between atoms: C_4  and  C_5 
REMARK       I    between atoms: C_5  and  N_7 
REMARK    4  A    between atoms: N_7  and  C_8 
REMARK    5  A    between atoms: C_8  and  C_9 
REMARK    6  A    between atoms: C_12  and  N_16 
ROOT
HETATM    1  C   UNL     1     -41.368 -51.082  12.039  1.00  0.00    -0.025 A 
HETATM    2  C   UNL     1     -42.358 -50.628  12.904  1.00  0.00     0.014 A 
HETATM    3  C   UNL     1     -43.151 -51.551  13.588  1.00  0.00     0.049 A 
HETATM    4  C   UNL     1     -42.973 -52.922  13.402  1.00  0.00     0.103 A 
HETATM    5  N   UNL     1     -42.059 -53.363  12.511  1.00  0.00    -0.352 N 
ATOM      6  HN  UNL     1     -41.953 -54.360  12.326  1.00  0.00     0.166 HD
HETATM    7  C   UNL     1     -41.283 -52.455  11.866  1.00  0.00     0.098 A 
ENDROOT
BRANCH   1   8
HETATM    8  C   UNL     1     -40.434 -50.140  11.345  1.00  0.00     0.162 C 
BRANCH   8   9
HETATM    9  N   UNL     1     -41.125 -49.101  10.619  1.00  0.00    -0.357 N 
HETATM   10  C   UNL     1     -41.086 -47.804  11.088  1.00  0.00     0.218 C 
HETATM   11  O   UNL     1     -40.539 -47.492  12.139  1.00  0.00    -0.274 OA
HETATM   12  H   UNL     1     -41.410 -49.280   9.665  1.00  0.00     0.162 HD
BRANCH  10  13
HETATM   13  C   UNL     1     -41.771 -46.786  10.202  1.00  0.00     0.113 C 
BRANCH  13  14
HETATM   14  C   UNL     1     -43.278 -46.833  10.397  1.00  0.00     0.082 C 
BRANCH  14  15
HETATM   15  S   UNL     1     -44.125 -46.424   8.838  1.00  0.00    -0.173 SA
HETATM   16  C   UNL     1     -43.493 -47.781   7.822  1.00  0.00     0.089 C 
ENDBRANCH  14  15
ENDBRANCH  13  14
ENDBRANCH  10  13
ENDBRANCH   8   9
ENDBRANCH   1   8
BRANCH   4  17
HETATM   17  N   UNL     1     -43.718 -53.842  14.105  1.00  0.00    -0.363 N 
HETATM   18  C   UNL     1     -44.876 -54.529  13.528  1.00  0.00     0.150 C 
HETATM   19  C   UNL     1     -46.129 -54.287  14.385  1.00  0.00     0.188 C 
HETATM   20  O   UNL     1     -45.908 -54.634  15.759  1.00  0.00    -0.383 OA
HETATM   21  C   UNL     1     -44.859 -53.814  16.313  1.00  0.00     0.135 C 
HETATM   22  C   UNL     1     -44.715 -54.210  17.778  1.00  0.00     0.041 C 
HETATM   23  C   UNL     1     -43.531 -54.017  15.551  1.00  0.00     0.155 C 
ENDBRANCH   4  17
TORSDOF 6
ENDMDL
MODEL 5
REMARK VINA RESULT:      -5.4      2.391      7.396
REMARK  6 active torsions:
REMARK  status: ('A' for Active; 'I' for Inactive)
REMARK    1  A    between atoms: S_2  and  C_3 
REMARK    2  A    between atoms: C_3  and  C_4 
REMARK    3  A    between atoms: C_4  and  C_5 
REMARK       I    between atoms: C_5  and  N_7 
REMARK    4  A    between atoms: N_7  and  C_8 
REMARK    5  A    between atoms: C_8  and  C_9 
REMARK    6  A    between atoms: C_12  and  N_16 
ROOT
HETATM    1  C   UNL     1     -41.777 -51.639  12.448  1.00  0.00    -0.025 A 
HETATM    2  C   UNL     1     -42.813 -50.941  13.059  1.00  0.00     0.014 A 
HETATM    3  C   UNL     1     -43.020 -49.598  12.739  1.00  0.00     0.049 A 
HETATM    4  C   UNL     1     -42.192 -48.944  11.826  1.00  0.00     0.103 A 
HETATM    5  N   UNL     1     -41.144 -49.602  11.285  1.00  0.00    -0.352 N 
ATOM      6  HN  UNL     1     -40.500 -49.123  10.656  1.00  0.00     0.166 HD
HETATM    7  C   UNL     1     -40.964 -50.912  11.591  1.00  0.00     0.098 A 
ENDROOT
BRANCH   1   8
HETATM    8  C   UNL     1     -41.561 -53.100  12.689  1.00  0.00     0.162 C 
BRANCH   8   9
HETATM    9  N   UNL     1     -42.796 -53.827  12.866  1.00  0.00    -0.357 N 
HETATM   10  C   UNL     1     -43.104 -54.352  14.105  1.00  0.00     0.218 C 
HETATM   11  O   UNL     1     -42.343 -54.285  15.064  1.00  0.00    -0.274 OA
HETATM   12  H   UNL     1     -43.522 -53.731  12.169  1.00  0.00     0.162 HD
BRANCH  10  13
HETATM   13  C   UNL     1     -44.458 -55.017  14.195  1.00  0.00     0.113 C 
BRANCH  13  14
HETATM   14  C   UNL     1     -45.535 -54.129  13.591  1.00  0.00     0.082 C 
BRANCH  14  15
HETATM   15  S   UNL     1     -46.235 -53.035  14.866  1.00  0.00    -0.173 SA
HETATM   16  C   UNL     1     -46.472 -51.555  13.853  1.00  0.00     0.089 C 
ENDBRANCH  14  15
ENDBRANCH  13  14
ENDBRANCH  10  13
ENDBRANCH   8   9
ENDBRANCH   1   8
BRANCH   4  17
HETATM   17  N   UNL     1     -42.415 -47.634  11.469  1.00  0.00    -0.363 N 
HETATM   18  C   UNL     1     -43.525 -47.227  10.603  1.00  0.00     0.150 C 
HETATM   19  C   UNL     1     -43.000 -46.472   9.372  1.00  0.00     0.188 C 
HETATM   20  O   UNL     1     -42.157 -45.373   9.742  1.00  0.00    -0.383 OA
HETATM   21  C   UNL     1     -41.002 -45.856  10.459  1.00  0.00     0.135 C 
HETATM   22  C   UNL     1     -40.139 -44.640  10.777  1.00  0.00     0.041 C 
HETATM   23  C   UNL     1     -41.416 -46.595  11.750  1.00  0.00     0.155 C 
ENDBRANCH   4  17
TORSDOF 6
ENDMDL
MODEL 6
REMARK VINA RESULT:      -5.4      2.488      7.624
REMARK  6 active torsions:
REMARK  status: ('A' for Active; 'I' for Inactive)
REMARK    1  A    between atoms: S_2  and  C_3 
REMARK    2  A    between atoms: C_3  and  C_4 
REMARK    3  A    between atoms: C_4  and  C_5 
REMARK       I    between atoms: C_5  and  N_7 
REMARK    4  A    between atoms: N_7  and  C_8 
REMARK    5  A    between atoms: C_8  and  C_9 
REMARK    6  A    between atoms: C_12  and  N_16 
ROOT
HETATM    1  C   UNL     1     -40.379 -50.842  12.841  1.00  0.00    -0.025 A 
HETATM    2  C   UNL     1     -39.436 -49.855  12.576  1.00  0.00     0.014 A 
HETATM    3  C   UNL     1     -39.785 -48.769  11.771  1.00  0.00     0.049 A 
HETATM    4  C   UNL     1     -41.061 -48.672  11.216  1.00  0.00     0.103 A 
HETATM    5  N   UNL     1     -41.955 -49.665  11.416  1.00  0.00    -0.352 N 
ATOM      6  HN  UNL     1     -42.873 -49.633  10.974  1.00  0.00     0.166 HD
HETATM    7  C   UNL     1     -41.609 -50.705  12.215  1.00  0.00     0.098 A 
ENDROOT
BRANCH   1   8
HETATM    8  C   UNL     1     -40.087 -51.984  13.765  1.00  0.00     0.162 C 
BRANCH   8   9
HETATM    9  N   UNL     1     -41.281 -52.661  14.214  1.00  0.00    -0.357 N 
HETATM   10  C   UNL     1     -41.547 -53.937  13.762  1.00  0.00     0.218 C 
HETATM   11  O   UNL     1     -40.845 -54.512  12.938  1.00  0.00    -0.274 OA
HETATM   12  H   UNL     1     -41.765 -52.306  15.027  1.00  0.00     0.162 HD
BRANCH  10  13
HETATM   13  C   UNL     1     -42.777 -54.580  14.362  1.00  0.00     0.113 C 
BRANCH  13  14
HETATM   14  C   UNL     1     -43.538 -53.584  15.224  1.00  0.00     0.082 C 
BRANCH  14  15
HETATM   15  S   UNL     1     -45.266 -53.460  14.662  1.00  0.00    -0.173 SA
HETATM   16  C   UNL     1     -45.389 -55.052  13.811  1.00  0.00     0.089 C 
ENDBRANCH  14  15
ENDBRANCH  13  14
ENDBRANCH  10  13
ENDBRANCH   8   9
ENDBRANCH   1   8
BRANCH   4  17
HETATM   17  N   UNL     1     -41.430 -47.584  10.458  1.00  0.00    -0.363 N 
HETATM   18  C   UNL     1     -40.830 -46.258  10.630  1.00  0.00     0.150 C 
HETATM   19  C   UNL     1     -41.914 -45.210  10.930  1.00  0.00     0.188 C 
HETATM   20  O   UNL     1     -42.953 -45.222   9.943  1.00  0.00    -0.383 OA
HETATM   21  C   UNL     1     -43.608 -46.507   9.929  1.00  0.00     0.135 C 
HETATM   22  C   UNL     1     -44.721 -46.426   8.890  1.00  0.00     0.041 C 
HETATM   23  C   UNL     1     -42.612 -47.637   9.587  1.00  0.00     0.155 C 
ENDBRANCH   4  17
TORSDOF 6
ENDMDL
MODEL 7
REMARK VINA RESULT:      -5.3      3.013      7.777
REMARK  6 active torsions:
REMARK  status: ('A' for Active; 'I' for Inactive)
REMARK    1  A    between atoms: S_2  and  C_3 
REMARK    2  A    between atoms: C_3  and  C_4 
REMARK    3  A    between atoms: C_4  and  C_5 
REMARK       I    between atoms: C_5  and  N_7 
REMARK    4  A    between atoms: N_7  and  C_8 
REMARK    5  A    between atoms: C_8  and  C_9 
REMARK    6  A    between atoms: C_12  and  N_16 
ROOT
HETATM    1  C   UNL     1     -41.191 -50.449  11.858  1.00  0.00    -0.025 A 
HETATM    2  C   UNL     1     -42.297 -49.682  12.208  1.00  0.00     0.014 A 
HETATM    3  C   UNL     1     -42.280 -48.306  11.973  1.00  0.00     0.049 A 
HETATM    4  C   UNL     1     -41.164 -47.690  11.407  1.00  0.00     0.103 A 
HETATM    5  N   UNL     1     -40.065 -48.424  11.130  1.00  0.00    -0.352 N 
ATOM      6  HN  UNL     1     -39.222 -47.980  10.765  1.00  0.00     0.166 HD
HETATM    7  C   UNL     1     -40.100 -49.763  11.347  1.00  0.00     0.098 A 
ENDROOT
BRANCH   1   8
HETATM    8  C   UNL     1     -41.186 -51.939  12.009  1.00  0.00     0.162 C 
BRANCH   8   9
HETATM    9  N   UNL     1     -42.495 -52.524  11.833  1.00  0.00    -0.357 N 
HETATM   10  C   UNL     1     -43.025 -53.314  12.832  1.00  0.00     0.218 C 
HETATM   11  O   UNL     1     -42.408 -53.600  13.852  1.00  0.00    -0.274 OA
HETATM   12  H   UNL     1     -43.100 -52.155  11.112  1.00  0.00     0.162 HD
BRANCH  10  13
HETATM   13  C   UNL     1     -44.433 -53.802  12.578  1.00  0.00     0.113 C 
BRANCH  13  14
HETATM   14  C   UNL     1     -44.892 -54.725  13.696  1.00  0.00     0.082 C 
BRANCH  14  15
HETATM   15  S   UNL     1     -46.061 -53.855  14.788  1.00  0.00    -0.173 SA
HETATM   16  C   UNL     1     -46.494 -52.487  13.686  1.00  0.00     0.089 C 
ENDBRANCH  14  15
ENDBRANCH  13  14
ENDBRANCH  10  13
ENDBRANCH   8   9
ENDBRANCH   1   8
BRANCH   4  17
HETATM   17  N   UNL     1     -41.155 -46.342  11.129  1.00  0.00    -0.363 N 
HETATM   18  C   UNL     1     -39.990 -45.659  10.559  1.00  0.00     0.150 C 
HETATM   19  C   UNL     1     -39.545 -44.502  11.467  1.00  0.00     0.188 C 
HETATM   20  O   UNL     1     -40.626 -43.605  11.752  1.00  0.00    -0.383 OA
HETATM   21  C   UNL     1     -41.678 -44.303  12.451  1.00  0.00     0.135 C 
HETATM   22  C   UNL     1     -42.764 -43.278  12.755  1.00  0.00     0.041 C 
HETATM   23  C   UNL     1     -42.235 -45.466  11.602  1.00  0.00     0.155 C 
ENDBRANCH   4  17
TORSDOF 6
ENDMDL
MODEL 8
REMARK VINA RESULT:      -5.1      2.804      7.222
REMARK  6 active torsions:
REMARK  status: ('A' for Active; 'I' for Inactive)
REMARK    1  A    between atoms: S_2  and  C_3 
REMARK    2  A    between atoms: C_3  and  C_4 
REMARK    3  A    between atoms: C_4  and  C_5 
REMARK       I    between atoms: C_5  and  N_7 
REMARK    4  A    between atoms: N_7  and  C_8 
REMARK    5  A    between atoms: C_8  and  C_9 
REMARK    6  A    between atoms: C_12  and  N_16 
ROOT
HETATM    1  C   UNL     1     -41.134 -52.958  12.968  1.00  0.00    -0.025 A 
HETATM    2  C   UNL     1     -40.218 -52.416  13.863  1.00  0.00     0.014 A 
HETATM    3  C   UNL     1     -39.675 -51.154  13.611  1.00  0.00     0.049 A 
HETATM    4  C   UNL     1     -40.029 -50.439  12.467  1.00  0.00     0.103 A 
HETATM    5  N   UNL     1     -40.865 -50.994  11.564  1.00  0.00    -0.352 N 
ATOM      6  HN  UNL     1     -41.092 -50.506  10.698  1.00  0.00     0.166 HD
HETATM    7  C   UNL     1     -41.399 -52.213  11.829  1.00  0.00     0.098 A 
ENDROOT
BRANCH   1   8
HETATM    8  C   UNL     1     -41.810 -54.268  13.230  1.00  0.00     0.162 C 
BRANCH   8   9
HETATM    9  N   UNL     1     -43.238 -54.212  13.022  1.00  0.00    -0.357 N 
HETATM   10  C   UNL     1     -44.084 -54.718  13.988  1.00  0.00     0.218 C 
HETATM   11  O   UNL     1     -43.680 -55.277  15.001  1.00  0.00    -0.274 OA
HETATM   12  H   UNL     1     -43.603 -53.593  12.310  1.00  0.00     0.162 HD
BRANCH  10  13
HETATM   13  C   UNL     1     -45.558 -54.529  13.704  1.00  0.00     0.113 C 
BRANCH  13  14
HETATM   14  C   UNL     1     -46.209 -53.683  14.787  1.00  0.00     0.082 C 
BRANCH  14  15
HETATM   15  S   UNL     1     -46.262 -51.937  14.273  1.00  0.00    -0.173 SA
HETATM   16  C   UNL     1     -46.384 -52.185  12.485  1.00  0.00     0.089 C 
ENDBRANCH  14  15
ENDBRANCH  13  14
ENDBRANCH  10  13
ENDBRANCH   8   9
ENDBRANCH   1   8
BRANCH   4  17
HETATM   17  N   UNL     1     -39.536 -49.175  12.232  1.00  0.00    -0.363 N 
HETATM   18  C   UNL     1     -38.535 -48.543  13.096  1.00  0.00     0.150 C 
HETATM   19  C   UNL     1     -39.057 -47.200  13.632  1.00  0.00     0.188 C 
HETATM   20  O   UNL     1     -39.496 -46.339  12.573  1.00  0.00    -0.383 OA
HETATM   21  C   UNL     1     -40.587 -46.954  11.856  1.00  0.00     0.135 C 
HETATM   22  C   UNL     1     -41.023 -45.965  10.781  1.00  0.00     0.041 C 
HETATM   23  C   UNL     1     -40.155 -48.298  11.230  1.00  0.00     0.155 C 
ENDBRANCH   4  17
TORSDOF 6
ENDMDL
MODEL 9
REMARK VINA RESULT:      -5.1      3.148      4.580
REMARK  6 active torsions:
REMARK  status: ('A' for Active; 'I' for Inactive)
REMARK    1  A    between atoms: S_2  and  C_3 
REMARK    2  A    between atoms: C_3  and  C_4 
REMARK    3  A    between atoms: C_4  and  C_5 
REMARK       I    between atoms: C_5  and  N_7 
REMARK    4  A    between atoms: N_7  and  C_8 
REMARK    5  A    between atoms: C_8  and  C_9 
REMARK    6  A    between atoms: C_12  and  N_16 
ROOT
HETATM    1  C   UNL     1     -42.431 -46.996  10.901  1.00  0.00    -0.025 A 
HETATM    2  C   UNL     1     -43.050 -47.204  12.130  1.00  0.00     0.014 A 
HETATM    3  C   UNL     1     -42.951 -48.453  12.747  1.00  0.00     0.049 A 
HETATM    4  C   UNL     1     -42.253 -49.497  12.140  1.00  0.00     0.103 A 
HETATM    5  N   UNL     1     -41.711 -49.316  10.916  1.00  0.00    -0.352 N 
ATOM      6  HN  UNL     1     -41.244 -50.086  10.436  1.00  0.00     0.166 HD
HETATM    7  C   UNL     1     -41.800 -48.093  10.335  1.00  0.00     0.098 A 
ENDROOT
BRANCH   1   8
HETATM    8  C   UNL     1     -42.433 -45.655  10.235  1.00  0.00     0.162 C 
BRANCH   8   9
HETATM    9  N   UNL     1     -42.132 -44.576  11.146  1.00  0.00    -0.357 N 
HETATM   10  C   UNL     1     -40.945 -43.887  11.013  1.00  0.00     0.218 C 
HETATM   11  O   UNL     1     -40.090 -44.187  10.188  1.00  0.00    -0.274 OA
HETATM   12  H   UNL     1     -42.883 -44.180  11.697  1.00  0.00     0.162 HD
BRANCH  10  13
HETATM   13  C   UNL     1     -40.774 -42.725  11.965  1.00  0.00     0.113 C 
BRANCH  13  14
HETATM   14  C   UNL     1     -39.635 -42.990  12.938  1.00  0.00     0.082 C 
BRANCH  14  15
HETATM   15  S   UNL     1     -40.177 -44.143  14.239  1.00  0.00    -0.173 SA
HETATM   16  C   UNL     1     -38.941 -45.439  13.984  1.00  0.00     0.089 C 
ENDBRANCH  14  15
ENDBRANCH  13  14
ENDBRANCH  10  13
ENDBRANCH   8   9
ENDBRANCH   1   8
BRANCH   4  17
HETATM   17  N   UNL     1     -42.111 -50.718  12.759  1.00  0.00    -0.363 N 
HETATM   18  C   UNL     1     -40.815 -51.387  12.900  1.00  0.00     0.150 C 
HETATM   19  C   UNL     1     -40.860 -52.788  12.269  1.00  0.00     0.188 C 
HETATM   20  O   UNL     1     -41.945 -53.569  12.787  1.00  0.00    -0.383 OA
HETATM   21  C   UNL     1     -43.203 -52.933  12.481  1.00  0.00     0.135 C 
HETATM   22  C   UNL     1     -44.302 -53.840  13.023  1.00  0.00     0.041 C 
HETATM   23  C   UNL     1     -43.285 -51.526  13.113  1.00  0.00     0.155 C 
ENDBRANCH   4  17
TORSDOF 6
ENDMDL
