MODEL 1
REMARK VINA RESULT:      -5.7      0.000      0.000
REMARK  5 active torsions:
REMARK  status: ('A' for Active; 'I' for Inactive)
REMARK    1  A    between atoms: C_2  and  C_3 
REMARK    2  A    between atoms: C_2  and  N_15 
REMARK       I    between atoms: C_3  and  N_5 
REMARK    3  A    between atoms: N_5  and  C_6 
REMARK    4  A    between atoms: C_6  and  C_7 
REMARK    5  A    between atoms: C_7  and  N_8 
ROOT
HETATM    1  C   UNL     1     -42.686 -48.160  11.393  1.00  0.00     0.242 C 
HETATM    2  O   UNL     1     -43.156 -47.621  12.394  1.00  0.00    -0.271 OA
HETATM    3  N   UNL     1     -42.146 -49.443  11.434  1.00  0.00    -0.358 N 
HETATM    4  H   UNL     1     -42.041 -49.946  10.551  1.00  0.00     0.162 HD
ENDROOT
BRANCH   1   5
HETATM    5  C   UNL     1     -42.636 -47.434  10.056  1.00  0.00     0.196 C 
HETATM    6  C   UNL     1     -41.771 -46.172  10.154  1.00  0.00     0.044 C 
BRANCH   5   7
HETATM    7  N   UNL     1     -43.978 -47.114   9.610  1.00  0.00    -0.273 N 
HETATM    8  C   UNL     1     -44.409 -46.003   8.952  1.00  0.00     0.202 A 
HETATM    9  N   UNL     1     -45.700 -46.101   8.729  1.00  0.00    -0.346 N 
HETATM   10  C   UNL     1     -46.018 -47.308   9.282  1.00  0.00     0.198 A 
ATOM     11  HN  UNL     1     -46.314 -45.438   8.257  1.00  0.00     0.167 HD
HETATM   12  N   UNL     1     -45.002 -47.954   9.861  1.00  0.00    -0.292 N 
ATOM     13  HN  UNL     1     -45.002 -48.844  10.359  1.00  0.00     0.188 HD
ENDBRANCH   5   7
ENDBRANCH   1   5
BRANCH   3  14
HETATM   14  C   UNL     1     -42.332 -50.210  12.654  1.00  0.00     0.152 C 
BRANCH  14  15
HETATM   15  C   UNL     1     -42.298 -51.744  12.498  1.00  0.00     0.292 C 
BRANCH  15  16
HETATM   16  N   UNL     1     -42.764 -52.432  13.722  1.00  0.00     0.093 N 
HETATM   17  C   UNL     1     -43.027 -53.877  13.533  1.00  0.00     0.302 C 
HETATM   18  C   UNL     1     -44.317 -54.213  12.749  1.00  0.00     0.302 C 
HETATM   19  N   UNL     1     -45.541 -53.579  13.272  1.00  0.00     0.087 N 
HETATM   20  C   UNL     1     -46.021 -54.261  14.473  1.00  0.00     0.310 C 
HETATM   21  C   UNL     1     -45.296 -52.144  13.520  1.00  0.00     0.302 C 
HETATM   22  C   UNL     1     -43.986 -51.813  14.280  1.00  0.00     0.302 C 
ENDBRANCH  15  16
ENDBRANCH  14  15
ENDBRANCH   3  14
TORSDOF 5
ENDMDL
MODEL 2
REMARK VINA RESULT:      -5.5      1.472      2.081
REMARK  5 active torsions:
REMARK  status: ('A' for Active; 'I' for Inactive)
REMARK    1  A    between atoms: C_2  and  C_3 
REMARK    2  A    between atoms: C_2  and  N_15 
REMARK       I    between atoms: C_3  and  N_5 
REMARK    3  A    between atoms: N_5  and  C_6 
REMARK    4  A    between atoms: C_6  and  C_7 
REMARK    5  A    between atoms: C_7  and  N_8 
ROOT
HETATM    1  C   UNL     1     -42.573 -48.278  11.338  1.00  0.00     0.242 C 
HETATM    2  O   UNL     1     -43.115 -47.857  12.359  1.00  0.00    -0.271 OA
HETATM    3  N   UNL     1     -41.963 -49.529  11.291  1.00  0.00    -0.358 N 
HETATM    4  H   UNL     1     -41.792 -49.944  10.374  1.00  0.00     0.162 HD
ENDROOT
BRANCH   1   5
HETATM    5  C   UNL     1     -42.507 -47.432  10.074  1.00  0.00     0.196 C 
HETATM    6  C   UNL     1     -41.669 -46.170  10.306  1.00  0.00     0.044 C 
BRANCH   5   7
HETATM    7  N   UNL     1     -43.845 -47.097   9.626  1.00  0.00    -0.273 N 
HETATM    8  C   UNL     1     -44.263 -45.978   8.975  1.00  0.00     0.202 A 
HETATM    9  N   UNL     1     -45.554 -46.061   8.748  1.00  0.00    -0.346 N 
HETATM   10  C   UNL     1     -45.886 -47.268   9.293  1.00  0.00     0.198 A 
ATOM     11  HN  UNL     1     -46.161 -45.389   8.279  1.00  0.00     0.167 HD
HETATM   12  N   UNL     1     -44.878 -47.928   9.870  1.00  0.00    -0.292 N 
ATOM     13  HN  UNL     1     -44.888 -48.821  10.362  1.00  0.00     0.188 HD
ENDBRANCH   5   7
ENDBRANCH   1   5
BRANCH   3  14
HETATM   14  C   UNL     1     -42.156 -50.412  12.429  1.00  0.00     0.152 C 
BRANCH  14  15
HETATM   15  C   UNL     1     -41.216 -51.632  12.503  1.00  0.00     0.292 C 
BRANCH  15  16
HETATM   16  N   UNL     1     -41.967 -52.907  12.520  1.00  0.00     0.093 N 
HETATM   17  C   UNL     1     -43.170 -52.881  13.383  1.00  0.00     0.302 C 
HETATM   18  C   UNL     1     -42.890 -52.927  14.903  1.00  0.00     0.302 C 
HETATM   19  N   UNL     1     -42.024 -54.039  15.339  1.00  0.00     0.087 N 
HETATM   20  C   UNL     1     -42.761 -55.302  15.375  1.00  0.00     0.310 C 
HETATM   21  C   UNL     1     -40.838 -54.124  14.464  1.00  0.00     0.302 C 
HETATM   22  C   UNL     1     -41.124 -54.046  12.942  1.00  0.00     0.302 C 
ENDBRANCH  15  16
ENDBRANCH  14  15
ENDBRANCH   3  14
TORSDOF 5
ENDMDL
MODEL 3
REMARK VINA RESULT:      -5.3      1.779      2.164
REMARK  5 active torsions:
REMARK  status: ('A' for Active; 'I' for Inactive)
REMARK    1  A    between atoms: C_2  and  C_3 
REMARK    2  A    between atoms: C_2  and  N_15 
REMARK       I    between atoms: C_3  and  N_5 
REMARK    3  A    between atoms: N_5  and  C_6 
REMARK    4  A    between atoms: C_6  and  C_7 
REMARK    5  A    between atoms: C_7  and  N_8 
ROOT
HETATM    1  C   UNL     1     -41.895 -47.532  11.036  1.00  0.00     0.242 C 
HETATM    2  O   UNL     1     -42.519 -47.653  12.089  1.00  0.00    -0.271 OA
HETATM    3  N   UNL     1     -40.676 -48.169  10.825  1.00  0.00    -0.358 N 
HETATM    4  H   UNL     1     -40.350 -48.273   9.863  1.00  0.00     0.162 HD
ENDROOT
BRANCH   1   5
HETATM    5  C   UNL     1     -42.410 -46.642   9.913  1.00  0.00     0.196 C 
HETATM    6  C   UNL     1     -42.602 -45.202  10.402  1.00  0.00     0.044 C 
BRANCH   5   7
HETATM    7  N   UNL     1     -43.645 -47.179   9.375  1.00  0.00    -0.273 N 
HETATM    8  C   UNL     1     -43.861 -47.747   8.157  1.00  0.00     0.202 A 
HETATM    9  N   UNL     1     -45.121 -48.105   8.060  1.00  0.00    -0.346 N 
HETATM   10  C   UNL     1     -45.644 -47.724   9.261  1.00  0.00     0.198 A 
ATOM     11  HN  UNL     1     -45.593 -48.558   7.277  1.00  0.00     0.167 HD
HETATM   12  N   UNL     1     -44.786 -47.125  10.091  1.00  0.00    -0.292 N 
ATOM     13  HN  UNL     1     -44.950 -46.732  11.017  1.00  0.00     0.188 HD
ENDBRANCH   5   7
ENDBRANCH   1   5
BRANCH   3  14
HETATM   14  C   UNL     1     -40.250 -49.145  11.814  1.00  0.00     0.152 C 
BRANCH  14  15
HETATM   15  C   UNL     1     -40.954 -50.516  11.753  1.00  0.00     0.292 C 
BRANCH  15  16
HETATM   16  N   UNL     1     -41.312 -51.011  13.101  1.00  0.00     0.093 N 
HETATM   17  C   UNL     1     -40.469 -52.134  13.570  1.00  0.00     0.302 C 
HETATM   18  C   UNL     1     -40.755 -53.497  12.899  1.00  0.00     0.302 C 
HETATM   19  N   UNL     1     -42.166 -53.923  12.942  1.00  0.00     0.087 N 
HETATM   20  C   UNL     1     -42.528 -54.430  14.265  1.00  0.00     0.310 C 
HETATM   21  C   UNL     1     -43.039 -52.807  12.527  1.00  0.00     0.302 C 
HETATM   22  C   UNL     1     -42.727 -51.437  13.181  1.00  0.00     0.302 C 
ENDBRANCH  15  16
ENDBRANCH  14  15
ENDBRANCH   3  14
TORSDOF 5
ENDMDL
MODEL 4
REMARK VINA RESULT:      -5.3      3.634      4.998
REMARK  5 active torsions:
REMARK  status: ('A' for Active; 'I' for Inactive)
REMARK    1  A    between atoms: C_2  and  C_3 
REMARK    2  A    between atoms: C_2  and  N_15 
REMARK       I    between atoms: C_3  and  N_5 
REMARK    3  A    between atoms: N_5  and  C_6 
REMARK    4  A    between atoms: C_6  and  C_7 
REMARK    5  A    between atoms: C_7  and  N_8 
ROOT
HETATM    1  C   UNL     1     -41.972 -48.282  10.891  1.00  0.00     0.242 C 
HETATM    2  O   UNL     1     -42.565 -48.411  11.961  1.00  0.00    -0.271 OA
HETATM    3  N   UNL     1     -40.911 -49.109  10.533  1.00  0.00    -0.358 N 
HETATM    4  H   UNL     1     -40.651 -49.154   9.546  1.00  0.00     0.162 HD
ENDROOT
BRANCH   1   5
HETATM    5  C   UNL     1     -42.346 -47.179   9.910  1.00  0.00     0.196 C 
HETATM    6  C   UNL     1     -42.327 -45.809  10.598  1.00  0.00     0.044 C 
BRANCH   5   7
HETATM    7  N   UNL     1     -43.644 -47.450   9.323  1.00  0.00    -0.273 N 
HETATM    8  C   UNL     1     -43.931 -47.856   8.056  1.00  0.00     0.202 A 
HETATM    9  N   UNL     1     -45.231 -47.990   7.925  1.00  0.00    -0.346 N 
HETATM   10  C   UNL     1     -45.704 -47.643   9.158  1.00  0.00     0.198 A 
ATOM     11  HN  UNL     1     -45.759 -48.281   7.102  1.00  0.00     0.167 HD
HETATM   12  N   UNL     1     -44.772 -47.276  10.041  1.00  0.00    -0.292 N 
ATOM     13  HN  UNL     1     -44.883 -46.951  11.001  1.00  0.00     0.188 HD
ENDBRANCH   5   7
ENDBRANCH   1   5
BRANCH   3  14
HETATM   14  C   UNL     1     -40.646 -50.263  11.376  1.00  0.00     0.152 C 
BRANCH  14  15
HETATM   15  C   UNL     1     -39.366 -50.192  12.232  1.00  0.00     0.292 C 
BRANCH  15  16
HETATM   16  N   UNL     1     -39.663 -49.832  13.637  1.00  0.00     0.093 N 
HETATM   17  C   UNL     1     -39.446 -48.400  13.946  1.00  0.00     0.302 C 
HETATM   18  C   UNL     1     -37.965 -47.968  14.057  1.00  0.00     0.302 C 
HETATM   19  N   UNL     1     -37.154 -48.776  14.987  1.00  0.00     0.087 N 
HETATM   20  C   UNL     1     -37.427 -48.417  16.379  1.00  0.00     0.310 C 
HETATM   21  C   UNL     1     -37.388 -50.213  14.739  1.00  0.00     0.302 C 
HETATM   22  C   UNL     1     -38.873 -50.633  14.597  1.00  0.00     0.302 C 
ENDBRANCH  15  16
ENDBRANCH  14  15
ENDBRANCH   3  14
TORSDOF 5
ENDMDL
MODEL 5
REMARK VINA RESULT:      -5.3      2.171      3.072
REMARK  5 active torsions:
REMARK  status: ('A' for Active; 'I' for Inactive)
REMARK    1  A    between atoms: C_2  and  C_3 
REMARK    2  A    between atoms: C_2  and  N_15 
REMARK       I    between atoms: C_3  and  N_5 
REMARK    3  A    between atoms: N_5  and  C_6 
REMARK    4  A    between atoms: C_6  and  C_7 
REMARK    5  A    between atoms: C_7  and  N_8 
ROOT
HETATM    1  C   UNL     1     -40.837 -50.778  12.118  1.00  0.00     0.242 C 
HETATM    2  O   UNL     1     -41.086 -50.468  13.282  1.00  0.00    -0.271 OA
HETATM    3  N   UNL     1     -41.044 -52.069  11.640  1.00  0.00    -0.358 N 
HETATM    4  H   UNL     1     -41.101 -52.201  10.629  1.00  0.00     0.162 HD
ENDROOT
BRANCH   1   5
HETATM    5  C   UNL     1     -40.250 -49.768  11.142  1.00  0.00     0.196 C 
HETATM    6  C   UNL     1     -38.847 -49.336  11.581  1.00  0.00     0.044 C 
BRANCH   5   7
HETATM    7  N   UNL     1     -41.132 -48.624  11.014  1.00  0.00    -0.273 N 
HETATM    8  C   UNL     1     -40.809 -47.302  11.018  1.00  0.00     0.202 A 
HETATM    9  N   UNL     1     -41.901 -46.585  10.877  1.00  0.00    -0.346 N 
HETATM   10  C   UNL     1     -42.882 -47.530  10.796  1.00  0.00     0.198 A 
ATOM     11  HN  UNL     1     -41.993 -45.571  10.839  1.00  0.00     0.167 HD
HETATM   12  N   UNL     1     -42.465 -48.795  10.904  1.00  0.00    -0.292 N 
ATOM     13  HN  UNL     1     -43.008 -49.657  10.903  1.00  0.00     0.188 HD
ENDBRANCH   5   7
ENDBRANCH   1   5
BRANCH   3  14
HETATM   14  C   UNL     1     -41.751 -52.998  12.504  1.00  0.00     0.152 C 
BRANCH  14  15
HETATM   15  C   UNL     1     -43.279 -53.070  12.310  1.00  0.00     0.292 C 
BRANCH  15  16
HETATM   16  N   UNL     1     -43.985 -53.332  13.584  1.00  0.00     0.093 N 
HETATM   17  C   UNL     1     -45.419 -53.661  13.417  1.00  0.00     0.302 C 
HETATM   18  C   UNL     1     -46.331 -52.465  13.058  1.00  0.00     0.302 C 
HETATM   19  N   UNL     1     -46.218 -51.307  13.965  1.00  0.00     0.087 N 
HETATM   20  C   UNL     1     -46.927 -51.547  15.223  1.00  0.00     0.310 C 
HETATM   21  C   UNL     1     -44.796 -50.985  14.193  1.00  0.00     0.302 C 
HETATM   22  C   UNL     1     -43.882 -52.193  14.522  1.00  0.00     0.302 C 
ENDBRANCH  15  16
ENDBRANCH  14  15
ENDBRANCH   3  14
TORSDOF 5
ENDMDL
MODEL 6
REMARK VINA RESULT:      -5.1      3.053      4.216
REMARK  5 active torsions:
REMARK  status: ('A' for Active; 'I' for Inactive)
REMARK    1  A    between atoms: C_2  and  C_3 
REMARK    2  A    between atoms: C_2  and  N_15 
REMARK       I    between atoms: C_3  and  N_5 
REMARK    3  A    between atoms: N_5  and  C_6 
REMARK    4  A    between atoms: C_6  and  C_7 
REMARK    5  A    between atoms: C_7  and  N_8 
ROOT
HETATM    1  C   UNL     1     -40.001 -51.460  13.391  1.00  0.00     0.242 C 
HETATM    2  O   UNL     1     -40.654 -50.770  14.172  1.00  0.00    -0.271 OA
HETATM    3  N   UNL     1     -39.981 -52.849  13.475  1.00  0.00    -0.358 N 
HETATM    4  H   UNL     1     -39.674 -53.374  12.654  1.00  0.00     0.162 HD
ENDROOT
BRANCH   1   5
HETATM    5  C   UNL     1     -39.144 -50.823  12.304  1.00  0.00     0.196 C 
HETATM    6  C   UNL     1     -37.774 -50.418  12.858  1.00  0.00     0.044 C 
BRANCH   5   7
HETATM    7  N   UNL     1     -39.832 -49.685  11.728  1.00  0.00    -0.273 N 
HETATM    8  C   UNL     1     -39.434 -48.384  11.693  1.00  0.00     0.202 A 
HETATM    9  N   UNL     1     -40.345 -47.665  11.077  1.00  0.00    -0.346 N 
HETATM   10  C   UNL     1     -41.298 -48.585  10.752  1.00  0.00     0.198 A 
ATOM     11  HN  UNL     1     -40.340 -46.663  10.888  1.00  0.00     0.167 HD
HETATM   12  N   UNL     1     -41.044 -49.833  11.155  1.00  0.00    -0.292 N 
ATOM     13  HN  UNL     1     -41.614 -50.673  11.057  1.00  0.00     0.188 HD
ENDBRANCH   5   7
ENDBRANCH   1   5
BRANCH   3  14
HETATM   14  C   UNL     1     -40.914 -53.478  14.395  1.00  0.00     0.152 C 
BRANCH  14  15
HETATM   15  C   UNL     1     -42.103 -54.216  13.748  1.00  0.00     0.292 C 
BRANCH  15  16
HETATM   16  N   UNL     1     -43.225 -53.298  13.450  1.00  0.00     0.093 N 
HETATM   17  C   UNL     1     -43.758 -52.598  14.641  1.00  0.00     0.302 C 
HETATM   18  C   UNL     1     -44.612 -53.471  15.589  1.00  0.00     0.302 C 
HETATM   19  N   UNL     1     -45.720 -54.193  14.935  1.00  0.00     0.087 N 
HETATM   20  C   UNL     1     -46.842 -53.299  14.651  1.00  0.00     0.310 C 
HETATM   21  C   UNL     1     -45.231 -54.861  13.713  1.00  0.00     0.302 C 
HETATM   22  C   UNL     1     -44.350 -53.988  12.783  1.00  0.00     0.302 C 
ENDBRANCH  15  16
ENDBRANCH  14  15
ENDBRANCH   3  14
TORSDOF 5
ENDMDL
MODEL 7
REMARK VINA RESULT:      -5.0      2.890      4.017
REMARK  5 active torsions:
REMARK  status: ('A' for Active; 'I' for Inactive)
REMARK    1  A    between atoms: C_2  and  C_3 
REMARK    2  A    between atoms: C_2  and  N_15 
REMARK       I    between atoms: C_3  and  N_5 
REMARK    3  A    between atoms: N_5  and  C_6 
REMARK    4  A    between atoms: C_6  and  C_7 
REMARK    5  A    between atoms: C_7  and  N_8 
ROOT
HETATM    1  C   UNL     1     -41.037 -50.204  11.987  1.00  0.00     0.242 C 
HETATM    2  O   UNL     1     -41.772 -49.972  12.946  1.00  0.00    -0.271 OA
HETATM    3  N   UNL     1     -40.872 -51.491  11.482  1.00  0.00    -0.358 N 
HETATM    4  H   UNL     1     -40.499 -51.589  10.537  1.00  0.00     0.162 HD
ENDROOT
BRANCH   1   5
HETATM    5  C   UNL     1     -40.237 -49.094  11.320  1.00  0.00     0.196 C 
HETATM    6  C   UNL     1     -39.280 -48.435  12.320  1.00  0.00     0.044 C 
BRANCH   5   7
HETATM    7  N   UNL     1     -41.131 -48.117  10.731  1.00  0.00    -0.273 N 
HETATM    8  C   UNL     1     -40.979 -46.766  10.658  1.00  0.00     0.202 A 
HETATM    9  N   UNL     1     -42.015 -46.242  10.044  1.00  0.00    -0.346 N 
HETATM   10  C   UNL     1     -42.788 -47.331   9.760  1.00  0.00     0.198 A 
ATOM     11  HN  UNL     1     -42.198 -45.262   9.832  1.00  0.00     0.167 HD
HETATM   12  N   UNL     1     -42.304 -48.500  10.186  1.00  0.00    -0.292 N 
ATOM     13  HN  UNL     1     -42.711 -49.432  10.119  1.00  0.00     0.188 HD
ENDBRANCH   5   7
ENDBRANCH   1   5
BRANCH   3  14
HETATM   14  C   UNL     1     -41.747 -52.531  11.997  1.00  0.00     0.152 C 
BRANCH  14  15
HETATM   15  C   UNL     1     -41.067 -53.623  12.847  1.00  0.00     0.292 C 
BRANCH  15  16
HETATM   16  N   UNL     1     -40.540 -53.083  14.119  1.00  0.00     0.093 N 
HETATM   17  C   UNL     1     -39.158 -53.517  14.428  1.00  0.00     0.302 C 
HETATM   18  C   UNL     1     -39.019 -54.985  14.894  1.00  0.00     0.302 C 
HETATM   19  N   UNL     1     -39.890 -55.360  16.023  1.00  0.00     0.087 N 
HETATM   20  C   UNL     1     -39.371 -54.845  17.289  1.00  0.00     0.310 C 
HETATM   21  C   UNL     1     -41.269 -54.895  15.769  1.00  0.00     0.302 C 
HETATM   22  C   UNL     1     -41.398 -53.432  15.272  1.00  0.00     0.302 C 
ENDBRANCH  15  16
ENDBRANCH  14  15
ENDBRANCH   3  14
TORSDOF 5
ENDMDL
MODEL 8
REMARK VINA RESULT:      -4.9      3.614      5.127
REMARK  5 active torsions:
REMARK  status: ('A' for Active; 'I' for Inactive)
REMARK    1  A    between atoms: C_2  and  C_3 
REMARK    2  A    between atoms: C_2  and  N_15 
REMARK       I    between atoms: C_3  and  N_5 
REMARK    3  A    between atoms: N_5  and  C_6 
REMARK    4  A    between atoms: C_6  and  C_7 
REMARK    5  A    between atoms: C_7  and  N_8 
ROOT
HETATM    1  C   UNL     1     -42.073 -52.508  12.551  1.00  0.00     0.242 C 
HETATM    2  O   UNL     1     -42.788 -51.511  12.635  1.00  0.00    -0.271 OA
HETATM    3  N   UNL     1     -42.599 -53.797  12.589  1.00  0.00    -0.358 N 
HETATM    4  H   UNL     1     -42.022 -54.560  12.231  1.00  0.00     0.162 HD
ENDROOT
BRANCH   1   5
HETATM    5  C   UNL     1     -40.559 -52.385  12.436  1.00  0.00     0.196 C 
HETATM    6  C   UNL     1     -39.872 -52.935  13.691  1.00  0.00     0.044 C 
BRANCH   5   7
HETATM    7  N   UNL     1     -40.186 -51.005  12.198  1.00  0.00    -0.273 N 
HETATM    8  C   UNL     1     -39.479 -50.168  13.006  1.00  0.00     0.202 A 
HETATM    9  N   UNL     1     -39.355 -48.998  12.421  1.00  0.00    -0.346 N 
HETATM   10  C   UNL     1     -40.019 -49.171  11.241  1.00  0.00     0.198 A 
ATOM     11  HN  UNL     1     -38.880 -48.165  12.766  1.00  0.00     0.167 HD
HETATM   12  N   UNL     1     -40.571 -50.375  11.070  1.00  0.00    -0.292 N 
ATOM     13  HN  UNL     1     -41.133 -50.724  10.294  1.00  0.00     0.188 HD
ENDBRANCH   5   7
ENDBRANCH   1   5
BRANCH   3  14
HETATM   14  C   UNL     1     -44.045 -53.933  12.533  1.00  0.00     0.152 C 
BRANCH  14  15
HETATM   15  C   UNL     1     -44.712 -54.548  13.780  1.00  0.00     0.292 C 
BRANCH  15  16
HETATM   16  N   UNL     1     -46.083 -54.029  13.983  1.00  0.00     0.093 N 
HETATM   17  C   UNL     1     -46.224 -52.582  13.699  1.00  0.00     0.302 C 
HETATM   18  C   UNL     1     -45.616 -51.641  14.766  1.00  0.00     0.302 C 
HETATM   19  N   UNL     1     -46.073 -51.894  16.145  1.00  0.00     0.087 N 
HETATM   20  C   UNL     1     -47.421 -51.371  16.363  1.00  0.00     0.310 C 
HETATM   21  C   UNL     1     -45.993 -53.338  16.443  1.00  0.00     0.302 C 
HETATM   22  C   UNL     1     -46.576 -54.277  15.356  1.00  0.00     0.302 C 
ENDBRANCH  15  16
ENDBRANCH  14  15
ENDBRANCH   3  14
TORSDOF 5
ENDMDL
MODEL 9
REMARK VINA RESULT:      -4.8      3.989      4.776
REMARK  5 active torsions:
REMARK  status: ('A' for Active; 'I' for Inactive)
REMARK    1  A    between atoms: C_2  and  C_3 
REMARK    2  A    between atoms: C_2  and  N_15 
REMARK       I    between atoms: C_3  and  N_5 
REMARK    3  A    between atoms: N_5  and  C_6 
REMARK    4  A    between atoms: C_6  and  C_7 
REMARK    5  A    between atoms: C_7  and  N_8 
ROOT
HETATM    1  C   UNL     1     -40.077 -50.100  11.760  1.00  0.00     0.242 C 
HETATM    2  O   UNL     1     -41.161 -49.523  11.681  1.00  0.00    -0.271 OA
HETATM    3  N   UNL     1     -39.989 -51.474  11.967  1.00  0.00    -0.358 N 
HETATM    4  H   UNL     1     -39.107 -51.936  11.739  1.00  0.00     0.162 HD
ENDROOT
BRANCH   1   5
HETATM    5  C   UNL     1     -38.766 -49.331  11.671  1.00  0.00     0.196 C 
HETATM    6  C   UNL     1     -37.573 -50.292  11.619  1.00  0.00     0.044 C 
BRANCH   5   7
HETATM    7  N   UNL     1     -38.648 -48.412  12.786  1.00  0.00    -0.273 N 
HETATM    8  C   UNL     1     -37.806 -48.479  13.854  1.00  0.00     0.202 A 
HETATM    9  N   UNL     1     -38.016 -47.449  14.641  1.00  0.00    -0.346 N 
HETATM   10  C   UNL     1     -39.016 -46.772  14.005  1.00  0.00     0.198 A 
ATOM     11  HN  UNL     1     -37.546 -47.213  15.515  1.00  0.00     0.167 HD
HETATM   12  N   UNL     1     -39.458 -47.337  12.878  1.00  0.00    -0.292 N 
ATOM     13  HN  UNL     1     -40.207 -47.037  12.255  1.00  0.00     0.188 HD
ENDBRANCH   5   7
ENDBRANCH   1   5
BRANCH   3  14
HETATM   14  C   UNL     1     -41.219 -52.244  11.892  1.00  0.00     0.152 C 
BRANCH  14  15
HETATM   15  C   UNL     1     -41.514 -53.162  13.095  1.00  0.00     0.292 C 
BRANCH  15  16
HETATM   16  N   UNL     1     -42.692 -52.700  13.863  1.00  0.00     0.093 N 
HETATM   17  C   UNL     1     -42.990 -53.526  15.056  1.00  0.00     0.302 C 
HETATM   18  C   UNL     1     -43.617 -54.908  14.759  1.00  0.00     0.302 C 
HETATM   19  N   UNL     1     -44.818 -54.871  13.903  1.00  0.00     0.087 N 
HETATM   20  C   UNL     1     -45.993 -54.432  14.656  1.00  0.00     0.310 C 
HETATM   21  C   UNL     1     -44.570 -54.012  12.728  1.00  0.00     0.302 C 
HETATM   22  C   UNL     1     -43.913 -52.641  13.030  1.00  0.00     0.302 C 
ENDBRANCH  15  16
ENDBRANCH  14  15
ENDBRANCH   3  14
TORSDOF 5
ENDMDL
