MODEL 1
REMARK VINA RESULT:      -6.3      0.000      0.000
REMARK  4 active torsions:
REMARK  status: ('A' for Active; 'I' for Inactive)
REMARK    1  A    between atoms: O_2  and  C_3 
REMARK    2  A    between atoms: C_3  and  C_4 
REMARK    3  A    between atoms: C_4  and  N_5 
REMARK    4  A    between atoms: C_7  and  N_8 
REMARK       I    between atoms: N_8  and  C_9 
REMARK       I    between atoms: C_9  and  N_11 
ROOT
HETATM    1  N   UNL     1     -42.070 -50.144  11.885  1.00  0.00    -0.307 N 
HETATM    2  C   UNL     1     -42.364 -50.478  13.194  1.00  0.00     0.322 C 
HETATM    3  O   UNL     1     -42.433 -49.662  14.111  1.00  0.00    -0.247 OA
HETATM    4  N   UNL     1     -42.543 -51.842  13.431  1.00  0.00    -0.334 N 
HETATM    5  C   UNL     1     -42.586 -52.276  14.834  1.00  0.00     0.128 C 
HETATM    6  C   UNL     1     -44.005 -52.397  15.384  1.00  0.00     0.024 C 
HETATM    7  C   UNL     1     -44.692 -53.739  15.081  1.00  0.00    -0.017 C 
HETATM    8  C   UNL     1     -46.201 -53.653  15.337  1.00  0.00     0.010 C 
HETATM    9  C   UNL     1     -44.395 -54.372  13.713  1.00  0.00     0.010 C 
HETATM   10  C   UNL     1     -44.234 -53.462  12.486  1.00  0.00    -0.000 C 
HETATM   11  C   UNL     1     -45.337 -52.424  12.285  1.00  0.00     0.011 C 
HETATM   12  C   UNL     1     -42.826 -52.852  12.413  1.00  0.00     0.132 C 
HETATM   13  H   UNL     1     -41.789 -50.906  11.293  1.00  0.00     0.170 HD
ENDROOT
BRANCH   1  14
HETATM   14  C   UNL     1     -41.834 -48.893  11.359  1.00  0.00     0.052 A 
HETATM   15  C   UNL     1     -42.696 -48.202  10.599  1.00  0.00     0.123 A 
HETATM   16  N   UNL     1     -42.449 -46.902  10.185  1.00  0.00    -0.320 N 
HETATM   17  C   UNL     1     -41.249 -46.255  10.460  1.00  0.00     0.247 A 
HETATM   18  C   UNL     1     -40.267 -47.036  11.259  1.00  0.00     0.077 A 
HETATM   19  O   UNL     1     -40.942 -45.125  10.088  1.00  0.00    -0.268 OA
HETATM   20  C   UNL     1     -40.564 -48.272  11.687  1.00  0.00     0.036 A 
BRANCH  16  21
HETATM   21  C   UNL     1     -43.530 -46.167   9.516  1.00  0.00     0.158 C 
BRANCH  21  22
HETATM   22  C   UNL     1     -44.528 -47.082   8.786  1.00  0.00     0.187 C 
BRANCH  22  23
HETATM   23  O   UNL     1     -45.747 -47.185   9.526  1.00  0.00    -0.394 OA
HETATM   24  C   UNL     1     -46.683 -48.036   8.878  1.00  0.00     0.201 C 
ENDBRANCH  22  23
ENDBRANCH  21  22
ENDBRANCH  16  21
ENDBRANCH   1  14
TORSDOF 4
ENDMDL
MODEL 2
REMARK VINA RESULT:      -6.2      1.548      1.967
REMARK  4 active torsions:
REMARK  status: ('A' for Active; 'I' for Inactive)
REMARK    1  A    between atoms: O_2  and  C_3 
REMARK    2  A    between atoms: C_3  and  C_4 
REMARK    3  A    between atoms: C_4  and  N_5 
REMARK    4  A    between atoms: C_7  and  N_8 
REMARK       I    between atoms: N_8  and  C_9 
REMARK       I    between atoms: C_9  and  N_11 
ROOT
HETATM    1  N   UNL     1     -41.957 -50.416  11.729  1.00  0.00    -0.307 N 
HETATM    2  C   UNL     1     -41.235 -51.473  12.251  1.00  0.00     0.322 C 
HETATM    3  O   UNL     1     -40.028 -51.432  12.482  1.00  0.00    -0.247 OA
HETATM    4  N   UNL     1     -41.968 -52.640  12.470  1.00  0.00    -0.334 N 
HETATM    5  C   UNL     1     -41.209 -53.863  12.760  1.00  0.00     0.128 C 
HETATM    6  C   UNL     1     -41.067 -54.143  14.255  1.00  0.00     0.024 C 
HETATM    7  C   UNL     1     -42.258 -54.890  14.877  1.00  0.00    -0.017 C 
HETATM    8  C   UNL     1     -42.214 -54.813  16.407  1.00  0.00     0.010 C 
HETATM    9  C   UNL     1     -43.653 -54.529  14.343  1.00  0.00     0.010 C 
HETATM   10  C   UNL     1     -43.957 -53.071  13.966  1.00  0.00    -0.000 C 
HETATM   11  C   UNL     1     -43.581 -52.026  15.016  1.00  0.00     0.011 C 
HETATM   12  C   UNL     1     -43.425 -52.723  12.567  1.00  0.00     0.132 C 
HETATM   13  H   UNL     1     -42.857 -50.648  11.348  1.00  0.00     0.170 HD
ENDROOT
BRANCH   1  14
HETATM   14  C   UNL     1     -41.505 -49.156  11.403  1.00  0.00     0.052 A 
HETATM   15  C   UNL     1     -42.182 -48.262  10.667  1.00  0.00     0.123 A 
HETATM   16  N   UNL     1     -41.726 -46.969  10.459  1.00  0.00    -0.320 N 
HETATM   17  C   UNL     1     -40.490 -46.537  10.931  1.00  0.00     0.247 A 
HETATM   18  C   UNL     1     -39.711 -47.542  11.705  1.00  0.00     0.077 A 
HETATM   19  O   UNL     1     -40.001 -45.425  10.747  1.00  0.00    -0.268 OA
HETATM   20  C   UNL     1     -40.210 -48.766  11.930  1.00  0.00     0.036 A 
BRANCH  16  21
HETATM   21  C   UNL     1     -42.622 -46.012   9.799  1.00  0.00     0.158 C 
BRANCH  21  22
HETATM   22  C   UNL     1     -43.463 -46.641   8.674  1.00  0.00     0.187 C 
BRANCH  22  23
HETATM   23  O   UNL     1     -44.845 -46.316   8.840  1.00  0.00    -0.394 OA
HETATM   24  C   UNL     1     -45.616 -47.461   9.176  1.00  0.00     0.201 C 
ENDBRANCH  22  23
ENDBRANCH  21  22
ENDBRANCH  16  21
ENDBRANCH   1  14
TORSDOF 4
ENDMDL
MODEL 3
REMARK VINA RESULT:      -6.2      2.621      4.306
REMARK  4 active torsions:
REMARK  status: ('A' for Active; 'I' for Inactive)
REMARK    1  A    between atoms: O_2  and  C_3 
REMARK    2  A    between atoms: C_3  and  C_4 
REMARK    3  A    between atoms: C_4  and  N_5 
REMARK    4  A    between atoms: C_7  and  N_8 
REMARK       I    between atoms: N_8  and  C_9 
REMARK       I    between atoms: C_9  and  N_11 
ROOT
HETATM    1  N   UNL     1     -41.816 -49.040  11.000  1.00  0.00    -0.307 N 
HETATM    2  C   UNL     1     -40.573 -49.274  11.558  1.00  0.00     0.322 C 
HETATM    3  O   UNL     1     -39.734 -48.398  11.758  1.00  0.00    -0.247 OA
HETATM    4  N   UNL     1     -40.300 -50.611  11.853  1.00  0.00    -0.334 N 
HETATM    5  C   UNL     1     -38.911 -50.951  12.187  1.00  0.00     0.128 C 
HETATM    6  C   UNL     1     -38.643 -50.976  13.691  1.00  0.00     0.024 C 
HETATM    7  C   UNL     1     -38.998 -52.305  14.377  1.00  0.00    -0.017 C 
HETATM    8  C   UNL     1     -39.048 -52.139  15.901  1.00  0.00     0.010 C 
HETATM    9  C   UNL     1     -40.245 -53.038  13.858  1.00  0.00     0.010 C 
HETATM   10  C   UNL     1     -41.466 -52.218  13.414  1.00  0.00    -0.000 C 
HETATM   11  C   UNL     1     -41.936 -51.150  14.401  1.00  0.00     0.011 C 
HETATM   12  C   UNL     1     -41.296 -51.673  11.988  1.00  0.00     0.132 C 
HETATM   13  H   UNL     1     -42.299 -49.849  10.652  1.00  0.00     0.170 HD
ENDROOT
BRANCH   1  14
HETATM   14  C   UNL     1     -42.355 -47.837  10.600  1.00  0.00     0.052 A 
HETATM   15  C   UNL     1     -42.271 -46.688  11.288  1.00  0.00     0.123 A 
HETATM   16  N   UNL     1     -42.739 -45.483  10.788  1.00  0.00    -0.320 N 
HETATM   17  C   UNL     1     -43.406 -45.398   9.570  1.00  0.00     0.247 A 
HETATM   18  C   UNL     1     -43.548 -46.679   8.825  1.00  0.00     0.077 A 
HETATM   19  O   UNL     1     -43.887 -44.377   9.085  1.00  0.00    -0.268 OA
HETATM   20  C   UNL     1     -43.034 -47.815   9.318  1.00  0.00     0.036 A 
BRANCH  16  21
HETATM   21  C   UNL     1     -42.436 -44.255  11.532  1.00  0.00     0.158 C 
BRANCH  21  22
HETATM   22  C   UNL     1     -40.931 -43.937  11.597  1.00  0.00     0.187 C 
BRANCH  22  23
HETATM   23  O   UNL     1     -40.399 -43.765  10.282  1.00  0.00    -0.394 OA
HETATM   24  C   UNL     1     -39.398 -44.731   9.991  1.00  0.00     0.201 C 
ENDBRANCH  22  23
ENDBRANCH  21  22
ENDBRANCH  16  21
ENDBRANCH   1  14
TORSDOF 4
ENDMDL
MODEL 4
REMARK VINA RESULT:      -6.1      1.393      3.036
REMARK  4 active torsions:
REMARK  status: ('A' for Active; 'I' for Inactive)
REMARK    1  A    between atoms: O_2  and  C_3 
REMARK    2  A    between atoms: C_3  and  C_4 
REMARK    3  A    between atoms: C_4  and  N_5 
REMARK    4  A    between atoms: C_7  and  N_8 
REMARK       I    between atoms: N_8  and  C_9 
REMARK       I    between atoms: C_9  and  N_11 
ROOT
HETATM    1  N   UNL     1     -42.764 -49.614  12.032  1.00  0.00    -0.307 N 
HETATM    2  C   UNL     1     -43.013 -50.024  13.328  1.00  0.00     0.322 C 
HETATM    3  O   UNL     1     -43.289 -49.257  14.249  1.00  0.00    -0.247 OA
HETATM    4  N   UNL     1     -42.891 -51.397  13.549  1.00  0.00    -0.334 N 
HETATM    5  C   UNL     1     -42.876 -51.851  14.946  1.00  0.00     0.128 C 
HETATM    6  C   UNL     1     -44.248 -52.292  15.451  1.00  0.00     0.024 C 
HETATM    7  C   UNL     1     -44.610 -53.748  15.116  1.00  0.00    -0.017 C 
HETATM    8  C   UNL     1     -46.107 -54.003  15.325  1.00  0.00     0.010 C 
HETATM    9  C   UNL     1     -44.141 -54.279  13.753  1.00  0.00     0.010 C 
HETATM   10  C   UNL     1     -44.151 -53.339  12.539  1.00  0.00    -0.000 C 
HETATM   11  C   UNL     1     -45.451 -52.570  12.311  1.00  0.00     0.011 C 
HETATM   12  C   UNL     1     -42.912 -52.430  12.514  1.00  0.00     0.132 C 
HETATM   13  H   UNL     1     -42.303 -50.286  11.443  1.00  0.00     0.170 HD
ENDROOT
BRANCH   1  14
HETATM   14  C   UNL     1     -42.797 -48.335  11.523  1.00  0.00     0.052 A 
HETATM   15  C   UNL     1     -41.895 -47.377  11.788  1.00  0.00     0.123 A 
HETATM   16  N   UNL     1     -41.918 -46.139  11.165  1.00  0.00    -0.320 N 
HETATM   17  C   UNL     1     -42.929 -45.775  10.281  1.00  0.00     0.247 A 
HETATM   18  C   UNL     1     -43.960 -46.816  10.022  1.00  0.00     0.077 A 
HETATM   19  O   UNL     1     -43.039 -44.684   9.728  1.00  0.00    -0.268 OA
HETATM   20  C   UNL     1     -43.875 -48.021  10.604  1.00  0.00     0.036 A 
BRANCH  16  21
HETATM   21  C   UNL     1     -40.786 -45.229  11.382  1.00  0.00     0.158 C 
BRANCH  21  22
HETATM   22  C   UNL     1     -39.624 -45.456  10.399  1.00  0.00     0.187 C 
BRANCH  22  23
HETATM   23  O   UNL     1     -39.589 -44.417   9.418  1.00  0.00    -0.394 OA
HETATM   24  C   UNL     1     -38.428 -44.506   8.602  1.00  0.00     0.201 C 
ENDBRANCH  22  23
ENDBRANCH  21  22
ENDBRANCH  16  21
ENDBRANCH   1  14
TORSDOF 4
ENDMDL
MODEL 5
REMARK VINA RESULT:      -5.9      2.176      3.975
REMARK  4 active torsions:
REMARK  status: ('A' for Active; 'I' for Inactive)
REMARK    1  A    between atoms: O_2  and  C_3 
REMARK    2  A    between atoms: C_3  and  C_4 
REMARK    3  A    between atoms: C_4  and  N_5 
REMARK    4  A    between atoms: C_7  and  N_8 
REMARK       I    between atoms: N_8  and  C_9 
REMARK       I    between atoms: C_9  and  N_11 
ROOT
HETATM    1  N   UNL     1     -42.429 -49.710  11.803  1.00  0.00    -0.307 N 
HETATM    2  C   UNL     1     -41.429 -50.644  12.001  1.00  0.00     0.322 C 
HETATM    3  O   UNL     1     -40.228 -50.386  11.947  1.00  0.00    -0.247 OA
HETATM    4  N   UNL     1     -41.874 -51.947  12.234  1.00  0.00    -0.334 N 
HETATM    5  C   UNL     1     -40.869 -53.016  12.180  1.00  0.00     0.128 C 
HETATM    6  C   UNL     1     -40.307 -53.384  13.551  1.00  0.00     0.024 C 
HETATM    7  C   UNL     1     -41.157 -54.399  14.334  1.00  0.00    -0.017 C 
HETATM    8  C   UNL     1     -40.739 -54.442  15.808  1.00  0.00     0.010 C 
HETATM    9  C   UNL     1     -42.682 -54.277  14.191  1.00  0.00     0.010 C 
HETATM   10  C   UNL     1     -43.315 -52.881  14.086  1.00  0.00    -0.000 C 
HETATM   11  C   UNL     1     -42.868 -51.873  15.144  1.00  0.00     0.011 C 
HETATM   12  C   UNL     1     -43.222 -52.322  12.658  1.00  0.00     0.132 C 
HETATM   13  H   UNL     1     -43.343 -50.082  11.616  1.00  0.00     0.170 HD
ENDROOT
BRANCH   1  14
HETATM   14  C   UNL     1     -42.295 -48.364  11.544  1.00  0.00     0.052 A 
HETATM   15  C   UNL     1     -41.866 -47.449  12.426  1.00  0.00     0.123 A 
HETATM   16  N   UNL     1     -41.649 -46.124  12.081  1.00  0.00    -0.320 N 
HETATM   17  C   UNL     1     -41.943 -45.633  10.813  1.00  0.00     0.247 A 
HETATM   18  C   UNL     1     -42.469 -46.634   9.844  1.00  0.00     0.077 A 
HETATM   19  O   UNL     1     -41.821 -44.467  10.449  1.00  0.00    -0.268 OA
HETATM   20  C   UNL     1     -42.615 -47.918  10.201  1.00  0.00     0.036 A 
BRANCH  16  21
HETATM   21  C   UNL     1     -41.004 -45.245  13.063  1.00  0.00     0.158 C 
BRANCH  21  22
HETATM   22  C   UNL     1     -39.467 -45.311  13.025  1.00  0.00     0.187 C 
BRANCH  22  23
HETATM   23  O   UNL     1     -38.902 -44.039  13.350  1.00  0.00    -0.394 OA
HETATM   24  C   UNL     1     -39.735 -42.971  12.921  1.00  0.00     0.201 C 
ENDBRANCH  22  23
ENDBRANCH  21  22
ENDBRANCH  16  21
ENDBRANCH   1  14
TORSDOF 4
ENDMDL
MODEL 6
REMARK VINA RESULT:      -5.7      5.018      8.997
REMARK  4 active torsions:
REMARK  status: ('A' for Active; 'I' for Inactive)
REMARK    1  A    between atoms: O_2  and  C_3 
REMARK    2  A    between atoms: C_3  and  C_4 
REMARK    3  A    between atoms: C_4  and  N_5 
REMARK    4  A    between atoms: C_7  and  N_8 
REMARK       I    between atoms: N_8  and  C_9 
REMARK       I    between atoms: C_9  and  N_11 
ROOT
HETATM    1  N   UNL     1     -42.350 -54.093  16.240  1.00  0.00    -0.307 N 
HETATM    2  C   UNL     1     -42.786 -52.888  15.721  1.00  0.00     0.322 C 
HETATM    3  O   UNL     1     -42.038 -52.029  15.256  1.00  0.00    -0.247 OA
HETATM    4  N   UNL     1     -44.164 -52.677  15.793  1.00  0.00    -0.334 N 
HETATM    5  C   UNL     1     -44.648 -51.319  15.512  1.00  0.00     0.128 C 
HETATM    6  C   UNL     1     -45.094 -51.126  14.064  1.00  0.00     0.024 C 
HETATM    7  C   UNL     1     -46.541 -51.562  13.782  1.00  0.00    -0.017 C 
HETATM    8  C   UNL     1     -46.793 -51.681  12.274  1.00  0.00     0.010 C 
HETATM    9  C   UNL     1     -47.044 -52.807  14.529  1.00  0.00     0.010 C 
HETATM   10  C   UNL     1     -46.078 -53.974  14.777  1.00  0.00    -0.000 C 
HETATM   11  C   UNL     1     -45.297 -54.455  13.554  1.00  0.00     0.011 C 
HETATM   12  C   UNL     1     -45.174 -53.715  15.992  1.00  0.00     0.132 C 
HETATM   13  H   UNL     1     -43.010 -54.585  16.815  1.00  0.00     0.170 HD
ENDROOT
BRANCH   1  14
HETATM   14  C   UNL     1     -41.059 -54.568  16.315  1.00  0.00     0.052 A 
HETATM   15  C   UNL     1     -40.460 -54.995  17.437  1.00  0.00     0.123 A 
HETATM   16  N   UNL     1     -39.196 -55.564  17.437  1.00  0.00    -0.320 N 
HETATM   17  C   UNL     1     -38.426 -55.653  16.282  1.00  0.00     0.247 A 
HETATM   18  C   UNL     1     -39.065 -55.133  15.043  1.00  0.00     0.077 A 
HETATM   19  O   UNL     1     -37.284 -56.101  16.214  1.00  0.00    -0.268 OA
HETATM   20  C   UNL     1     -40.312 -54.639  15.074  1.00  0.00     0.036 A 
BRANCH  16  21
HETATM   21  C   UNL     1     -38.704 -56.167  18.682  1.00  0.00     0.158 C 
BRANCH  21  22
HETATM   22  C   UNL     1     -39.273 -57.573  18.944  1.00  0.00     0.187 C 
BRANCH  22  23
HETATM   23  O   UNL     1     -38.390 -58.574  18.433  1.00  0.00    -0.394 OA
HETATM   24  C   UNL     1     -39.082 -59.778  18.132  1.00  0.00     0.201 C 
ENDBRANCH  22  23
ENDBRANCH  21  22
ENDBRANCH  16  21
ENDBRANCH   1  14
TORSDOF 4
ENDMDL
MODEL 7
REMARK VINA RESULT:      -5.7      2.802      8.125
REMARK  4 active torsions:
REMARK  status: ('A' for Active; 'I' for Inactive)
REMARK    1  A    between atoms: O_2  and  C_3 
REMARK    2  A    between atoms: C_3  and  C_4 
REMARK    3  A    between atoms: C_4  and  N_5 
REMARK    4  A    between atoms: C_7  and  N_8 
REMARK       I    between atoms: N_8  and  C_9 
REMARK       I    between atoms: C_9  and  N_11 
ROOT
HETATM    1  N   UNL     1     -42.234 -51.098  12.344  1.00  0.00    -0.307 N 
HETATM    2  C   UNL     1     -42.775 -49.852  12.601  1.00  0.00     0.322 C 
HETATM    3  O   UNL     1     -43.611 -49.633  13.475  1.00  0.00    -0.247 OA
HETATM    4  N   UNL     1     -42.332 -48.830  11.758  1.00  0.00    -0.334 N 
HETATM    5  C   UNL     1     -43.067 -47.559  11.805  1.00  0.00     0.128 C 
HETATM    6  C   UNL     1     -42.429 -46.530  12.735  1.00  0.00     0.024 C 
HETATM    7  C   UNL     1     -41.302 -45.706  12.092  1.00  0.00    -0.017 C 
HETATM    8  C   UNL     1     -40.483 -44.970  13.160  1.00  0.00     0.010 C 
HETATM    9  C   UNL     1     -40.387 -46.443  11.102  1.00  0.00     0.010 C 
HETATM   10  C   UNL     1     -40.013 -47.907  11.376  1.00  0.00    -0.000 C 
HETATM   11  C   UNL     1     -39.501 -48.205  12.785  1.00  0.00     0.011 C 
HETATM   12  C   UNL     1     -41.125 -48.871  10.934  1.00  0.00     0.132 C 
HETATM   13  H   UNL     1     -41.771 -51.199  11.458  1.00  0.00     0.170 HD
ENDROOT
BRANCH   1  14
HETATM   14  C   UNL     1     -42.487 -52.284  12.996  1.00  0.00     0.052 A 
HETATM   15  C   UNL     1     -41.666 -52.865  13.885  1.00  0.00     0.123 A 
HETATM   16  N   UNL     1     -42.017 -54.004  14.592  1.00  0.00    -0.320 N 
HETATM   17  C   UNL     1     -43.215 -54.674  14.365  1.00  0.00     0.247 A 
HETATM   18  C   UNL     1     -44.108 -54.063  13.343  1.00  0.00     0.077 A 
HETATM   19  O   UNL     1     -43.573 -55.710  14.918  1.00  0.00    -0.268 OA
HETATM   20  C   UNL     1     -43.756 -52.930  12.719  1.00  0.00     0.036 A 
BRANCH  16  21
HETATM   21  C   UNL     1     -41.131 -54.455  15.672  1.00  0.00     0.158 C 
BRANCH  21  22
HETATM   22  C   UNL     1     -39.654 -54.548  15.249  1.00  0.00     0.187 C 
BRANCH  22  23
HETATM   23  O   UNL     1     -39.097 -55.803  15.646  1.00  0.00    -0.394 OA
HETATM   24  C   UNL     1     -39.775 -56.344  16.772  1.00  0.00     0.201 C 
ENDBRANCH  22  23
ENDBRANCH  21  22
ENDBRANCH  16  21
ENDBRANCH   1  14
TORSDOF 4
ENDMDL
MODEL 8
REMARK VINA RESULT:      -5.7      2.647      7.348
REMARK  4 active torsions:
REMARK  status: ('A' for Active; 'I' for Inactive)
REMARK    1  A    between atoms: O_2  and  C_3 
REMARK    2  A    between atoms: C_3  and  C_4 
REMARK    3  A    between atoms: C_4  and  N_5 
REMARK    4  A    between atoms: C_7  and  N_8 
REMARK       I    between atoms: N_8  and  C_9 
REMARK       I    between atoms: C_9  and  N_11 
ROOT
HETATM    1  N   UNL     1     -41.861 -49.596  13.115  1.00  0.00    -0.307 N 
HETATM    2  C   UNL     1     -41.382 -48.811  12.082  1.00  0.00     0.322 C 
HETATM    3  O   UNL     1     -41.675 -48.978  10.900  1.00  0.00    -0.247 OA
HETATM    4  N   UNL     1     -40.487 -47.810  12.466  1.00  0.00    -0.334 N 
HETATM    5  C   UNL     1     -39.745 -47.132  11.396  1.00  0.00     0.128 C 
HETATM    6  C   UNL     1     -40.397 -45.826  10.945  1.00  0.00     0.024 C 
HETATM    7  C   UNL     1     -40.027 -44.603  11.801  1.00  0.00    -0.017 C 
HETATM    8  C   UNL     1     -40.978 -43.433  11.524  1.00  0.00     0.010 C 
HETATM    9  C   UNL     1     -39.865 -44.842  13.310  1.00  0.00     0.010 C 
HETATM   10  C   UNL     1     -40.796 -45.840  14.016  1.00  0.00    -0.000 C 
HETATM   11  C   UNL     1     -42.287 -45.663  13.735  1.00  0.00     0.011 C 
HETATM   12  C   UNL     1     -40.325 -47.290  13.823  1.00  0.00     0.132 C 
HETATM   13  H   UNL     1     -41.359 -49.530  13.982  1.00  0.00     0.170 HD
ENDROOT
BRANCH   1  14
HETATM   14  C   UNL     1     -42.739 -50.654  13.041  1.00  0.00     0.052 A 
HETATM   15  C   UNL     1     -44.047 -50.592  13.336  1.00  0.00     0.123 A 
HETATM   16  N   UNL     1     -44.907 -51.662  13.141  1.00  0.00    -0.320 N 
HETATM   17  C   UNL     1     -44.455 -52.904  12.705  1.00  0.00     0.247 A 
HETATM   18  C   UNL     1     -42.995 -52.993  12.425  1.00  0.00     0.077 A 
HETATM   19  O   UNL     1     -45.147 -53.906  12.553  1.00  0.00    -0.268 OA
HETATM   20  C   UNL     1     -42.205 -51.920  12.574  1.00  0.00     0.036 A 
BRANCH  16  21
HETATM   21  C   UNL     1     -46.347 -51.439  13.317  1.00  0.00     0.158 C 
BRANCH  21  22
HETATM   22  C   UNL     1     -46.792 -51.468  14.790  1.00  0.00     0.187 C 
BRANCH  22  23
HETATM   23  O   UNL     1     -47.051 -52.810  15.209  1.00  0.00    -0.394 OA
HETATM   24  C   UNL     1     -46.104 -53.250  16.172  1.00  0.00     0.201 C 
ENDBRANCH  22  23
ENDBRANCH  21  22
ENDBRANCH  16  21
ENDBRANCH   1  14
TORSDOF 4
ENDMDL
MODEL 9
REMARK VINA RESULT:      -5.6      2.370      4.013
REMARK  4 active torsions:
REMARK  status: ('A' for Active; 'I' for Inactive)
REMARK    1  A    between atoms: O_2  and  C_3 
REMARK    2  A    between atoms: C_3  and  C_4 
REMARK    3  A    between atoms: C_4  and  N_5 
REMARK    4  A    between atoms: C_7  and  N_8 
REMARK       I    between atoms: N_8  and  C_9 
REMARK       I    between atoms: C_9  and  N_11 
ROOT
HETATM    1  N   UNL     1     -43.535 -49.952  12.541  1.00  0.00    -0.307 N 
HETATM    2  C   UNL     1     -43.371 -51.260  12.958  1.00  0.00     0.322 C 
HETATM    3  O   UNL     1     -42.277 -51.784  13.162  1.00  0.00    -0.247 OA
HETATM    4  N   UNL     1     -44.554 -51.988  13.102  1.00  0.00    -0.334 N 
HETATM    5  C   UNL     1     -44.427 -53.441  13.275  1.00  0.00     0.128 C 
HETATM    6  C   UNL     1     -44.447 -53.877  14.738  1.00  0.00     0.024 C 
HETATM    7  C   UNL     1     -45.855 -54.058  15.328  1.00  0.00    -0.017 C 
HETATM    8  C   UNL     1     -45.803 -54.136  16.859  1.00  0.00     0.010 C 
HETATM    9  C   UNL     1     -46.932 -53.068  14.859  1.00  0.00     0.010 C 
HETATM   10  C   UNL     1     -46.545 -51.603  14.607  1.00  0.00    -0.000 C 
HETATM   11  C   UNL     1     -45.755 -50.928  15.727  1.00  0.00     0.011 C 
HETATM   12  C   UNL     1     -45.894 -51.417  13.228  1.00  0.00     0.132 C 
HETATM   13  H   UNL     1     -44.438 -49.724  12.164  1.00  0.00     0.170 HD
ENDROOT
BRANCH   1  14
HETATM   14  C   UNL     1     -42.562 -49.007  12.305  1.00  0.00     0.052 A 
HETATM   15  C   UNL     1     -41.627 -48.627  13.189  1.00  0.00     0.123 A 
HETATM   16  N   UNL     1     -40.605 -47.749  12.863  1.00  0.00    -0.320 N 
HETATM   17  C   UNL     1     -40.529 -47.134  11.617  1.00  0.00     0.247 A 
HETATM   18  C   UNL     1     -41.593 -47.513  10.649  1.00  0.00     0.077 A 
HETATM   19  O   UNL     1     -39.682 -46.314  11.273  1.00  0.00    -0.268 OA
HETATM   20  C   UNL     1     -42.535 -48.407  10.984  1.00  0.00     0.036 A 
BRANCH  16  21
HETATM   21  C   UNL     1     -39.528 -47.539  13.839  1.00  0.00     0.158 C 
BRANCH  21  22
HETATM   22  C   UNL     1     -38.242 -48.314  13.502  1.00  0.00     0.187 C 
BRANCH  22  23
HETATM   23  O   UNL     1     -38.558 -49.581  12.919  1.00  0.00    -0.394 OA
HETATM   24  C   UNL     1     -37.817 -49.809  11.728  1.00  0.00     0.201 C 
ENDBRANCH  22  23
ENDBRANCH  21  22
ENDBRANCH  16  21
ENDBRANCH   1  14
TORSDOF 4
ENDMDL
