MODEL 1
REMARK VINA RESULT:      -5.7      0.000      0.000
REMARK  4 active torsions:
REMARK  status: ('A' for Active; 'I' for Inactive)
REMARK    1  A    between atoms: C_4  and  C_5 
REMARK    2  A    between atoms: C_5  and  N_6 
REMARK       I    between atoms: N_6  and  C_7 
REMARK    3  A    between atoms: C_7  and  C_9 
REMARK    4  A    between atoms: C_9  and  N_10 
ROOT
HETATM    1  C   UNL     1     -41.701 -50.408  12.991  1.00  0.00     0.235 C 
ENDROOT
BRANCH   1   2
HETATM    2  C   UNL     1     -41.467 -49.503  11.773  1.00  0.00     0.235 C 
HETATM    3  N   UNL     1     -42.541 -48.709  11.417  1.00  0.00    -0.359 N 
HETATM    4  H   UNL     1     -43.299 -48.563  12.072  1.00  0.00     0.162 HD
HETATM    5  O   UNL     1     -40.421 -49.514  11.129  1.00  0.00    -0.272 OA
BRANCH   3   6
HETATM    6  C   UNL     1     -42.439 -47.840  10.268  1.00  0.00     0.127 C 
BRANCH   6   7
HETATM    7  C   UNL     1     -43.788 -47.342   9.857  1.00  0.00     0.007 A 
HETATM    8  C   UNL     1     -44.298 -47.509   8.435  1.00  0.00    -0.013 A 
HETATM    9  C   UNL     1     -43.473 -48.119   7.351  1.00  0.00     0.010 C 
HETATM   10  C   UNL     1     -43.953 -46.139   8.958  1.00  0.00     0.011 A 
ENDBRANCH   6   7
ENDBRANCH   3   6
ENDBRANCH   1   2
BRANCH   1  11
HETATM   11  N   UNL     1     -42.671 -51.497  12.820  1.00  0.00    -0.301 N 
HETATM   12  C   UNL     1     -43.970 -51.352  13.272  1.00  0.00     0.102 C 
HETATM   13  C   UNL     1     -44.846 -52.360  13.255  1.00  0.00     0.092 C 
HETATM   14  C   UNL     1     -44.407 -53.672  12.756  1.00  0.00     0.250 C 
HETATM   15  O   UNL     1     -45.132 -54.656  12.837  1.00  0.00    -0.268 OA
HETATM   16  N   UNL     1     -43.148 -53.713  12.234  1.00  0.00    -0.275 N 
HETATM   17  C   UNL     1     -42.216 -52.710  12.312  1.00  0.00     0.329 C 
HETATM   18  H   UNL     1     -42.817 -54.610  11.920  1.00  0.00     0.173 HD
HETATM   19  O   UNL     1     -41.055 -52.923  11.969  1.00  0.00    -0.246 OA
ENDBRANCH   1  11
TORSDOF 4
ENDMDL
MODEL 2
REMARK VINA RESULT:      -5.6      3.128      5.704
REMARK  4 active torsions:
REMARK  status: ('A' for Active; 'I' for Inactive)
REMARK    1  A    between atoms: C_4  and  C_5 
REMARK    2  A    between atoms: C_5  and  N_6 
REMARK       I    between atoms: N_6  and  C_7 
REMARK    3  A    between atoms: C_7  and  C_9 
REMARK    4  A    between atoms: C_9  and  N_10 
ROOT
HETATM    1  C   UNL     1     -42.548 -54.099  13.651  1.00  0.00     0.235 C 
ENDROOT
BRANCH   1   2
HETATM    2  C   UNL     1     -44.083 -54.130  13.599  1.00  0.00     0.235 C 
HETATM    3  N   UNL     1     -44.717 -53.801  14.782  1.00  0.00    -0.359 N 
HETATM    4  H   UNL     1     -44.201 -53.332  15.516  1.00  0.00     0.162 HD
HETATM    5  O   UNL     1     -44.706 -54.468  12.596  1.00  0.00    -0.272 OA
BRANCH   3   6
HETATM    6  C   UNL     1     -46.158 -53.826  14.853  1.00  0.00     0.127 C 
BRANCH   6   7
HETATM    7  C   UNL     1     -46.696 -52.485  15.239  1.00  0.00     0.007 A 
HETATM    8  C   UNL     1     -46.913 -51.389  14.210  1.00  0.00    -0.013 A 
HETATM    9  C   UNL     1     -46.551 -51.553  12.771  1.00  0.00     0.010 C 
HETATM   10  C   UNL     1     -45.826 -51.250  15.243  1.00  0.00     0.011 A 
ENDBRANCH   6   7
ENDBRANCH   3   6
ENDBRANCH   1   2
BRANCH   1  11
HETATM   11  N   UNL     1     -41.901 -52.882  13.145  1.00  0.00    -0.301 N 
HETATM   12  C   UNL     1     -42.657 -51.763  12.847  1.00  0.00     0.102 C 
HETATM   13  C   UNL     1     -42.129 -50.683  12.265  1.00  0.00     0.092 C 
HETATM   14  C   UNL     1     -40.702 -50.693  11.913  1.00  0.00     0.250 C 
HETATM   15  O   UNL     1     -40.202 -49.781  11.267  1.00  0.00    -0.268 OA
HETATM   16  N   UNL     1     -40.001 -51.786  12.328  1.00  0.00    -0.275 N 
HETATM   17  C   UNL     1     -40.540 -52.930  12.858  1.00  0.00     0.329 C 
HETATM   18  H   UNL     1     -39.029 -51.828  12.066  1.00  0.00     0.173 HD
HETATM   19  O   UNL     1     -39.833 -53.922  13.027  1.00  0.00    -0.246 OA
ENDBRANCH   1  11
TORSDOF 4
ENDMDL
MODEL 3
REMARK VINA RESULT:      -5.5      2.869      6.701
REMARK  4 active torsions:
REMARK  status: ('A' for Active; 'I' for Inactive)
REMARK    1  A    between atoms: C_4  and  C_5 
REMARK    2  A    between atoms: C_5  and  N_6 
REMARK       I    between atoms: N_6  and  C_7 
REMARK    3  A    between atoms: C_7  and  C_9 
REMARK    4  A    between atoms: C_9  and  N_10 
ROOT
HETATM    1  C   UNL     1     -41.522 -49.349  11.506  1.00  0.00     0.235 C 
ENDROOT
BRANCH   1   2
HETATM    2  C   UNL     1     -42.549 -49.450  12.644  1.00  0.00     0.235 C 
HETATM    3  N   UNL     1     -43.248 -50.641  12.700  1.00  0.00    -0.359 N 
HETATM    4  H   UNL     1     -42.907 -51.449  12.193  1.00  0.00     0.162 HD
HETATM    5  O   UNL     1     -42.771 -48.526  13.422  1.00  0.00    -0.272 OA
BRANCH   3   6
HETATM    6  C   UNL     1     -44.258 -50.832  13.713  1.00  0.00     0.127 C 
BRANCH   6   7
HETATM    7  C   UNL     1     -45.559 -51.240  13.098  1.00  0.00     0.007 A 
HETATM    8  C   UNL     1     -46.790 -51.506  13.946  1.00  0.00    -0.013 A 
HETATM    9  C   UNL     1     -46.771 -51.438  15.437  1.00  0.00     0.010 C 
HETATM   10  C   UNL     1     -46.100 -52.644  13.240  1.00  0.00     0.011 A 
ENDBRANCH   6   7
ENDBRANCH   3   6
ENDBRANCH   1   2
BRANCH   1  11
HETATM   11  N   UNL     1     -41.171 -47.994  11.061  1.00  0.00    -0.301 N 
HETATM   12  C   UNL     1     -40.076 -47.345  11.600  1.00  0.00     0.102 C 
HETATM   13  C   UNL     1     -39.798 -46.069  11.321  1.00  0.00     0.092 C 
HETATM   14  C   UNL     1     -40.697 -45.326  10.426  1.00  0.00     0.250 C 
HETATM   15  O   UNL     1     -40.556 -44.124  10.241  1.00  0.00    -0.268 OA
HETATM   16  N   UNL     1     -41.695 -46.058   9.854  1.00  0.00    -0.275 N 
HETATM   17  C   UNL     1     -42.036 -47.344  10.185  1.00  0.00     0.329 C 
HETATM   18  H   UNL     1     -42.342 -45.560   9.265  1.00  0.00     0.173 HD
HETATM   19  O   UNL     1     -43.066 -47.842   9.736  1.00  0.00    -0.246 OA
ENDBRANCH   1  11
TORSDOF 4
ENDMDL
MODEL 4
REMARK VINA RESULT:      -5.5      3.342      4.672
REMARK  4 active torsions:
REMARK  status: ('A' for Active; 'I' for Inactive)
REMARK    1  A    between atoms: C_4  and  C_5 
REMARK    2  A    between atoms: C_5  and  N_6 
REMARK       I    between atoms: N_6  and  C_7 
REMARK    3  A    between atoms: C_7  and  C_9 
REMARK    4  A    between atoms: C_9  and  N_10 
ROOT
HETATM    1  C   UNL     1     -44.188 -53.588  12.426  1.00  0.00     0.235 C 
ENDROOT
BRANCH   1   2
HETATM    2  C   UNL     1     -42.779 -53.070  12.750  1.00  0.00     0.235 C 
HETATM    3  N   UNL     1     -42.168 -52.355  11.737  1.00  0.00    -0.359 N 
HETATM    4  H   UNL     1     -42.723 -51.996  10.969  1.00  0.00     0.162 HD
HETATM    5  O   UNL     1     -42.211 -53.310  13.813  1.00  0.00    -0.272 OA
BRANCH   3   6
HETATM    6  C   UNL     1     -40.831 -51.846  11.925  1.00  0.00     0.127 C 
BRANCH   6   7
HETATM    7  C   UNL     1     -40.787 -50.368  11.699  1.00  0.00     0.007 A 
HETATM    8  C   UNL     1     -39.472 -49.608  11.668  1.00  0.00    -0.013 A 
HETATM    9  C   UNL     1     -38.155 -50.265  11.918  1.00  0.00     0.010 C 
HETATM   10  C   UNL     1     -40.436 -49.404  12.809  1.00  0.00     0.011 A 
ENDBRANCH   6   7
ENDBRANCH   3   6
ENDBRANCH   1   2
BRANCH   1  11
HETATM   11  N   UNL     1     -45.263 -53.169  13.333  1.00  0.00    -0.301 N 
HETATM   12  C   UNL     1     -45.630 -51.838  13.413  1.00  0.00     0.102 C 
HETATM   13  C   UNL     1     -46.509 -51.395  14.316  1.00  0.00     0.092 C 
HETATM   14  C   UNL     1     -47.091 -52.353  15.267  1.00  0.00     0.250 C 
HETATM   15  O   UNL     1     -47.802 -51.977  16.190  1.00  0.00    -0.268 OA
HETATM   16  N   UNL     1     -46.761 -53.660  15.064  1.00  0.00    -0.275 N 
HETATM   17  C   UNL     1     -45.808 -54.119  14.192  1.00  0.00     0.329 C 
HETATM   18  H   UNL     1     -47.122 -54.327  15.726  1.00  0.00     0.173 HD
HETATM   19  O   UNL     1     -45.465 -55.300  14.222  1.00  0.00    -0.246 OA
ENDBRANCH   1  11
TORSDOF 4
ENDMDL
MODEL 5
REMARK VINA RESULT:      -5.4      2.431      5.809
REMARK  4 active torsions:
REMARK  status: ('A' for Active; 'I' for Inactive)
REMARK    1  A    between atoms: C_4  and  C_5 
REMARK    2  A    between atoms: C_5  and  N_6 
REMARK       I    between atoms: N_6  and  C_7 
REMARK    3  A    between atoms: C_7  and  C_9 
REMARK    4  A    between atoms: C_9  and  N_10 
ROOT
HETATM    1  C   UNL     1     -41.911 -48.317  13.214  1.00  0.00     0.235 C 
ENDROOT
BRANCH   1   2
HETATM    2  C   UNL     1     -42.874 -49.240  13.976  1.00  0.00     0.235 C 
HETATM    3  N   UNL     1     -43.187 -50.422  13.331  1.00  0.00    -0.359 N 
HETATM    4  H   UNL     1     -42.616 -50.741  12.558  1.00  0.00     0.162 HD
HETATM    5  O   UNL     1     -43.370 -48.936  15.057  1.00  0.00    -0.272 OA
BRANCH   3   6
HETATM    6  C   UNL     1     -44.107 -51.351  13.944  1.00  0.00     0.127 C 
BRANCH   6   7
HETATM    7  C   UNL     1     -45.415 -51.361  13.219  1.00  0.00     0.007 A 
HETATM    8  C   UNL     1     -46.737 -51.373  13.966  1.00  0.00    -0.013 A 
HETATM    9  C   UNL     1     -46.821 -51.435  15.456  1.00  0.00     0.010 C 
HETATM   10  C   UNL     1     -46.299 -52.587  13.189  1.00  0.00     0.011 A 
ENDBRANCH   6   7
ENDBRANCH   3   6
ENDBRANCH   1   2
BRANCH   1  11
HETATM   11  N   UNL     1     -42.258 -48.017  11.819  1.00  0.00    -0.301 N 
HETATM   12  C   UNL     1     -43.410 -47.311  11.524  1.00  0.00     0.102 C 
HETATM   13  C   UNL     1     -43.831 -47.130  10.269  1.00  0.00     0.092 C 
HETATM   14  C   UNL     1     -43.053 -47.717   9.169  1.00  0.00     0.250 C 
HETATM   15  O   UNL     1     -43.463 -47.687   8.016  1.00  0.00    -0.268 OA
HETATM   16  N   UNL     1     -41.879 -48.310   9.529  1.00  0.00    -0.275 N 
HETATM   17  C   UNL     1     -41.472 -48.568  10.812  1.00  0.00     0.329 C 
HETATM   18  H   UNL     1     -41.349 -48.749   8.793  1.00  0.00     0.173 HD
HETATM   19  O   UNL     1     -40.483 -49.270  11.014  1.00  0.00    -0.246 OA
ENDBRANCH   1  11
TORSDOF 4
ENDMDL
MODEL 6
REMARK VINA RESULT:      -5.4      4.270      7.117
REMARK  4 active torsions:
REMARK  status: ('A' for Active; 'I' for Inactive)
REMARK    1  A    between atoms: C_4  and  C_5 
REMARK    2  A    between atoms: C_5  and  N_6 
REMARK       I    between atoms: N_6  and  C_7 
REMARK    3  A    between atoms: C_7  and  C_9 
REMARK    4  A    between atoms: C_9  and  N_10 
ROOT
HETATM    1  C   UNL     1     -45.541 -54.581  14.457  1.00  0.00     0.235 C 
ENDROOT
BRANCH   1   2
HETATM    2  C   UNL     1     -45.765 -53.925  15.828  1.00  0.00     0.235 C 
HETATM    3  N   UNL     1     -46.066 -52.576  15.791  1.00  0.00    -0.359 N 
HETATM    4  H   UNL     1     -46.365 -52.150  14.923  1.00  0.00     0.162 HD
HETATM    5  O   UNL     1     -45.641 -54.538  16.885  1.00  0.00    -0.272 OA
BRANCH   3   6
HETATM    6  C   UNL     1     -46.268 -51.853  17.025  1.00  0.00     0.127 C 
BRANCH   6   7
HETATM    7  C   UNL     1     -47.697 -51.436  17.170  1.00  0.00     0.007 A 
HETATM    8  C   UNL     1     -48.083 -50.164  17.904  1.00  0.00    -0.013 A 
HETATM    9  C   UNL     1     -47.079 -49.286  18.576  1.00  0.00     0.010 C 
HETATM   10  C   UNL     1     -48.417 -51.508  18.496  1.00  0.00     0.011 A 
ENDBRANCH   6   7
ENDBRANCH   3   6
ENDBRANCH   1   2
BRANCH   1  11
HETATM   11  N   UNL     1     -44.341 -54.162  13.721  1.00  0.00    -0.301 N 
HETATM   12  C   UNL     1     -43.083 -54.426  14.230  1.00  0.00     0.102 C 
HETATM   13  C   UNL     1     -41.972 -53.951  13.661  1.00  0.00     0.092 C 
HETATM   14  C   UNL     1     -42.094 -53.105  12.465  1.00  0.00     0.250 C 
HETATM   15  O   UNL     1     -41.118 -52.544  11.983  1.00  0.00    -0.268 OA
HETATM   16  N   UNL     1     -43.354 -52.973  11.963  1.00  0.00    -0.275 N 
HETATM   17  C   UNL     1     -44.508 -53.391  12.574  1.00  0.00     0.329 C 
HETATM   18  H   UNL     1     -43.464 -52.369  11.164  1.00  0.00     0.173 HD
HETATM   19  O   UNL     1     -45.601 -53.058  12.119  1.00  0.00    -0.246 OA
ENDBRANCH   1  11
TORSDOF 4
ENDMDL
MODEL 7
REMARK VINA RESULT:      -5.4      3.529      5.842
REMARK  4 active torsions:
REMARK  status: ('A' for Active; 'I' for Inactive)
REMARK    1  A    between atoms: C_4  and  C_5 
REMARK    2  A    between atoms: C_5  and  N_6 
REMARK       I    between atoms: N_6  and  C_7 
REMARK    3  A    between atoms: C_7  and  C_9 
REMARK    4  A    between atoms: C_9  and  N_10 
ROOT
HETATM    1  C   UNL     1     -40.944 -52.859  12.165  1.00  0.00     0.235 C 
ENDROOT
BRANCH   1   2
HETATM    2  C   UNL     1     -42.293 -53.095  12.861  1.00  0.00     0.235 C 
HETATM    3  N   UNL     1     -43.405 -52.936  12.056  1.00  0.00    -0.359 N 
HETATM    4  H   UNL     1     -43.300 -52.926  11.049  1.00  0.00     0.162 HD
HETATM    5  O   UNL     1     -42.385 -53.361  14.057  1.00  0.00    -0.272 OA
BRANCH   3   6
HETATM    6  C   UNL     1     -44.724 -53.106  12.615  1.00  0.00     0.127 C 
BRANCH   6   7
HETATM    7  C   UNL     1     -45.399 -51.783  12.800  1.00  0.00     0.007 A 
HETATM    8  C   UNL     1     -46.453 -51.571  13.872  1.00  0.00    -0.013 A 
HETATM    9  C   UNL     1     -46.927 -52.671  14.764  1.00  0.00     0.010 C 
HETATM   10  C   UNL     1     -46.844 -51.566  12.417  1.00  0.00     0.011 A 
ENDBRANCH   6   7
ENDBRANCH   3   6
ENDBRANCH   1   2
BRANCH   1  11
HETATM   11  N   UNL     1     -40.175 -51.690  12.609  1.00  0.00    -0.301 N 
HETATM   12  C   UNL     1     -40.506 -50.425  12.158  1.00  0.00     0.102 C 
HETATM   13  C   UNL     1     -39.757 -49.354  12.432  1.00  0.00     0.092 C 
HETATM   14  C   UNL     1     -38.530 -49.530  13.222  1.00  0.00     0.250 C 
HETATM   15  O   UNL     1     -37.747 -48.604  13.392  1.00  0.00    -0.268 OA
HETATM   16  N   UNL     1     -38.323 -50.783  13.717  1.00  0.00    -0.275 N 
HETATM   17  C   UNL     1     -39.040 -51.904  13.386  1.00  0.00     0.329 C 
HETATM   18  H   UNL     1     -37.471 -50.933  14.232  1.00  0.00     0.173 HD
HETATM   19  O   UNL     1     -38.652 -53.012  13.749  1.00  0.00    -0.246 OA
ENDBRANCH   1  11
TORSDOF 4
ENDMDL
MODEL 8
REMARK VINA RESULT:      -5.2      2.458      6.410
REMARK  4 active torsions:
REMARK  status: ('A' for Active; 'I' for Inactive)
REMARK    1  A    between atoms: C_4  and  C_5 
REMARK    2  A    between atoms: C_5  and  N_6 
REMARK       I    between atoms: N_6  and  C_7 
REMARK    3  A    between atoms: C_7  and  C_9 
REMARK    4  A    between atoms: C_9  and  N_10 
ROOT
HETATM    1  C   UNL     1     -41.556 -48.529  12.298  1.00  0.00     0.235 C 
ENDROOT
BRANCH   1   2
HETATM    2  C   UNL     1     -42.257 -49.862  12.604  1.00  0.00     0.235 C 
HETATM    3  N   UNL     1     -43.305 -49.782  13.501  1.00  0.00    -0.359 N 
HETATM    4  H   UNL     1     -43.717 -48.882  13.715  1.00  0.00     0.162 HD
HETATM    5  O   UNL     1     -41.888 -50.931  12.125  1.00  0.00    -0.272 OA
BRANCH   3   6
HETATM    6  C   UNL     1     -44.015 -50.979  13.882  1.00  0.00     0.127 C 
BRANCH   6   7
HETATM    7  C   UNL     1     -45.250 -51.150  13.056  1.00  0.00     0.007 A 
HETATM    8  C   UNL     1     -46.601 -51.425  13.694  1.00  0.00    -0.013 A 
HETATM    9  C   UNL     1     -46.776 -51.602  15.166  1.00  0.00     0.010 C 
HETATM   10  C   UNL     1     -45.915 -52.497  12.887  1.00  0.00     0.011 A 
ENDBRANCH   6   7
ENDBRANCH   3   6
ENDBRANCH   1   2
BRANCH   1  11
HETATM   11  N   UNL     1     -42.265 -47.608  11.402  1.00  0.00    -0.301 N 
HETATM   12  C   UNL     1     -42.488 -47.953  10.082  1.00  0.00     0.102 C 
HETATM   13  C   UNL     1     -43.012 -47.096   9.201  1.00  0.00     0.092 C 
HETATM   14  C   UNL     1     -43.342 -45.735   9.648  1.00  0.00     0.250 C 
HETATM   15  O   UNL     1     -43.705 -44.877   8.853  1.00  0.00    -0.268 OA
HETATM   16  N   UNL     1     -43.191 -45.500  10.982  1.00  0.00    -0.275 N 
HETATM   17  C   UNL     1     -42.588 -46.342  11.881  1.00  0.00     0.329 C 
HETATM   18  H   UNL     1     -43.379 -44.563  11.302  1.00  0.00     0.173 HD
HETATM   19  O   UNL     1     -42.342 -45.951  13.020  1.00  0.00    -0.246 OA
ENDBRANCH   1  11
TORSDOF 4
ENDMDL
MODEL 9
REMARK VINA RESULT:      -5.1      2.201      6.564
REMARK  4 active torsions:
REMARK  status: ('A' for Active; 'I' for Inactive)
REMARK    1  A    between atoms: C_4  and  C_5 
REMARK    2  A    between atoms: C_5  and  N_6 
REMARK       I    between atoms: N_6  and  C_7 
REMARK    3  A    between atoms: C_7  and  C_9 
REMARK    4  A    between atoms: C_9  and  N_10 
ROOT
HETATM    1  C   UNL     1     -41.273 -50.582  12.144  1.00  0.00     0.235 C 
ENDROOT
BRANCH   1   2
HETATM    2  C   UNL     1     -42.477 -51.120  12.932  1.00  0.00     0.235 C 
HETATM    3  N   UNL     1     -43.205 -52.105  12.292  1.00  0.00    -0.359 N 
HETATM    4  H   UNL     1     -42.806 -52.591  11.498  1.00  0.00     0.162 HD
HETATM    5  O   UNL     1     -42.801 -50.679  14.031  1.00  0.00    -0.272 OA
BRANCH   3   6
HETATM    6  C   UNL     1     -44.374 -52.661  12.931  1.00  0.00     0.127 C 
BRANCH   6   7
HETATM    7  C   UNL     1     -44.269 -54.150  13.029  1.00  0.00     0.007 A 
HETATM    8  C   UNL     1     -45.259 -54.964  13.844  1.00  0.00    -0.013 A 
HETATM    9  C   UNL     1     -46.353 -54.337  14.642  1.00  0.00     0.010 C 
HETATM   10  C   UNL     1     -43.829 -54.835  14.303  1.00  0.00     0.011 A 
ENDBRANCH   6   7
ENDBRANCH   3   6
ENDBRANCH   1   2
BRANCH   1  11
HETATM   11  N   UNL     1     -41.353 -49.183  11.703  1.00  0.00    -0.301 N 
HETATM   12  C   UNL     1     -42.576 -48.620  11.389  1.00  0.00     0.102 C 
HETATM   13  C   UNL     1     -42.682 -47.398  10.862  1.00  0.00     0.092 C 
HETATM   14  C   UNL     1     -41.455 -46.635  10.588  1.00  0.00     0.250 C 
HETATM   15  O   UNL     1     -41.492 -45.567   9.991  1.00  0.00    -0.268 OA
HETATM   16  N   UNL     1     -40.296 -47.211  11.016  1.00  0.00    -0.275 N 
HETATM   17  C   UNL     1     -40.165 -48.491  11.490  1.00  0.00     0.329 C 
HETATM   18  H   UNL     1     -39.441 -46.721  10.807  1.00  0.00     0.173 HD
HETATM   19  O   UNL     1     -39.046 -48.967  11.675  1.00  0.00    -0.246 OA
ENDBRANCH   1  11
TORSDOF 4
ENDMDL
