MODEL 1
REMARK VINA RESULT:      -6.0      0.000      0.000
REMARK  4 active torsions:
REMARK  status: ('A' for Active; 'I' for Inactive)
REMARK    1  A    between atoms: C_2  and  C_3 
REMARK    2  A    between atoms: C_3  and  C_4 
REMARK       I    between atoms: N_10  and  C_11 
REMARK       I    between atoms: C_11  and  N_13 
REMARK    3  A    between atoms: N_13  and  C_14 
REMARK    4  A    between atoms: C_14  and  C_15 
ROOT
HETATM    1  C   UNL     1     -44.108 -54.142  13.107  1.00  0.00     0.069 A 
HETATM    2  N   UNL     1     -44.084 -53.289  12.104  1.00  0.00    -0.296 N 
ATOM      3  HN  UNL     1     -44.878 -53.105  11.491  1.00  0.00     0.187 HD
HETATM    4  N   UNL     1     -42.861 -52.678  11.980  1.00  0.00    -0.279 N 
ATOM      5  HN  UNL     1     -42.642 -51.981  11.268  1.00  0.00     0.189 HD
HETATM    6  C   UNL     1     -42.006 -53.095  12.883  1.00  0.00     0.169 A 
HETATM    7  N   UNL     1     -40.722 -52.679  13.083  1.00  0.00    -0.288 N 
HETATM    8  C   UNL     1     -40.131 -51.652  12.410  1.00  0.00     0.322 C 
HETATM    9  O   UNL     1     -38.938 -51.417  12.588  1.00  0.00    -0.247 OA
HETATM   10  N   UNL     1     -40.919 -50.915  11.582  1.00  0.00    -0.340 N 
HETATM   11  S   UNL     1     -42.605 -54.294  13.936  1.00  0.00    -0.038 SA
HETATM   12  H   UNL     1     -40.152 -53.160  13.763  1.00  0.00     0.172 HD
HETATM   13  H   UNL     1     -41.918 -51.097  11.581  1.00  0.00     0.164 HD
ENDROOT
BRANCH  10  14
HETATM   14  C   UNL     1     -40.476 -49.775  10.805  1.00  0.00     0.156 C 
BRANCH  14  15
HETATM   15  C   UNL     1     -41.364 -48.535  10.954  1.00  0.00     0.139 C 
HETATM   16  C   UNL     1     -42.509 -48.642  11.949  1.00  0.00     0.035 C 
HETATM   17  C   UNL     1     -43.603 -47.772  11.363  1.00  0.00     0.029 C 
HETATM   18  C   UNL     1     -43.047 -47.276  10.045  1.00  0.00     0.168 C 
HETATM   19  O   UNL     1     -41.978 -48.168   9.704  1.00  0.00    -0.384 OA
ENDBRANCH  14  15
ENDBRANCH  10  14
BRANCH   1  20
HETATM   20  C   UNL     1     -45.327 -54.897  13.520  1.00  0.00     0.066 C 
BRANCH  20  21
HETATM   21  C   UNL     1     -45.902 -54.340  14.824  1.00  0.00     0.002 C 
HETATM   22  C   UNL     1     -46.764 -53.116  14.572  1.00  0.00     0.005 C 
ENDBRANCH  20  21
ENDBRANCH   1  20
TORSDOF 4
ENDMDL
MODEL 2
REMARK VINA RESULT:      -6.0      2.958      6.410
REMARK  4 active torsions:
REMARK  status: ('A' for Active; 'I' for Inactive)
REMARK    1  A    between atoms: C_2  and  C_3 
REMARK    2  A    between atoms: C_3  and  C_4 
REMARK       I    between atoms: N_10  and  C_11 
REMARK       I    between atoms: C_11  and  N_13 
REMARK    3  A    between atoms: N_13  and  C_14 
REMARK    4  A    between atoms: C_14  and  C_15 
ROOT
HETATM    1  C   UNL     1     -41.496 -48.205  11.117  1.00  0.00     0.069 A 
HETATM    2  N   UNL     1     -42.656 -48.716  11.470  1.00  0.00    -0.296 N 
ATOM      3  HN  UNL     1     -43.534 -48.195  11.471  1.00  0.00     0.187 HD
HETATM    4  N   UNL     1     -42.546 -50.034  11.839  1.00  0.00    -0.279 N 
ATOM      5  HN  UNL     1     -43.333 -50.609  12.139  1.00  0.00     0.189 HD
HETATM    6  C   UNL     1     -41.311 -50.467  11.759  1.00  0.00     0.169 A 
HETATM    7  N   UNL     1     -40.842 -51.725  12.008  1.00  0.00    -0.288 N 
HETATM    8  C   UNL     1     -41.629 -52.799  12.295  1.00  0.00     0.322 C 
HETATM    9  O   UNL     1     -41.109 -53.868  12.604  1.00  0.00    -0.247 OA
HETATM   10  N   UNL     1     -42.975 -52.628  12.196  1.00  0.00    -0.340 N 
HETATM   11  S   UNL     1     -40.172 -49.299  11.268  1.00  0.00    -0.038 SA
HETATM   12  H   UNL     1     -39.846 -51.887  11.994  1.00  0.00     0.172 HD
HETATM   13  H   UNL     1     -43.322 -51.750  11.819  1.00  0.00     0.164 HD
ENDROOT
BRANCH  10  14
HETATM   14  C   UNL     1     -43.967 -53.656  12.437  1.00  0.00     0.156 C 
BRANCH  14  15
HETATM   15  C   UNL     1     -45.339 -53.114  12.853  1.00  0.00     0.139 C 
HETATM   16  C   UNL     1     -45.413 -51.625  13.153  1.00  0.00     0.035 C 
HETATM   17  C   UNL     1     -46.470 -51.508  14.232  1.00  0.00     0.029 C 
HETATM   18  C   UNL     1     -46.888 -52.933  14.530  1.00  0.00     0.168 C 
HETATM   19  O   UNL     1     -45.831 -53.767  14.038  1.00  0.00    -0.384 OA
ENDBRANCH  14  15
ENDBRANCH  10  14
BRANCH   1  20
HETATM   20  C   UNL     1     -41.327 -46.815  10.603  1.00  0.00     0.066 C 
BRANCH  20  21
HETATM   21  C   UNL     1     -39.963 -46.246  10.999  1.00  0.00     0.002 C 
HETATM   22  C   UNL     1     -39.633 -44.994  10.204  1.00  0.00     0.005 C 
ENDBRANCH  20  21
ENDBRANCH   1  20
TORSDOF 4
ENDMDL
MODEL 3
REMARK VINA RESULT:      -5.8      5.244      6.517
REMARK  4 active torsions:
REMARK  status: ('A' for Active; 'I' for Inactive)
REMARK    1  A    between atoms: C_2  and  C_3 
REMARK    2  A    between atoms: C_3  and  C_4 
REMARK       I    between atoms: N_10  and  C_11 
REMARK       I    between atoms: C_11  and  N_13 
REMARK    3  A    between atoms: N_13  and  C_14 
REMARK    4  A    between atoms: C_14  and  C_15 
ROOT
HETATM    1  C   UNL     1     -45.130 -47.055   9.544  1.00  0.00     0.069 A 
HETATM    2  N   UNL     1     -44.731 -47.563  10.692  1.00  0.00    -0.296 N 
ATOM      3  HN  UNL     1     -45.332 -48.100  11.318  1.00  0.00     0.187 HD
HETATM    4  N   UNL     1     -43.412 -47.283  10.945  1.00  0.00    -0.279 N 
ATOM      5  HN  UNL     1     -42.914 -47.594  11.779  1.00  0.00     0.189 HD
HETATM    6  C   UNL     1     -42.865 -46.570   9.990  1.00  0.00     0.169 A 
HETATM    7  N   UNL     1     -41.571 -46.147   9.890  1.00  0.00    -0.288 N 
HETATM    8  C   UNL     1     -40.577 -46.496  10.754  1.00  0.00     0.322 C 
HETATM    9  O   UNL     1     -39.467 -45.983  10.639  1.00  0.00    -0.247 OA
HETATM   10  N   UNL     1     -40.871 -47.431  11.697  1.00  0.00    -0.340 N 
HETATM   11  S   UNL     1     -43.920 -46.145   8.721  1.00  0.00    -0.038 SA
HETATM   12  H   UNL     1     -41.318 -45.523   9.139  1.00  0.00     0.172 HD
HETATM   13  H   UNL     1     -41.775 -47.893  11.650  1.00  0.00     0.164 HD
ENDROOT
BRANCH  10  14
HETATM   14  C   UNL     1     -39.942 -47.944  12.682  1.00  0.00     0.156 C 
BRANCH  14  15
HETATM   15  C   UNL     1     -39.291 -49.276  12.294  1.00  0.00     0.139 C 
HETATM   16  C   UNL     1     -38.832 -50.161  13.442  1.00  0.00     0.035 C 
HETATM   17  C   UNL     1     -37.614 -50.881  12.900  1.00  0.00     0.029 C 
HETATM   18  C   UNL     1     -37.411 -50.320  11.508  1.00  0.00     0.168 C 
HETATM   19  O   UNL     1     -38.124 -49.077  11.475  1.00  0.00    -0.384 OA
ENDBRANCH  14  15
ENDBRANCH  10  14
BRANCH   1  20
HETATM   20  C   UNL     1     -46.495 -47.260   8.980  1.00  0.00     0.066 C 
BRANCH  20  21
HETATM   21  C   UNL     1     -46.777 -48.747   8.751  1.00  0.00     0.002 C 
HETATM   22  C   UNL     1     -46.406 -49.170   7.340  1.00  0.00     0.005 C 
ENDBRANCH  20  21
ENDBRANCH   1  20
TORSDOF 4
ENDMDL
MODEL 4
REMARK VINA RESULT:      -5.7      3.980      6.365
REMARK  4 active torsions:
REMARK  status: ('A' for Active; 'I' for Inactive)
REMARK    1  A    between atoms: C_2  and  C_3 
REMARK    2  A    between atoms: C_3  and  C_4 
REMARK       I    between atoms: N_10  and  C_11 
REMARK       I    between atoms: C_11  and  N_13 
REMARK    3  A    between atoms: N_13  and  C_14 
REMARK    4  A    between atoms: C_14  and  C_15 
ROOT
HETATM    1  C   UNL     1     -42.981 -47.138   9.778  1.00  0.00     0.069 A 
HETATM    2  N   UNL     1     -42.846 -48.416  10.066  1.00  0.00    -0.296 N 
ATOM      3  HN  UNL     1     -43.470 -49.147   9.724  1.00  0.00     0.187 HD
HETATM    4  N   UNL     1     -41.766 -48.646  10.881  1.00  0.00    -0.279 N 
ATOM      5  HN  UNL     1     -41.490 -49.571  11.211  1.00  0.00     0.189 HD
HETATM    6  C   UNL     1     -41.132 -47.540  11.187  1.00  0.00     0.169 A 
HETATM    7  N   UNL     1     -40.001 -47.397  11.937  1.00  0.00    -0.288 N 
HETATM    8  C   UNL     1     -39.266 -48.434  12.428  1.00  0.00     0.322 C 
HETATM    9  O   UNL     1     -38.320 -48.205  13.178  1.00  0.00    -0.247 OA
HETATM   10  N   UNL     1     -39.612 -49.687  12.029  1.00  0.00    -0.340 N 
HETATM   11  S   UNL     1     -41.817 -46.120  10.540  1.00  0.00    -0.038 SA
HETATM   12  H   UNL     1     -39.679 -46.469  12.165  1.00  0.00     0.172 HD
HETATM   13  H   UNL     1     -40.329 -49.784  11.315  1.00  0.00     0.164 HD
ENDROOT
BRANCH  10  14
HETATM   14  C   UNL     1     -38.936 -50.906  12.424  1.00  0.00     0.156 C 
BRANCH  14  15
HETATM   15  C   UNL     1     -39.849 -51.936  13.100  1.00  0.00     0.139 C 
HETATM   16  C   UNL     1     -39.210 -52.794  14.180  1.00  0.00     0.035 C 
HETATM   17  C   UNL     1     -39.934 -54.122  14.085  1.00  0.00     0.029 C 
HETATM   18  C   UNL     1     -40.890 -53.967  12.921  1.00  0.00     0.168 C 
HETATM   19  O   UNL     1     -40.397 -52.865  12.148  1.00  0.00    -0.384 OA
ENDBRANCH  14  15
ENDBRANCH  10  14
BRANCH   1  20
HETATM   20  C   UNL     1     -44.024 -46.604   8.855  1.00  0.00     0.066 C 
BRANCH  20  21
HETATM   21  C   UNL     1     -45.182 -47.594   8.705  1.00  0.00     0.002 C 
HETATM   22  C   UNL     1     -46.507 -46.959   9.091  1.00  0.00     0.005 C 
ENDBRANCH  20  21
ENDBRANCH   1  20
TORSDOF 4
ENDMDL
MODEL 5
REMARK VINA RESULT:      -5.7      3.015      3.631
REMARK  4 active torsions:
REMARK  status: ('A' for Active; 'I' for Inactive)
REMARK    1  A    between atoms: C_2  and  C_3 
REMARK    2  A    between atoms: C_3  and  C_4 
REMARK       I    between atoms: N_10  and  C_11 
REMARK       I    between atoms: C_11  and  N_13 
REMARK    3  A    between atoms: N_13  and  C_14 
REMARK    4  A    between atoms: C_14  and  C_15 
ROOT
HETATM    1  C   UNL     1     -44.810 -52.100  13.026  1.00  0.00     0.069 A 
HETATM    2  N   UNL     1     -43.873 -51.234  13.352  1.00  0.00    -0.296 N 
ATOM      3  HN  UNL     1     -44.052 -50.252  13.566  1.00  0.00     0.187 HD
HETATM    4  N   UNL     1     -42.627 -51.809  13.370  1.00  0.00    -0.279 N 
ATOM      5  HN  UNL     1     -41.772 -51.307  13.605  1.00  0.00     0.189 HD
HETATM    6  C   UNL     1     -42.665 -53.080  13.049  1.00  0.00     0.169 A 
HETATM    7  N   UNL     1     -41.629 -53.969  13.004  1.00  0.00    -0.288 N 
HETATM    8  C   UNL     1     -40.355 -53.687  13.395  1.00  0.00     0.322 C 
HETATM    9  O   UNL     1     -39.469 -54.521  13.222  1.00  0.00    -0.247 OA
HETATM   10  N   UNL     1     -40.138 -52.484  13.992  1.00  0.00    -0.340 N 
HETATM   11  S   UNL     1     -44.213 -53.675  12.660  1.00  0.00    -0.038 SA
HETATM   12  H   UNL     1     -41.797 -54.897  12.648  1.00  0.00     0.172 HD
HETATM   13  H   UNL     1     -40.942 -51.902  14.206  1.00  0.00     0.164 HD
ENDROOT
BRANCH  10  14
HETATM   14  C   UNL     1     -38.861 -52.020  14.494  1.00  0.00     0.156 C 
BRANCH  14  15
HETATM   15  C   UNL     1     -38.201 -50.945  13.624  1.00  0.00     0.139 C 
HETATM   16  C   UNL     1     -39.118 -49.859  13.085  1.00  0.00     0.035 C 
HETATM   17  C   UNL     1     -38.517 -49.486  11.744  1.00  0.00     0.029 C 
HETATM   18  C   UNL     1     -37.339 -50.421  11.568  1.00  0.00     0.168 C 
HETATM   19  O   UNL     1     -37.564 -51.515  12.466  1.00  0.00    -0.384 OA
ENDBRANCH  14  15
ENDBRANCH  10  14
BRANCH   1  20
HETATM   20  C   UNL     1     -46.265 -51.771  12.996  1.00  0.00     0.066 C 
BRANCH  20  21
HETATM   21  C   UNL     1     -46.762 -51.354  14.381  1.00  0.00     0.002 C 
HETATM   22  C   UNL     1     -47.003 -52.562  15.270  1.00  0.00     0.005 C 
ENDBRANCH  20  21
ENDBRANCH   1  20
TORSDOF 4
ENDMDL
MODEL 6
REMARK VINA RESULT:      -5.7      4.575      6.379
REMARK  4 active torsions:
REMARK  status: ('A' for Active; 'I' for Inactive)
REMARK    1  A    between atoms: C_2  and  C_3 
REMARK    2  A    between atoms: C_3  and  C_4 
REMARK       I    between atoms: N_10  and  C_11 
REMARK       I    between atoms: C_11  and  N_13 
REMARK    3  A    between atoms: N_13  and  C_14 
REMARK    4  A    between atoms: C_14  and  C_15 
ROOT
HETATM    1  C   UNL     1     -43.122 -47.080   9.489  1.00  0.00     0.069 A 
HETATM    2  N   UNL     1     -42.469 -48.218   9.389  1.00  0.00    -0.296 N 
ATOM      3  HN  UNL     1     -42.700 -48.953   8.720  1.00  0.00     0.187 HD
HETATM    4  N   UNL     1     -41.440 -48.300  10.294  1.00  0.00    -0.279 N 
ATOM      5  HN  UNL     1     -40.812 -49.100  10.371  1.00  0.00     0.189 HD
HETATM    6  C   UNL     1     -41.358 -47.230  11.047  1.00  0.00     0.169 A 
HETATM    7  N   UNL     1     -40.439 -46.951  12.017  1.00  0.00    -0.288 N 
HETATM    8  C   UNL     1     -39.358 -47.729  12.302  1.00  0.00     0.322 C 
HETATM    9  O   UNL     1     -38.643 -47.448  13.261  1.00  0.00    -0.247 OA
HETATM   10  N   UNL     1     -39.113 -48.780  11.474  1.00  0.00    -0.340 N 
HETATM   11  S   UNL     1     -42.550 -46.049  10.747  1.00  0.00    -0.038 SA
HETATM   12  H   UNL     1     -40.559 -46.122  12.580  1.00  0.00     0.172 HD
HETATM   13  H   UNL     1     -39.679 -48.875  10.636  1.00  0.00     0.164 HD
ENDROOT
BRANCH  10  14
HETATM   14  C   UNL     1     -38.002 -49.701  11.602  1.00  0.00     0.156 C 
BRANCH  14  15
HETATM   15  C   UNL     1     -38.266 -50.871  12.556  1.00  0.00     0.139 C 
HETATM   16  C   UNL     1     -39.711 -51.330  12.673  1.00  0.00     0.035 C 
HETATM   17  C   UNL     1     -39.840 -51.812  14.104  1.00  0.00     0.029 C 
HETATM   18  C   UNL     1     -38.490 -51.539  14.734  1.00  0.00     0.168 C 
HETATM   19  O   UNL     1     -37.853 -50.563  13.900  1.00  0.00    -0.384 OA
ENDBRANCH  14  15
ENDBRANCH  10  14
BRANCH   1  20
HETATM   20  C   UNL     1     -44.243 -46.689   8.586  1.00  0.00     0.066 C 
BRANCH  20  21
HETATM   21  C   UNL     1     -45.211 -47.855   8.374  1.00  0.00     0.002 C 
HETATM   22  C   UNL     1     -46.569 -47.566   8.988  1.00  0.00     0.005 C 
ENDBRANCH  20  21
ENDBRANCH   1  20
TORSDOF 4
ENDMDL
MODEL 7
REMARK VINA RESULT:      -5.5      1.513      1.992
REMARK  4 active torsions:
REMARK  status: ('A' for Active; 'I' for Inactive)
REMARK    1  A    between atoms: C_2  and  C_3 
REMARK    2  A    between atoms: C_3  and  C_4 
REMARK       I    between atoms: N_10  and  C_11 
REMARK       I    between atoms: C_11  and  N_13 
REMARK    3  A    between atoms: N_13  and  C_14 
REMARK    4  A    between atoms: C_14  and  C_15 
ROOT
HETATM    1  C   UNL     1     -42.833 -53.151  12.735  1.00  0.00     0.069 A 
HETATM    2  N   UNL     1     -43.300 -51.963  12.416  1.00  0.00    -0.296 N 
ATOM      3  HN  UNL     1     -44.291 -51.718  12.419  1.00  0.00     0.187 HD
HETATM    4  N   UNL     1     -42.296 -51.091  12.077  1.00  0.00    -0.279 N 
ATOM      5  HN  UNL     1     -42.452 -50.120  11.806  1.00  0.00     0.189 HD
HETATM    6  C   UNL     1     -41.112 -51.651  12.144  1.00  0.00     0.169 A 
HETATM    7  N   UNL     1     -39.894 -51.077  11.917  1.00  0.00    -0.288 N 
HETATM    8  C   UNL     1     -39.701 -49.751  11.671  1.00  0.00     0.322 C 
HETATM    9  O   UNL     1     -38.579 -49.346  11.378  1.00  0.00    -0.247 OA
HETATM   10  N   UNL     1     -40.780 -48.932  11.791  1.00  0.00    -0.340 N 
HETATM   11  S   UNL     1     -41.122 -53.297  12.585  1.00  0.00    -0.038 SA
HETATM   12  H   UNL     1     -39.072 -51.660  11.916  1.00  0.00     0.172 HD
HETATM   13  H   UNL     1     -41.645 -49.325  12.153  1.00  0.00     0.164 HD
ENDROOT
BRANCH  10  14
HETATM   14  C   UNL     1     -40.765 -47.497  11.593  1.00  0.00     0.156 C 
BRANCH  14  15
HETATM   15  C   UNL     1     -41.507 -47.032  10.336  1.00  0.00     0.139 C 
HETATM   16  C   UNL     1     -42.373 -45.790  10.486  1.00  0.00     0.035 C 
HETATM   17  C   UNL     1     -43.520 -46.010   9.520  1.00  0.00     0.029 C 
HETATM   18  C   UNL     1     -43.279 -47.384   8.929  1.00  0.00     0.168 C 
HETATM   19  O   UNL     1     -42.388 -48.052   9.830  1.00  0.00    -0.384 OA
ENDBRANCH  14  15
ENDBRANCH  10  14
BRANCH   1  20
HETATM   20  C   UNL     1     -43.690 -54.275  13.211  1.00  0.00     0.066 C 
BRANCH  20  21
HETATM   21  C   UNL     1     -45.169 -53.881  13.203  1.00  0.00     0.002 C 
HETATM   22  C   UNL     1     -45.911 -54.488  14.380  1.00  0.00     0.005 C 
ENDBRANCH  20  21
ENDBRANCH   1  20
TORSDOF 4
ENDMDL
MODEL 8
REMARK VINA RESULT:      -5.4      1.934      2.327
REMARK  4 active torsions:
REMARK  status: ('A' for Active; 'I' for Inactive)
REMARK    1  A    between atoms: C_2  and  C_3 
REMARK    2  A    between atoms: C_3  and  C_4 
REMARK       I    between atoms: N_10  and  C_11 
REMARK       I    between atoms: C_11  and  N_13 
REMARK    3  A    between atoms: N_13  and  C_14 
REMARK    4  A    between atoms: C_14  and  C_15 
ROOT
HETATM    1  C   UNL     1     -45.151 -51.671  13.445  1.00  0.00     0.069 A 
HETATM    2  N   UNL     1     -44.408 -50.813  12.777  1.00  0.00    -0.296 N 
ATOM      3  HN  UNL     1     -44.760 -49.945  12.375  1.00  0.00     0.187 HD
HETATM    4  N   UNL     1     -43.102 -51.227  12.688  1.00  0.00    -0.279 N 
ATOM      5  HN  UNL     1     -42.369 -50.699  12.216  1.00  0.00     0.189 HD
HETATM    6  C   UNL     1     -42.907 -52.381  13.279  1.00  0.00     0.169 A 
HETATM    7  N   UNL     1     -41.736 -53.068  13.421  1.00  0.00    -0.288 N 
HETATM    8  C   UNL     1     -40.516 -52.598  13.039  1.00  0.00     0.322 C 
HETATM    9  O   UNL     1     -39.533 -53.332  13.114  1.00  0.00    -0.247 OA
HETATM   10  N   UNL     1     -40.451 -51.309  12.612  1.00  0.00    -0.340 N 
HETATM   11  S   UNL     1     -44.303 -53.081  13.961  1.00  0.00    -0.038 SA
HETATM   12  H   UNL     1     -41.758 -53.994  13.822  1.00  0.00     0.172 HD
HETATM   13  H   UNL     1     -41.284 -50.733  12.692  1.00  0.00     0.164 HD
ENDROOT
BRANCH  10  14
HETATM   14  C   UNL     1     -39.243 -50.629  12.190  1.00  0.00     0.156 C 
BRANCH  14  15
HETATM   15  C   UNL     1     -39.478 -49.211  11.657  1.00  0.00     0.139 C 
HETATM   16  C   UNL     1     -39.311 -48.079  12.658  1.00  0.00     0.035 C 
HETATM   17  C   UNL     1     -40.305 -47.027  12.210  1.00  0.00     0.029 C 
HETATM   18  C   UNL     1     -41.024 -47.643  11.028  1.00  0.00     0.168 C 
HETATM   19  O   UNL     1     -40.807 -49.057  11.125  1.00  0.00    -0.384 OA
ENDBRANCH  14  15
ENDBRANCH  10  14
BRANCH   1  20
HETATM   20  C   UNL     1     -46.592 -51.447  13.759  1.00  0.00     0.066 C 
BRANCH  20  21
HETATM   21  C   UNL     1     -47.015 -52.245  14.994  1.00  0.00     0.002 C 
HETATM   22  C   UNL     1     -47.321 -51.330  16.167  1.00  0.00     0.005 C 
ENDBRANCH  20  21
ENDBRANCH   1  20
TORSDOF 4
ENDMDL
MODEL 9
REMARK VINA RESULT:      -5.4      2.827      6.019
REMARK  4 active torsions:
REMARK  status: ('A' for Active; 'I' for Inactive)
REMARK    1  A    between atoms: C_2  and  C_3 
REMARK    2  A    between atoms: C_3  and  C_4 
REMARK       I    between atoms: N_10  and  C_11 
REMARK       I    between atoms: C_11  and  N_13 
REMARK    3  A    between atoms: N_13  and  C_14 
REMARK    4  A    between atoms: C_14  and  C_15 
ROOT
HETATM    1  C   UNL     1     -42.380 -47.409  10.519  1.00  0.00     0.069 A 
HETATM    2  N   UNL     1     -42.953 -48.571  10.754  1.00  0.00    -0.296 N 
ATOM      3  HN  UNL     1     -43.932 -48.776  10.552  1.00  0.00     0.187 HD
HETATM    4  N   UNL     1     -42.076 -49.474  11.301  1.00  0.00    -0.279 N 
ATOM      5  HN  UNL     1     -42.325 -50.431  11.549  1.00  0.00     0.189 HD
HETATM    6  C   UNL     1     -40.880 -48.962  11.470  1.00  0.00     0.169 A 
HETATM    7  N   UNL     1     -39.760 -49.579  11.947  1.00  0.00    -0.288 N 
HETATM    8  C   UNL     1     -39.678 -50.905  12.246  1.00  0.00     0.322 C 
HETATM    9  O   UNL     1     -38.657 -51.348  12.767  1.00  0.00    -0.247 OA
HETATM   10  N   UNL     1     -40.745 -51.684  11.920  1.00  0.00    -0.340 N 
HETATM   11  S   UNL     1     -40.730 -47.328  11.012  1.00  0.00    -0.038 SA
HETATM   12  H   UNL     1     -38.930 -49.028  12.108  1.00  0.00     0.172 HD
HETATM   13  H   UNL     1     -41.500 -51.266  11.385  1.00  0.00     0.164 HD
ENDROOT
BRANCH  10  14
HETATM   14  C   UNL     1     -40.832 -53.114  12.137  1.00  0.00     0.156 C 
BRANCH  14  15
HETATM   15  C   UNL     1     -42.060 -53.549  12.944  1.00  0.00     0.139 C 
HETATM   16  C   UNL     1     -43.392 -52.953  12.518  1.00  0.00     0.035 C 
HETATM   17  C   UNL     1     -44.185 -52.841  13.804  1.00  0.00     0.029 C 
HETATM   18  C   UNL     1     -43.243 -53.314  14.890  1.00  0.00     0.168 C 
HETATM   19  O   UNL     1     -41.923 -53.220  14.339  1.00  0.00    -0.384 OA
ENDBRANCH  14  15
ENDBRANCH  10  14
BRANCH   1  20
HETATM   20  C   UNL     1     -43.073 -46.263   9.863  1.00  0.00     0.066 C 
BRANCH  20  21
HETATM   21  C   UNL     1     -43.989 -46.748   8.736  1.00  0.00     0.002 C 
HETATM   22  C   UNL     1     -45.452 -46.635   9.125  1.00  0.00     0.005 C 
ENDBRANCH  20  21
ENDBRANCH   1  20
TORSDOF 4
ENDMDL
