MODEL 1
REMARK VINA RESULT:      -6.3      0.000      0.000
REMARK  2 active torsions:
REMARK  status: ('A' for Active; 'I' for Inactive)
REMARK    1  A    between atoms: C_2  and  C_5 
REMARK    2  A    between atoms: C_8  and  C_11 
ROOT
HETATM    1  C   UNL     1     -44.983 -47.638   8.977  1.00  0.00     0.133 C 
HETATM    2  C   UNL     1     -43.881 -47.733   8.142  1.00  0.00     0.123 C 
HETATM    3  N   UNL     1     -42.821 -47.264   8.871  1.00  0.00    -0.353 N 
HETATM    4  C   UNL     1     -43.277 -47.029  10.152  1.00  0.00     0.087 C 
HETATM    5  N   UNL     1     -44.589 -47.093  10.192  1.00  0.00    -0.341 N 
ATOM      6  HN  UNL     1     -45.195 -46.803  10.959  1.00  0.00     0.167 HD
HETATM    7  H   UNL     1     -41.839 -47.352   8.637  1.00  0.00     0.166 HD
ENDROOT
BRANCH   4   8
HETATM    8  C   UNL     1     -42.371 -47.053  11.352  1.00  0.00     0.081 C 
HETATM    9  C   UNL     1     -42.433 -45.814  12.253  1.00  0.00     0.015 C 
HETATM   10  C   UNL     1     -41.610 -44.636  11.732  1.00  0.00     0.031 C 
HETATM   11  C   UNL     1     -40.241 -45.043  11.193  1.00  0.00     0.269 C 
HETATM   12  N   UNL     1     -40.328 -46.154  10.243  1.00  0.00     0.084 N 
HETATM   13  C   UNL     1     -40.926 -47.332  10.902  1.00  0.00     0.281 C 
HETATM   14  H   UNL     1     -39.386 -46.402   9.932  1.00  0.00     0.315 HD
ENDBRANCH   4   8
BRANCH   1  15
HETATM   15  C   UNL     1     -46.378 -48.148   8.765  1.00  0.00     0.433 C 
HETATM   16  F   UNL     1     -46.709 -49.103   9.681  1.00  0.00    -0.165 F 
HETATM   17  F   UNL     1     -46.551 -48.711   7.543  1.00  0.00    -0.165 F 
HETATM   18  F   UNL     1     -47.312 -47.165   8.890  1.00  0.00    -0.165 F 
ENDBRANCH   1  15
TORSDOF 2
ENDMDL
MODEL 2
REMARK VINA RESULT:      -6.3      1.341      2.376
REMARK  2 active torsions:
REMARK  status: ('A' for Active; 'I' for Inactive)
REMARK    1  A    between atoms: C_2  and  C_5 
REMARK    2  A    between atoms: C_8  and  C_11 
ROOT
HETATM    1  C   UNL     1     -45.010 -47.686   8.984  1.00  0.00     0.133 C 
HETATM    2  C   UNL     1     -43.911 -47.740   8.141  1.00  0.00     0.123 C 
HETATM    3  N   UNL     1     -42.851 -47.294   8.885  1.00  0.00    -0.353 N 
HETATM    4  C   UNL     1     -43.303 -47.114  10.176  1.00  0.00     0.087 C 
HETATM    5  N   UNL     1     -44.615 -47.189  10.218  1.00  0.00    -0.341 N 
ATOM      6  HN  UNL     1     -45.219 -46.934  10.999  1.00  0.00     0.167 HD
HETATM    7  H   UNL     1     -41.869 -47.365   8.643  1.00  0.00     0.166 HD
ENDROOT
BRANCH   4   8
HETATM    8  C   UNL     1     -42.392 -47.180  11.370  1.00  0.00     0.081 C 
HETATM    9  C   UNL     1     -40.966 -47.662  11.088  1.00  0.00     0.015 C 
HETATM   10  C   UNL     1     -40.840 -49.183  10.987  1.00  0.00     0.031 C 
HETATM   11  C   UNL     1     -41.635 -49.931  12.055  1.00  0.00     0.269 C 
HETATM   12  N   UNL     1     -43.021 -49.466  12.139  1.00  0.00     0.084 N 
HETATM   13  C   UNL     1     -43.050 -48.029  12.474  1.00  0.00     0.281 C 
HETATM   14  H   UNL     1     -43.500 -49.980  12.882  1.00  0.00     0.315 HD
ENDBRANCH   4   8
BRANCH   1  15
HETATM   15  C   UNL     1     -46.402 -48.197   8.757  1.00  0.00     0.433 C 
HETATM   16  F   UNL     1     -46.737 -49.163   9.660  1.00  0.00    -0.165 F 
HETATM   17  F   UNL     1     -46.565 -48.748   7.528  1.00  0.00    -0.165 F 
HETATM   18  F   UNL     1     -47.339 -47.217   8.885  1.00  0.00    -0.165 F 
ENDBRANCH   1  15
TORSDOF 2
ENDMDL
MODEL 3
REMARK VINA RESULT:      -5.9      1.432      2.145
REMARK  2 active torsions:
REMARK  status: ('A' for Active; 'I' for Inactive)
REMARK    1  A    between atoms: C_2  and  C_5 
REMARK    2  A    between atoms: C_8  and  C_11 
ROOT
HETATM    1  C   UNL     1     -44.840 -47.512   9.239  1.00  0.00     0.133 C 
HETATM    2  C   UNL     1     -44.003 -46.687   8.505  1.00  0.00     0.123 C 
HETATM    3  N   UNL     1     -42.801 -46.698   9.162  1.00  0.00    -0.353 N 
HETATM    4  C   UNL     1     -42.901 -47.621  10.183  1.00  0.00     0.087 C 
HETATM    5  N   UNL     1     -44.151 -47.996  10.342  1.00  0.00    -0.341 N 
ATOM      6  HN  UNL     1     -44.536 -48.534  11.119  1.00  0.00     0.167 HD
HETATM    7  H   UNL     1     -41.917 -46.347   8.813  1.00  0.00     0.166 HD
ENDROOT
BRANCH   4   8
HETATM    8  C   UNL     1     -41.704 -48.325  10.759  1.00  0.00     0.081 C 
HETATM    9  C   UNL     1     -41.999 -49.305  11.900  1.00  0.00     0.015 C 
HETATM   10  C   UNL     1     -42.176 -48.629  13.259  1.00  0.00     0.031 C 
HETATM   11  C   UNL     1     -41.154 -47.527  13.528  1.00  0.00     0.269 C 
HETATM   12  N   UNL     1     -41.057 -46.580  12.415  1.00  0.00     0.084 N 
HETATM   13  C   UNL     1     -40.651 -47.287  11.186  1.00  0.00     0.281 C 
HETATM   14  H   UNL     1     -40.345 -45.879  12.635  1.00  0.00     0.315 HD
ENDBRANCH   4   8
BRANCH   1  15
HETATM   15  C   UNL     1     -46.222 -47.994   8.908  1.00  0.00     0.433 C 
HETATM   16  F   UNL     1     -46.274 -48.561   7.669  1.00  0.00    -0.165 F 
HETATM   17  F   UNL     1     -47.141 -46.995   8.912  1.00  0.00    -0.165 F 
HETATM   18  F   UNL     1     -46.659 -48.946   9.779  1.00  0.00    -0.165 F 
ENDBRANCH   1  15
TORSDOF 2
ENDMDL
MODEL 4
REMARK VINA RESULT:      -5.6      4.829      5.730
REMARK  2 active torsions:
REMARK  status: ('A' for Active; 'I' for Inactive)
REMARK    1  A    between atoms: C_2  and  C_5 
REMARK    2  A    between atoms: C_8  and  C_11 
ROOT
HETATM    1  C   UNL     1     -42.385 -52.631  12.520  1.00  0.00     0.133 C 
HETATM    2  C   UNL     1     -41.124 -52.706  11.948  1.00  0.00     0.123 C 
HETATM    3  N   UNL     1     -40.818 -51.429  11.557  1.00  0.00    -0.353 N 
HETATM    4  C   UNL     1     -41.826 -50.607  12.017  1.00  0.00     0.087 C 
HETATM    5  N   UNL     1     -42.840 -51.322  12.451  1.00  0.00    -0.341 N 
ATOM      6  HN  UNL     1     -43.773 -50.984  12.689  1.00  0.00     0.167 HD
HETATM    7  H   UNL     1     -39.911 -51.088  11.264  1.00  0.00     0.166 HD
ENDROOT
BRANCH   4   8
HETATM    8  C   UNL     1     -41.617 -49.144  12.293  1.00  0.00     0.081 C 
HETATM    9  C   UNL     1     -42.892 -48.323  12.510  1.00  0.00     0.015 C 
HETATM   10  C   UNL     1     -43.589 -47.915  11.212  1.00  0.00     0.031 C 
HETATM   11  C   UNL     1     -42.624 -47.438  10.129  1.00  0.00     0.269 C 
HETATM   12  N   UNL     1     -41.515 -48.373   9.925  1.00  0.00     0.084 N 
HETATM   13  C   UNL     1     -40.751 -48.528  11.178  1.00  0.00     0.281 C 
HETATM   14  H   UNL     1     -40.889 -47.996   9.210  1.00  0.00     0.315 HD
ENDBRANCH   4   8
BRANCH   1  15
HETATM   15  C   UNL     1     -43.153 -53.689  13.256  1.00  0.00     0.433 C 
HETATM   16  F   UNL     1     -44.060 -54.307  12.446  1.00  0.00    -0.165 F 
HETATM   17  F   UNL     1     -43.852 -53.194  14.308  1.00  0.00    -0.165 F 
HETATM   18  F   UNL     1     -42.345 -54.673  13.738  1.00  0.00    -0.165 F 
ENDBRANCH   1  15
TORSDOF 2
ENDMDL
MODEL 5
REMARK VINA RESULT:      -5.5      7.208      8.494
REMARK  2 active torsions:
REMARK  status: ('A' for Active; 'I' for Inactive)
REMARK    1  A    between atoms: C_2  and  C_5 
REMARK    2  A    between atoms: C_8  and  C_11 
ROOT
HETATM    1  C   UNL     1     -42.141 -53.070  12.930  1.00  0.00     0.133 C 
HETATM    2  C   UNL     1     -42.357 -51.702  12.987  1.00  0.00     0.123 C 
HETATM    3  N   UNL     1     -43.682 -51.523  12.687  1.00  0.00    -0.353 N 
HETATM    4  C   UNL     1     -44.253 -52.776  12.593  1.00  0.00     0.087 C 
HETATM    5  N   UNL     1     -43.323 -53.705  12.577  1.00  0.00    -0.341 N 
ATOM      6  HN  UNL     1     -43.446 -54.692  12.351  1.00  0.00     0.167 HD
HETATM    7  H   UNL     1     -44.220 -50.673  12.807  1.00  0.00     0.166 HD
ENDROOT
BRANCH   4   8
HETATM    8  C   UNL     1     -45.717 -53.019  12.833  1.00  0.00     0.081 C 
HETATM    9  C   UNL     1     -46.547 -51.777  13.173  1.00  0.00     0.015 C 
HETATM   10  C   UNL     1     -46.442 -51.350  14.637  1.00  0.00     0.031 C 
HETATM   11  C   UNL     1     -46.498 -52.520  15.617  1.00  0.00     0.269 C 
HETATM   12  N   UNL     1     -45.565 -53.590  15.254  1.00  0.00     0.084 N 
HETATM   13  C   UNL     1     -45.890 -54.106  13.910  1.00  0.00     0.281 C 
HETATM   14  H   UNL     1     -45.660 -54.356  15.925  1.00  0.00     0.315 HD
ENDBRANCH   4   8
BRANCH   1  15
HETATM   15  C   UNL     1     -40.919 -53.851  13.317  1.00  0.00     0.433 C 
HETATM   16  F   UNL     1     -41.059 -54.428  14.546  1.00  0.00    -0.165 F 
HETATM   17  F   UNL     1     -39.803 -53.084  13.378  1.00  0.00    -0.165 F 
HETATM   18  F   UNL     1     -40.661 -54.869  12.449  1.00  0.00    -0.165 F 
ENDBRANCH   1  15
TORSDOF 2
ENDMDL
MODEL 6
REMARK VINA RESULT:      -5.5      5.004      5.594
REMARK  2 active torsions:
REMARK  status: ('A' for Active; 'I' for Inactive)
REMARK    1  A    between atoms: C_2  and  C_5 
REMARK    2  A    between atoms: C_8  and  C_11 
ROOT
HETATM    1  C   UNL     1     -45.001 -52.261  12.878  1.00  0.00     0.133 C 
HETATM    2  C   UNL     1     -44.434 -53.472  12.513  1.00  0.00     0.123 C 
HETATM    3  N   UNL     1     -43.099 -53.221  12.343  1.00  0.00    -0.353 N 
HETATM    4  C   UNL     1     -42.874 -51.917  12.736  1.00  0.00     0.087 C 
HETATM    5  N   UNL     1     -44.015 -51.285  12.904  1.00  0.00    -0.341 N 
ATOM      6  HN  UNL     1     -44.147 -50.281  13.029  1.00  0.00     0.167 HD
HETATM    7  H   UNL     1     -42.361 -53.908  12.247  1.00  0.00     0.166 HD
ENDROOT
BRANCH   4   8
HETATM    8  C   UNL     1     -41.537 -51.437  13.226  1.00  0.00     0.081 C 
HETATM    9  C   UNL     1     -41.480 -49.969  13.664  1.00  0.00     0.015 C 
HETATM   10  C   UNL     1     -41.336 -48.987  12.502  1.00  0.00     0.031 C 
HETATM   11  C   UNL     1     -40.335 -49.442  11.443  1.00  0.00     0.269 C 
HETATM   12  N   UNL     1     -40.573 -50.821  11.012  1.00  0.00     0.084 N 
HETATM   13  C   UNL     1     -40.461 -51.735  12.166  1.00  0.00     0.281 C 
HETATM   14  H   UNL     1     -39.864 -51.083  10.323  1.00  0.00     0.315 HD
ENDBRANCH   4   8
BRANCH   1  15
HETATM   15  C   UNL     1     -46.399 -51.971  13.338  1.00  0.00     0.433 C 
HETATM   16  F   UNL     1     -46.425 -50.983  14.278  1.00  0.00    -0.165 F 
HETATM   17  F   UNL     1     -47.001 -53.050  13.899  1.00  0.00    -0.165 F 
HETATM   18  F   UNL     1     -47.200 -51.547  12.321  1.00  0.00    -0.165 F 
ENDBRANCH   1  15
TORSDOF 2
ENDMDL
MODEL 7
REMARK VINA RESULT:      -5.4      1.808      2.803
REMARK  2 active torsions:
REMARK  status: ('A' for Active; 'I' for Inactive)
REMARK    1  A    between atoms: C_2  and  C_5 
REMARK    2  A    between atoms: C_8  and  C_11 
ROOT
HETATM    1  C   UNL     1     -43.023 -47.164   9.479  1.00  0.00     0.133 C 
HETATM    2  C   UNL     1     -42.155 -48.067  10.072  1.00  0.00     0.123 C 
HETATM    3  N   UNL     1     -41.075 -47.331  10.482  1.00  0.00    -0.353 N 
HETATM    4  C   UNL     1     -41.374 -46.003  10.252  1.00  0.00     0.087 C 
HETATM    5  N   UNL     1     -42.456 -45.897   9.513  1.00  0.00    -0.341 N 
ATOM      6  HN  UNL     1     -42.808 -45.055   9.057  1.00  0.00     0.167 HD
HETATM    7  H   UNL     1     -40.336 -47.636  11.103  1.00  0.00     0.166 HD
ENDROOT
BRANCH   4   8
HETATM    8  C   UNL     1     -40.746 -44.884  11.034  1.00  0.00     0.081 C 
HETATM    9  C   UNL     1     -39.990 -45.304  12.299  1.00  0.00     0.015 C 
HETATM   10  C   UNL     1     -40.900 -45.551  13.503  1.00  0.00     0.031 C 
HETATM   11  C   UNL     1     -42.000 -44.504  13.659  1.00  0.00     0.269 C 
HETATM   12  N   UNL     1     -42.735 -44.285  12.411  1.00  0.00     0.084 N 
HETATM   13  C   UNL     1     -41.811 -43.820  11.358  1.00  0.00     0.281 C 
HETATM   14  H   UNL     1     -43.441 -43.561  12.563  1.00  0.00     0.315 HD
ENDBRANCH   4   8
BRANCH   1  15
HETATM   15  C   UNL     1     -44.425 -47.380   8.990  1.00  0.00     0.433 C 
HETATM   16  F   UNL     1     -45.017 -46.207   8.626  1.00  0.00    -0.165 F 
HETATM   17  F   UNL     1     -45.227 -47.940   9.930  1.00  0.00    -0.165 F 
HETATM   18  F   UNL     1     -44.470 -48.184   7.892  1.00  0.00    -0.165 F 
ENDBRANCH   1  15
TORSDOF 2
ENDMDL
MODEL 8
REMARK VINA RESULT:      -5.4      2.650      3.500
REMARK  2 active torsions:
REMARK  status: ('A' for Active; 'I' for Inactive)
REMARK    1  A    between atoms: C_2  and  C_5 
REMARK    2  A    between atoms: C_8  and  C_11 
ROOT
HETATM    1  C   UNL     1     -43.055 -47.424   9.972  1.00  0.00     0.133 C 
HETATM    2  C   UNL     1     -42.327 -46.399  10.556  1.00  0.00     0.123 C 
HETATM    3  N   UNL     1     -41.865 -46.903  11.743  1.00  0.00    -0.353 N 
HETATM    4  C   UNL     1     -42.206 -48.239  11.782  1.00  0.00     0.087 C 
HETATM    5  N   UNL     1     -43.049 -48.526  10.815  1.00  0.00    -0.341 N 
ATOM      6  HN  UNL     1     -43.588 -49.385  10.706  1.00  0.00     0.167 HD
HETATM    7  H   UNL     1     -41.158 -46.490  12.341  1.00  0.00     0.166 HD
ENDROOT
BRANCH   4   8
HETATM    8  C   UNL     1     -41.441 -49.248  12.593  1.00  0.00     0.081 C 
HETATM    9  C   UNL     1     -40.205 -48.710  13.322  1.00  0.00     0.015 C 
HETATM   10  C   UNL     1     -38.971 -48.586  12.428  1.00  0.00     0.031 C 
HETATM   11  C   UNL     1     -38.772 -49.780  11.497  1.00  0.00     0.269 C 
HETATM   12  N   UNL     1     -39.992 -50.116  10.760  1.00  0.00     0.084 N 
HETATM   13  C   UNL     1     -41.074 -50.452  11.706  1.00  0.00     0.281 C 
HETATM   14  H   UNL     1     -39.812 -50.933  10.172  1.00  0.00     0.315 HD
ENDBRANCH   4   8
BRANCH   1  15
HETATM   15  C   UNL     1     -43.658 -47.492   8.600  1.00  0.00     0.433 C 
HETATM   16  F   UNL     1     -43.726 -46.260   8.018  1.00  0.00    -0.165 F 
HETATM   17  F   UNL     1     -44.923 -47.983   8.606  1.00  0.00    -0.165 F 
HETATM   18  F   UNL     1     -42.929 -48.270   7.753  1.00  0.00    -0.165 F 
ENDBRANCH   1  15
TORSDOF 2
ENDMDL
MODEL 9
REMARK VINA RESULT:      -5.4      6.184      7.491
REMARK  2 active torsions:
REMARK  status: ('A' for Active; 'I' for Inactive)
REMARK    1  A    between atoms: C_2  and  C_5 
REMARK    2  A    between atoms: C_8  and  C_11 
ROOT
HETATM    1  C   UNL     1     -42.041 -51.293  12.305  1.00  0.00     0.133 C 
HETATM    2  C   UNL     1     -41.602 -52.602  12.185  1.00  0.00     0.123 C 
HETATM    3  N   UNL     1     -42.671 -53.386  12.530  1.00  0.00    -0.353 N 
HETATM    4  C   UNL     1     -43.751 -52.546  12.715  1.00  0.00     0.087 C 
HETATM    5  N   UNL     1     -43.358 -51.292  12.741  1.00  0.00    -0.341 N 
ATOM      6  HN  UNL     1     -43.910 -50.482  13.024  1.00  0.00     0.167 HD
HETATM    7  H   UNL     1     -42.760 -54.385  12.389  1.00  0.00     0.166 HD
ENDROOT
BRANCH   4   8
HETATM    8  C   UNL     1     -45.173 -53.006  12.550  1.00  0.00     0.081 C 
HETATM    9  C   UNL     1     -46.240 -51.913  12.668  1.00  0.00     0.015 C 
HETATM   10  C   UNL     1     -46.590 -51.549  14.111  1.00  0.00     0.031 C 
HETATM   11  C   UNL     1     -46.727 -52.763  15.027  1.00  0.00     0.269 C 
HETATM   12  N   UNL     1     -45.582 -53.670  14.917  1.00  0.00     0.084 N 
HETATM   13  C   UNL     1     -45.458 -54.159  13.530  1.00  0.00     0.281 C 
HETATM   14  H   UNL     1     -45.734 -54.475  15.530  1.00  0.00     0.315 HD
ENDBRANCH   4   8
BRANCH   1  15
HETATM   15  C   UNL     1     -41.347 -50.023  11.909  1.00  0.00     0.433 C 
HETATM   16  F   UNL     1     -42.227 -49.098  11.428  1.00  0.00    -0.165 F 
HETATM   17  F   UNL     1     -40.420 -50.212  10.938  1.00  0.00    -0.165 F 
HETATM   18  F   UNL     1     -40.714 -49.431  12.960  1.00  0.00    -0.165 F 
ENDBRANCH   1  15
TORSDOF 2
ENDMDL
