MODEL 1
REMARK VINA RESULT:      -5.7      0.000      0.000
REMARK  5 active torsions:
REMARK  status: ('A' for Active; 'I' for Inactive)
REMARK    1  A    between atoms: C_2  and  C_4 
REMARK    2  A    between atoms: N_9  and  C_10 
REMARK    3  A    between atoms: C_10  and  C_11 
REMARK       I    between atoms: C_11  and  N_13 
REMARK    4  A    between atoms: N_13  and  C_14 
REMARK    5  A    between atoms: C_14  and  C_15 
ROOT
HETATM    1  C   UNL     1     -43.070 -52.760  14.630  1.00  0.00     0.232 C 
ENDROOT
BRANCH   1   2
HETATM    2  N   UNL     1     -44.203 -53.578  14.243  1.00  0.00    -0.336 N 
HETATM    3  C   UNL     1     -45.460 -53.167  13.846  1.00  0.00     0.087 A 
HETATM    4  N   UNL     1     -46.226 -54.217  13.605  1.00  0.00    -0.354 N 
HETATM    5  C   UNL     1     -45.475 -55.319  13.903  1.00  0.00     0.106 A 
ATOM      6  HN  UNL     1     -47.187 -54.207  13.264  1.00  0.00     0.166 HD
HETATM    7  C   UNL     1     -44.221 -54.948  14.314  1.00  0.00     0.110 A 
BRANCH   3   8
HETATM    8  C   UNL     1     -45.916 -51.738  13.708  1.00  0.00     0.045 C 
HETATM    9  C   UNL     1     -46.638 -51.538  12.376  1.00  0.00     0.017 C 
HETATM   10  C   UNL     1     -46.832 -51.339  14.871  1.00  0.00     0.017 C 
ENDBRANCH   3   8
ENDBRANCH   1   2
BRANCH   1  11
HETATM   11  C   UNL     1     -42.044 -52.602  13.523  1.00  0.00     0.235 C 
HETATM   12  O   UNL     1     -41.395 -53.557  13.094  1.00  0.00    -0.272 OA
HETATM   13  N   UNL     1     -41.865 -51.309  13.080  1.00  0.00    -0.357 N 
HETATM   14  H   UNL     1     -42.607 -50.629  13.222  1.00  0.00     0.162 HD
BRANCH  13  15
HETATM   15  C   UNL     1     -40.948 -51.007  11.991  1.00  0.00     0.154 C 
BRANCH  15  16
HETATM   16  C   UNL     1     -39.593 -50.504  12.490  1.00  0.00     0.139 C 
HETATM   17  C   UNL     1     -38.887 -49.516  11.563  1.00  0.00     0.035 C 
HETATM   18  C   UNL     1     -37.450 -49.999  11.509  1.00  0.00     0.029 C 
HETATM   19  C   UNL     1     -37.366 -51.024  12.615  1.00  0.00     0.168 C 
HETATM   20  O   UNL     1     -38.676 -51.601  12.673  1.00  0.00    -0.384 OA
ENDBRANCH  15  16
ENDBRANCH  13  15
ENDBRANCH   1  11
TORSDOF 5
ENDMDL
MODEL 2
REMARK VINA RESULT:      -5.5      2.110      7.185
REMARK  5 active torsions:
REMARK  status: ('A' for Active; 'I' for Inactive)
REMARK    1  A    between atoms: C_2  and  C_4 
REMARK    2  A    between atoms: N_9  and  C_10 
REMARK    3  A    between atoms: C_10  and  C_11 
REMARK       I    between atoms: C_11  and  N_13 
REMARK    4  A    between atoms: N_13  and  C_14 
REMARK    5  A    between atoms: C_14  and  C_15 
ROOT
HETATM    1  C   UNL     1     -41.273 -50.748  13.141  1.00  0.00     0.232 C 
ENDROOT
BRANCH   1   2
HETATM    2  N   UNL     1     -40.950 -49.675  12.220  1.00  0.00    -0.336 N 
HETATM    3  C   UNL     1     -39.704 -49.203  11.857  1.00  0.00     0.087 A 
HETATM    4  N   UNL     1     -39.828 -48.192  11.015  1.00  0.00    -0.354 N 
HETATM    5  C   UNL     1     -41.169 -47.969  10.875  1.00  0.00     0.106 A 
ATOM      6  HN  UNL     1     -39.073 -47.679  10.561  1.00  0.00     0.166 HD
HETATM    7  C   UNL     1     -41.885 -48.867  11.623  1.00  0.00     0.110 A 
BRANCH   3   8
HETATM    8  C   UNL     1     -38.384 -49.742  12.343  1.00  0.00     0.045 C 
HETATM    9  C   UNL     1     -37.407 -49.885  11.176  1.00  0.00     0.017 C 
HETATM   10  C   UNL     1     -37.785 -48.835  13.424  1.00  0.00     0.017 C 
ENDBRANCH   3   8
ENDBRANCH   1   2
BRANCH   1  11
HETATM   11  C   UNL     1     -42.047 -51.879  12.488  1.00  0.00     0.235 C 
HETATM   12  O   UNL     1     -41.528 -52.636  11.669  1.00  0.00    -0.272 OA
HETATM   13  N   UNL     1     -43.376 -51.952  12.847  1.00  0.00    -0.357 N 
HETATM   14  H   UNL     1     -43.676 -51.534  13.723  1.00  0.00     0.162 HD
BRANCH  13  15
HETATM   15  C   UNL     1     -44.235 -53.011  12.338  1.00  0.00     0.154 C 
BRANCH  15  16
HETATM   16  C   UNL     1     -45.658 -52.925  12.891  1.00  0.00     0.139 C 
HETATM   17  C   UNL     1     -46.195 -51.508  13.083  1.00  0.00     0.035 C 
HETATM   18  C   UNL     1     -46.841 -51.524  14.455  1.00  0.00     0.029 C 
HETATM   19  C   UNL     1     -46.893 -52.989  14.818  1.00  0.00     0.168 C 
HETATM   20  O   UNL     1     -45.744 -53.560  14.182  1.00  0.00    -0.384 OA
ENDBRANCH  15  16
ENDBRANCH  13  15
ENDBRANCH   1  11
TORSDOF 5
ENDMDL
MODEL 3
REMARK VINA RESULT:      -5.2      4.041      7.277
REMARK  5 active torsions:
REMARK  status: ('A' for Active; 'I' for Inactive)
REMARK    1  A    between atoms: C_2  and  C_4 
REMARK    2  A    between atoms: N_9  and  C_10 
REMARK    3  A    between atoms: C_10  and  C_11 
REMARK       I    between atoms: C_11  and  N_13 
REMARK    4  A    between atoms: N_13  and  C_14 
REMARK    5  A    between atoms: C_14  and  C_15 
ROOT
HETATM    1  C   UNL     1     -41.629 -48.558  10.821  1.00  0.00     0.232 C 
ENDROOT
BRANCH   1   2
HETATM    2  N   UNL     1     -42.130 -47.202  10.711  1.00  0.00    -0.336 N 
HETATM    3  C   UNL     1     -43.211 -46.744   9.982  1.00  0.00     0.087 A 
HETATM    4  N   UNL     1     -43.326 -45.434  10.115  1.00  0.00    -0.354 N 
HETATM    5  C   UNL     1     -42.277 -45.030  10.892  1.00  0.00     0.106 A 
ATOM      6  HN  UNL     1     -44.054 -44.841   9.716  1.00  0.00     0.166 HD
HETATM    7  C   UNL     1     -41.513 -46.107  11.263  1.00  0.00     0.110 A 
BRANCH   3   8
HETATM    8  C   UNL     1     -44.130 -47.594   9.146  1.00  0.00     0.045 C 
HETATM    9  C   UNL     1     -45.514 -46.951   9.059  1.00  0.00     0.017 C 
HETATM   10  C   UNL     1     -43.557 -47.804   7.739  1.00  0.00     0.017 C 
ENDBRANCH   3   8
ENDBRANCH   1   2
BRANCH   1  11
HETATM   11  C   UNL     1     -41.973 -49.213  12.147  1.00  0.00     0.235 C 
HETATM   12  O   UNL     1     -41.130 -49.386  13.027  1.00  0.00    -0.272 OA
HETATM   13  N   UNL     1     -43.279 -49.638  12.260  1.00  0.00    -0.357 N 
HETATM   14  H   UNL     1     -43.991 -49.214  11.673  1.00  0.00     0.162 HD
BRANCH  13  15
HETATM   15  C   UNL     1     -43.769 -50.244  13.489  1.00  0.00     0.154 C 
BRANCH  15  16
HETATM   16  C   UNL     1     -44.572 -51.521  13.233  1.00  0.00     0.139 C 
HETATM   17  C   UNL     1     -46.088 -51.363  13.328  1.00  0.00     0.035 C 
HETATM   18  C   UNL     1     -46.548 -52.552  14.149  1.00  0.00     0.029 C 
HETATM   19  C   UNL     1     -45.333 -53.446  14.212  1.00  0.00     0.168 C 
HETATM   20  O   UNL     1     -44.220 -52.545  14.184  1.00  0.00    -0.384 OA
ENDBRANCH  15  16
ENDBRANCH  13  15
ENDBRANCH   1  11
TORSDOF 5
ENDMDL
MODEL 4
REMARK VINA RESULT:      -5.2      2.630      3.143
REMARK  5 active torsions:
REMARK  status: ('A' for Active; 'I' for Inactive)
REMARK    1  A    between atoms: C_2  and  C_4 
REMARK    2  A    between atoms: N_9  and  C_10 
REMARK    3  A    between atoms: C_10  and  C_11 
REMARK       I    between atoms: C_11  and  N_13 
REMARK    4  A    between atoms: N_13  and  C_14 
REMARK    5  A    between atoms: C_14  and  C_15 
ROOT
HETATM    1  C   UNL     1     -42.951 -51.932  14.124  1.00  0.00     0.232 C 
ENDROOT
BRANCH   1   2
HETATM    2  N   UNL     1     -43.913 -52.997  13.916  1.00  0.00    -0.336 N 
HETATM    3  C   UNL     1     -45.258 -52.891  13.623  1.00  0.00     0.087 A 
HETATM    4  N   UNL     1     -45.801 -54.092  13.538  1.00  0.00    -0.354 N 
HETATM    5  C   UNL     1     -44.810 -54.986  13.835  1.00  0.00     0.106 A 
ATOM      6  HN  UNL     1     -46.769 -54.311  13.299  1.00  0.00     0.166 HD
HETATM    7  C   UNL     1     -43.633 -54.329  14.086  1.00  0.00     0.110 A 
BRANCH   3   8
HETATM    8  C   UNL     1     -46.017 -51.604  13.431  1.00  0.00     0.045 C 
HETATM    9  C   UNL     1     -46.839 -51.659  12.143  1.00  0.00     0.017 C 
HETATM   10  C   UNL     1     -46.933 -51.323  14.629  1.00  0.00     0.017 C 
ENDBRANCH   3   8
ENDBRANCH   1   2
BRANCH   1  11
HETATM   11  C   UNL     1     -42.352 -51.410  12.831  1.00  0.00     0.235 C 
HETATM   12  O   UNL     1     -42.009 -52.164  11.920  1.00  0.00    -0.272 OA
HETATM   13  N   UNL     1     -42.179 -50.043  12.784  1.00  0.00    -0.357 N 
HETATM   14  H   UNL     1     -42.739 -49.452  13.390  1.00  0.00     0.162 HD
BRANCH  13  15
HETATM   15  C   UNL     1     -41.658 -49.392  11.591  1.00  0.00     0.154 C 
BRANCH  15  16
HETATM   16  C   UNL     1     -42.081 -47.925  11.494  1.00  0.00     0.139 C 
HETATM   17  C   UNL     1     -43.380 -47.675  10.731  1.00  0.00     0.035 C 
HETATM   18  C   UNL     1     -43.071 -46.503   9.819  1.00  0.00     0.029 C 
HETATM   19  C   UNL     1     -41.745 -45.985  10.324  1.00  0.00     0.168 C 
HETATM   20  O   UNL     1     -41.071 -47.146  10.823  1.00  0.00    -0.384 OA
ENDBRANCH  15  16
ENDBRANCH  13  15
ENDBRANCH   1  11
TORSDOF 5
ENDMDL
MODEL 5
REMARK VINA RESULT:      -5.0      2.196      6.547
REMARK  5 active torsions:
REMARK  status: ('A' for Active; 'I' for Inactive)
REMARK    1  A    between atoms: C_2  and  C_4 
REMARK    2  A    between atoms: N_9  and  C_10 
REMARK    3  A    between atoms: C_10  and  C_11 
REMARK       I    between atoms: C_11  and  N_13 
REMARK    4  A    between atoms: N_13  and  C_14 
REMARK    5  A    between atoms: C_14  and  C_15 
ROOT
HETATM    1  C   UNL     1     -41.229 -51.068  13.646  1.00  0.00     0.232 C 
ENDROOT
BRANCH   1   2
HETATM    2  N   UNL     1     -40.344 -50.401  12.711  1.00  0.00    -0.336 N 
HETATM    3  C   UNL     1     -40.651 -49.415  11.795  1.00  0.00     0.087 A 
HETATM    4  N   UNL     1     -39.574 -49.085  11.104  1.00  0.00    -0.354 N 
HETATM    5  C   UNL     1     -38.570 -49.904  11.538  1.00  0.00     0.106 A 
ATOM      6  HN  UNL     1     -39.505 -48.361  10.387  1.00  0.00     0.166 HD
HETATM    7  C   UNL     1     -39.027 -50.739  12.525  1.00  0.00     0.110 A 
BRANCH   3   8
HETATM    8  C   UNL     1     -42.010 -48.798  11.590  1.00  0.00     0.045 C 
HETATM    9  C   UNL     1     -42.324 -47.819  12.721  1.00  0.00     0.017 C 
HETATM   10  C   UNL     1     -42.090 -48.083  10.236  1.00  0.00     0.017 C 
ENDBRANCH   3   8
ENDBRANCH   1   2
BRANCH   1  11
HETATM   11  C   UNL     1     -41.997 -52.218  13.019  1.00  0.00     0.235 C 
HETATM   12  O   UNL     1     -41.440 -53.257  12.663  1.00  0.00    -0.272 OA
HETATM   13  N   UNL     1     -43.343 -51.984  12.838  1.00  0.00    -0.357 N 
HETATM   14  H   UNL     1     -43.804 -51.280  13.407  1.00  0.00     0.162 HD
BRANCH  13  15
HETATM   15  C   UNL     1     -44.218 -53.010  12.291  1.00  0.00     0.154 C 
BRANCH  15  16
HETATM   16  C   UNL     1     -45.637 -52.931  12.855  1.00  0.00     0.139 C 
HETATM   17  C   UNL     1     -46.186 -51.517  13.033  1.00  0.00     0.035 C 
HETATM   18  C   UNL     1     -46.820 -51.520  14.410  1.00  0.00     0.029 C 
HETATM   19  C   UNL     1     -46.854 -52.981  14.795  1.00  0.00     0.168 C 
HETATM   20  O   UNL     1     -45.705 -53.549  14.156  1.00  0.00    -0.384 OA
ENDBRANCH  15  16
ENDBRANCH  13  15
ENDBRANCH   1  11
TORSDOF 5
ENDMDL
MODEL 6
REMARK VINA RESULT:      -5.0      1.857      2.721
REMARK  5 active torsions:
REMARK  status: ('A' for Active; 'I' for Inactive)
REMARK    1  A    between atoms: C_2  and  C_4 
REMARK    2  A    between atoms: N_9  and  C_10 
REMARK    3  A    between atoms: C_10  and  C_11 
REMARK       I    between atoms: C_11  and  N_13 
REMARK    4  A    between atoms: N_13  and  C_14 
REMARK    5  A    between atoms: C_14  and  C_15 
ROOT
HETATM    1  C   UNL     1     -41.517 -53.225  12.260  1.00  0.00     0.232 C 
ENDROOT
BRANCH   1   2
HETATM    2  N   UNL     1     -41.842 -53.810  13.547  1.00  0.00    -0.336 N 
HETATM    3  C   UNL     1     -43.080 -54.193  14.025  1.00  0.00     0.087 A 
HETATM    4  N   UNL     1     -42.967 -54.656  15.258  1.00  0.00    -0.354 N 
HETATM    5  C   UNL     1     -41.652 -54.519  15.603  1.00  0.00     0.106 A 
ATOM      6  HN  UNL     1     -43.714 -55.039  15.837  1.00  0.00     0.166 HD
HETATM    7  C   UNL     1     -40.937 -53.983  14.563  1.00  0.00     0.110 A 
BRANCH   3   8
HETATM    8  C   UNL     1     -44.381 -54.099  13.273  1.00  0.00     0.045 C 
HETATM    9  C   UNL     1     -45.351 -55.179  13.753  1.00  0.00     0.017 C 
HETATM   10  C   UNL     1     -45.013 -52.712  13.438  1.00  0.00     0.017 C 
ENDBRANCH   3   8
ENDBRANCH   1   2
BRANCH   1  11
HETATM   11  C   UNL     1     -41.427 -51.710  12.301  1.00  0.00     0.235 C 
HETATM   12  O   UNL     1     -42.005 -51.046  13.162  1.00  0.00    -0.272 OA
HETATM   13  N   UNL     1     -40.697 -51.146  11.277  1.00  0.00    -0.357 N 
HETATM   14  H   UNL     1     -40.004 -51.710  10.794  1.00  0.00     0.162 HD
BRANCH  13  15
HETATM   15  C   UNL     1     -40.484 -49.708  11.208  1.00  0.00     0.154 C 
BRANCH  15  16
HETATM   16  C   UNL     1     -39.174 -49.278  11.869  1.00  0.00     0.139 C 
HETATM   17  C   UNL     1     -38.054 -50.317  11.824  1.00  0.00     0.035 C 
HETATM   18  C   UNL     1     -37.480 -50.324  13.228  1.00  0.00     0.029 C 
HETATM   19  C   UNL     1     -38.094 -49.109  13.882  1.00  0.00     0.168 C 
HETATM   20  O   UNL     1     -39.379 -48.977  13.264  1.00  0.00    -0.384 OA
ENDBRANCH  15  16
ENDBRANCH  13  15
ENDBRANCH   1  11
TORSDOF 5
ENDMDL
MODEL 7
REMARK VINA RESULT:      -4.9      2.777      6.479
REMARK  5 active torsions:
REMARK  status: ('A' for Active; 'I' for Inactive)
REMARK    1  A    between atoms: C_2  and  C_4 
REMARK    2  A    between atoms: N_9  and  C_10 
REMARK    3  A    between atoms: C_10  and  C_11 
REMARK       I    between atoms: C_11  and  N_13 
REMARK    4  A    between atoms: N_13  and  C_14 
REMARK    5  A    between atoms: C_14  and  C_15 
ROOT
HETATM    1  C   UNL     1     -41.866 -53.647  15.892  1.00  0.00     0.232 C 
ENDROOT
BRANCH   1   2
HETATM    2  N   UNL     1     -40.575 -54.063  15.380  1.00  0.00    -0.336 N 
HETATM    3  C   UNL     1     -39.859 -53.530  14.326  1.00  0.00     0.087 A 
HETATM    4  N   UNL     1     -38.738 -54.207  14.150  1.00  0.00    -0.354 N 
HETATM    5  C   UNL     1     -38.753 -55.224  15.063  1.00  0.00     0.106 A 
ATOM      6  HN  UNL     1     -38.006 -54.010  13.467  1.00  0.00     0.166 HD
HETATM    7  C   UNL     1     -39.889 -55.163  15.829  1.00  0.00     0.110 A 
BRANCH   3   8
HETATM    8  C   UNL     1     -40.280 -52.356  13.481  1.00  0.00     0.045 C 
HETATM    9  C   UNL     1     -39.087 -51.438  13.218  1.00  0.00     0.017 C 
HETATM   10  C   UNL     1     -40.889 -52.824  12.154  1.00  0.00     0.017 C 
ENDBRANCH   3   8
ENDBRANCH   1   2
BRANCH   1  11
HETATM   11  C   UNL     1     -43.024 -54.419  15.284  1.00  0.00     0.235 C 
HETATM   12  O   UNL     1     -43.357 -55.529  15.700  1.00  0.00    -0.272 OA
HETATM   13  N   UNL     1     -43.629 -53.803  14.210  1.00  0.00    -0.357 N 
HETATM   14  H   UNL     1     -43.542 -52.797  14.101  1.00  0.00     0.162 HD
BRANCH  13  15
HETATM   15  C   UNL     1     -44.781 -54.401  13.551  1.00  0.00     0.154 C 
BRANCH  15  16
HETATM   16  C   UNL     1     -46.075 -53.635  13.829  1.00  0.00     0.139 C 
HETATM   17  C   UNL     1     -46.128 -52.221  13.253  1.00  0.00     0.035 C 
HETATM   18  C   UNL     1     -46.677 -51.368  14.380  1.00  0.00     0.029 C 
HETATM   19  C   UNL     1     -47.169 -52.373  15.395  1.00  0.00     0.168 C 
HETATM   20  O   UNL     1     -46.292 -53.495  15.247  1.00  0.00    -0.384 OA
ENDBRANCH  15  16
ENDBRANCH  13  15
ENDBRANCH   1  11
TORSDOF 5
ENDMDL
MODEL 8
REMARK VINA RESULT:      -4.8      2.266      6.804
REMARK  5 active torsions:
REMARK  status: ('A' for Active; 'I' for Inactive)
REMARK    1  A    between atoms: C_2  and  C_4 
REMARK    2  A    between atoms: N_9  and  C_10 
REMARK    3  A    between atoms: C_10  and  C_11 
REMARK       I    between atoms: C_11  and  N_13 
REMARK    4  A    between atoms: N_13  and  C_14 
REMARK    5  A    between atoms: C_14  and  C_15 
ROOT
HETATM    1  C   UNL     1     -39.148 -50.900  14.116  1.00  0.00     0.232 C 
ENDROOT
BRANCH   1   2
HETATM    2  N   UNL     1     -38.590 -50.378  12.884  1.00  0.00    -0.336 N 
HETATM    3  C   UNL     1     -39.117 -49.417  12.044  1.00  0.00     0.087 A 
HETATM    4  N   UNL     1     -38.322 -49.236  11.004  1.00  0.00    -0.354 N 
HETATM    5  C   UNL     1     -37.297 -50.129  11.142  1.00  0.00     0.106 A 
ATOM      6  HN  UNL     1     -38.449 -48.564  10.248  1.00  0.00     0.166 HD
HETATM    7  C   UNL     1     -37.448 -50.859  12.293  1.00  0.00     0.110 A 
BRANCH   3   8
HETATM    8  C   UNL     1     -40.411 -48.676  12.259  1.00  0.00     0.045 C 
HETATM    9  C   UNL     1     -40.134 -47.256  12.751  1.00  0.00     0.017 C 
HETATM   10  C   UNL     1     -41.241 -48.635  10.970  1.00  0.00     0.017 C 
ENDBRANCH   3   8
ENDBRANCH   1   2
BRANCH   1  11
HETATM   11  C   UNL     1     -39.750 -52.284  13.957  1.00  0.00     0.235 C 
HETATM   12  O   UNL     1     -39.154 -53.300  14.314  1.00  0.00    -0.272 OA
HETATM   13  N   UNL     1     -40.982 -52.311  13.340  1.00  0.00    -0.357 N 
HETATM   14  H   UNL     1     -41.559 -51.475  13.348  1.00  0.00     0.162 HD
BRANCH  13  15
HETATM   15  C   UNL     1     -41.705 -53.561  13.157  1.00  0.00     0.154 C 
BRANCH  15  16
HETATM   16  C   UNL     1     -43.116 -53.512  13.745  1.00  0.00     0.139 C 
HETATM   17  C   UNL     1     -43.583 -54.802  14.418  1.00  0.00     0.035 C 
HETATM   18  C   UNL     1     -44.993 -55.016  13.903  1.00  0.00     0.029 C 
HETATM   19  C   UNL     1     -45.337 -53.711  13.224  1.00  0.00     0.168 C 
HETATM   20  O   UNL     1     -44.088 -53.227  12.719  1.00  0.00    -0.384 OA
ENDBRANCH  15  16
ENDBRANCH  13  15
ENDBRANCH   1  11
TORSDOF 5
ENDMDL
MODEL 9
REMARK VINA RESULT:      -4.8      3.074      4.636
REMARK  5 active torsions:
REMARK  status: ('A' for Active; 'I' for Inactive)
REMARK    1  A    between atoms: C_2  and  C_4 
REMARK    2  A    between atoms: N_9  and  C_10 
REMARK    3  A    between atoms: C_10  and  C_11 
REMARK       I    between atoms: C_11  and  N_13 
REMARK    4  A    between atoms: N_13  and  C_14 
REMARK    5  A    between atoms: C_14  and  C_15 
ROOT
HETATM    1  C   UNL     1     -43.599 -54.057  13.625  1.00  0.00     0.232 C 
ENDROOT
BRANCH   1   2
HETATM    2  N   UNL     1     -43.557 -52.631  13.363  1.00  0.00    -0.336 N 
HETATM    3  C   UNL     1     -44.615 -51.757  13.204  1.00  0.00     0.087 A 
HETATM    4  N   UNL     1     -44.165 -50.541  12.947  1.00  0.00    -0.354 N 
HETATM    5  C   UNL     1     -42.803 -50.638  12.883  1.00  0.00     0.106 A 
ATOM      6  HN  UNL     1     -44.724 -49.697  12.821  1.00  0.00     0.166 HD
HETATM    7  C   UNL     1     -42.403 -51.928  13.124  1.00  0.00     0.110 A 
BRANCH   3   8
HETATM    8  C   UNL     1     -46.074 -52.117  13.296  1.00  0.00     0.045 C 
HETATM    9  C   UNL     1     -46.725 -51.395  14.476  1.00  0.00     0.017 C 
HETATM   10  C   UNL     1     -46.809 -51.771  11.996  1.00  0.00     0.017 C 
ENDBRANCH   3   8
ENDBRANCH   1   2
BRANCH   1  11
HETATM   11  C   UNL     1     -43.368 -54.400  15.085  1.00  0.00     0.235 C 
HETATM   12  O   UNL     1     -43.984 -53.840  15.992  1.00  0.00    -0.272 OA
HETATM   13  N   UNL     1     -42.387 -55.342  15.310  1.00  0.00    -0.357 N 
HETATM   14  H   UNL     1     -42.137 -55.984  14.564  1.00  0.00     0.162 HD
BRANCH  13  15
HETATM   15  C   UNL     1     -42.084 -55.806  16.655  1.00  0.00     0.154 C 
BRANCH  15  16
HETATM   16  C   UNL     1     -40.626 -55.558  17.045  1.00  0.00     0.139 C 
HETATM   17  C   UNL     1     -40.153 -54.113  16.899  1.00  0.00     0.035 C 
HETATM   18  C   UNL     1     -38.803 -54.217  16.216  1.00  0.00     0.029 C 
HETATM   19  C   UNL     1     -38.469 -55.689  16.287  1.00  0.00     0.168 C 
HETATM   20  O   UNL     1     -39.738 -56.350  16.231  1.00  0.00    -0.384 OA
ENDBRANCH  15  16
ENDBRANCH  13  15
ENDBRANCH   1  11
TORSDOF 5
ENDMDL
