MODEL 1
REMARK VINA RESULT:      -6.3      0.000      0.000
REMARK  6 active torsions:
REMARK  status: ('A' for Active; 'I' for Inactive)
REMARK    1  A    between atoms: C_5  and  O_6 
REMARK    2  A    between atoms: O_6  and  C_7 
REMARK    3  A    between atoms: C_7  and  C_8 
REMARK    4  A    between atoms: C_8  and  O_9 
REMARK    5  A    between atoms: C_8  and  C_10 
REMARK    6  A    between atoms: C_10  and  N_11 
ROOT
HETATM    1  C   UNL     1     -40.665 -53.324  13.082  1.00  0.00     0.161 C 
ENDROOT
BRANCH   1   2
HETATM    2  C   UNL     1     -39.412 -53.475  13.971  1.00  0.00     0.209 C 
BRANCH   2   3
HETATM    3  O   UNL     1     -38.344 -52.736  13.368  1.00  0.00    -0.349 OA
BRANCH   3   4
HETATM    4  C   UNL     1     -38.210 -51.422  13.716  1.00  0.00     0.068 A 
HETATM    5  C   UNL     1     -37.968 -50.554  12.648  1.00  0.00     0.037 A 
HETATM    6  C   UNL     1     -37.862 -49.177  12.853  1.00  0.00     0.009 A 
HETATM    7  C   UNL     1     -38.014 -48.640  14.134  1.00  0.00    -0.062 A 
HETATM    8  C   UNL     1     -37.960 -47.158  14.361  1.00  0.00     0.048 C 
HETATM    9  C   UNL     1     -38.260 -49.511  15.204  1.00  0.00     0.009 A 
HETATM   10  C   UNL     1     -38.355 -50.894  14.998  1.00  0.00     0.037 A 
ENDBRANCH   3   4
ENDBRANCH   2   3
ENDBRANCH   1   2
BRANCH   1  11
HETATM   11  O   UNL     1     -40.349 -53.585  11.703  1.00  0.00    -0.392 OA
HETATM   12  H   UNL     1     -39.407 -53.394  11.554  1.00  0.00     0.210 HD
ENDBRANCH   1  11
BRANCH   1  13
HETATM   13  C   UNL     1     -41.776 -54.296  13.518  1.00  0.00     0.166 C 
BRANCH  13  14
HETATM   14  N   UNL     1     -43.106 -53.686  13.460  1.00  0.00    -0.307 N 
HETATM   15  C   UNL     1     -43.283 -52.485  12.823  1.00  0.00     0.186 A 
HETATM   16  N   UNL     1     -44.402 -51.859  12.716  1.00  0.00    -0.355 N 
HETATM   17  C   UNL     1     -45.498 -52.409  13.338  1.00  0.00     0.017 A 
ATOM     18  HN  UNL     1     -44.474 -50.988  12.190  1.00  0.00     0.166 HD
HETATM   19  C   UNL     1     -46.756 -51.590  13.204  1.00  0.00     0.069 C 
HETATM   20  C   UNL     1     -45.463 -53.560  14.031  1.00  0.00     0.028 A 
HETATM   21  C   UNL     1     -46.595 -54.173  14.797  1.00  0.00     0.056 C 
HETATM   22  C   UNL     1     -44.173 -54.307  14.065  1.00  0.00     0.256 A 
HETATM   23  O   UNL     1     -44.100 -55.409  14.602  1.00  0.00    -0.267 OA
ENDBRANCH  13  14
ENDBRANCH   1  13
TORSDOF 6
ENDMDL
MODEL 2
REMARK VINA RESULT:      -6.3      2.739      5.109
REMARK  6 active torsions:
REMARK  status: ('A' for Active; 'I' for Inactive)
REMARK    1  A    between atoms: C_5  and  O_6 
REMARK    2  A    between atoms: O_6  and  C_7 
REMARK    3  A    between atoms: C_7  and  C_8 
REMARK    4  A    between atoms: C_8  and  O_9 
REMARK    5  A    between atoms: C_8  and  C_10 
REMARK    6  A    between atoms: C_10  and  N_11 
ROOT
HETATM    1  C   UNL     1     -41.349 -50.905  12.104  1.00  0.00     0.161 C 
ENDROOT
BRANCH   1   2
HETATM    2  C   UNL     1     -41.412 -49.898  13.273  1.00  0.00     0.209 C 
BRANCH   2   3
HETATM    3  O   UNL     1     -42.711 -49.297  13.276  1.00  0.00    -0.349 OA
BRANCH   3   4
HETATM    4  C   UNL     1     -43.740 -50.018  13.813  1.00  0.00     0.068 A 
HETATM    5  C   UNL     1     -43.755 -50.066  15.209  1.00  0.00     0.037 A 
HETATM    6  C   UNL     1     -44.780 -50.725  15.893  1.00  0.00     0.009 A 
HETATM    7  C   UNL     1     -45.820 -51.336  15.187  1.00  0.00    -0.062 A 
HETATM    8  C   UNL     1     -46.957 -51.997  15.909  1.00  0.00     0.048 C 
HETATM    9  C   UNL     1     -45.805 -51.284  13.787  1.00  0.00     0.009 A 
HETATM   10  C   UNL     1     -44.770 -50.631  13.103  1.00  0.00     0.037 A 
ENDBRANCH   3   4
ENDBRANCH   2   3
ENDBRANCH   1   2
BRANCH   1  11
HETATM   11  O   UNL     1     -40.393 -50.484  11.115  1.00  0.00    -0.392 OA
HETATM   12  H   UNL     1     -39.513 -50.439  11.527  1.00  0.00     0.210 HD
ENDBRANCH   1  11
BRANCH   1  13
HETATM   13  C   UNL     1     -40.949 -52.307  12.599  1.00  0.00     0.166 C 
BRANCH  13  14
HETATM   14  N   UNL     1     -42.103 -53.094  13.038  1.00  0.00    -0.307 N 
HETATM   15  C   UNL     1     -43.051 -53.488  12.129  1.00  0.00     0.186 A 
HETATM   16  N   UNL     1     -44.103 -54.177  12.403  1.00  0.00    -0.355 N 
HETATM   17  C   UNL     1     -44.326 -54.495  13.722  1.00  0.00     0.017 A 
ATOM     18  HN  UNL     1     -44.747 -54.475  11.670  1.00  0.00     0.166 HD
HETATM   19  C   UNL     1     -45.601 -55.259  13.962  1.00  0.00     0.069 C 
HETATM   20  C   UNL     1     -43.504 -54.140  14.724  1.00  0.00     0.028 A 
HETATM   21  C   UNL     1     -43.725 -54.383  16.186  1.00  0.00     0.056 C 
HETATM   22  C   UNL     1     -42.249 -53.419  14.366  1.00  0.00     0.256 A 
HETATM   23  O   UNL     1     -41.413 -53.150  15.225  1.00  0.00    -0.267 OA
ENDBRANCH  13  14
ENDBRANCH   1  13
TORSDOF 6
ENDMDL
MODEL 3
REMARK VINA RESULT:      -6.2      3.623      7.060
REMARK  6 active torsions:
REMARK  status: ('A' for Active; 'I' for Inactive)
REMARK    1  A    between atoms: C_5  and  O_6 
REMARK    2  A    between atoms: O_6  and  C_7 
REMARK    3  A    between atoms: C_7  and  C_8 
REMARK    4  A    between atoms: C_8  and  O_9 
REMARK    5  A    between atoms: C_8  and  C_10 
REMARK    6  A    between atoms: C_10  and  N_11 
ROOT
HETATM    1  C   UNL     1     -42.200 -54.073  12.998  1.00  0.00     0.161 C 
ENDROOT
BRANCH   1   2
HETATM    2  C   UNL     1     -43.224 -53.136  12.323  1.00  0.00     0.209 C 
BRANCH   2   3
HETATM    3  O   UNL     1     -44.528 -53.702  12.491  1.00  0.00    -0.349 OA
BRANCH   3   4
HETATM    4  C   UNL     1     -45.372 -53.093  13.376  1.00  0.00     0.068 A 
HETATM    5  C   UNL     1     -45.546 -53.772  14.584  1.00  0.00     0.037 A 
HETATM    6  C   UNL     1     -46.341 -53.237  15.600  1.00  0.00     0.009 A 
HETATM    7  C   UNL     1     -46.966 -51.999  15.429  1.00  0.00    -0.062 A 
HETATM    8  C   UNL     1     -47.776 -51.384  16.532  1.00  0.00     0.048 C 
HETATM    9  C   UNL     1     -46.788 -51.317  14.217  1.00  0.00     0.009 A 
HETATM   10  C   UNL     1     -45.999 -51.861  13.195  1.00  0.00     0.037 A 
ENDBRANCH   3   4
ENDBRANCH   2   3
ENDBRANCH   1   2
BRANCH   1  11
HETATM   11  O   UNL     1     -41.019 -54.210  12.188  1.00  0.00    -0.392 OA
HETATM   12  H   UNL     1     -41.223 -53.921  11.282  1.00  0.00     0.210 HD
ENDBRANCH   1  11
BRANCH   1  13
HETATM   13  C   UNL     1     -41.782 -53.538  14.379  1.00  0.00     0.166 C 
BRANCH  13  14
HETATM   14  N   UNL     1     -41.198 -54.577  15.228  1.00  0.00    -0.307 N 
HETATM   15  C   UNL     1     -42.010 -55.402  15.962  1.00  0.00     0.186 A 
HETATM   16  N   UNL     1     -41.606 -56.343  16.741  1.00  0.00    -0.355 N 
HETATM   17  C   UNL     1     -40.248 -56.498  16.895  1.00  0.00     0.017 A 
ATOM     18  HN  UNL     1     -42.266 -56.950  17.226  1.00  0.00     0.166 HD
HETATM   19  C   UNL     1     -39.860 -57.589  17.858  1.00  0.00     0.069 C 
HETATM   20  C   UNL     1     -39.335 -55.737  16.269  1.00  0.00     0.028 A 
HETATM   21  C   UNL     1     -37.849 -55.798  16.451  1.00  0.00     0.056 C 
HETATM   22  C   UNL     1     -39.831 -54.712  15.307  1.00  0.00     0.256 A 
HETATM   23  O   UNL     1     -39.046 -54.048  14.635  1.00  0.00    -0.267 OA
ENDBRANCH  13  14
ENDBRANCH   1  13
TORSDOF 6
ENDMDL
MODEL 4
REMARK VINA RESULT:      -6.2      3.205      5.882
REMARK  6 active torsions:
REMARK  status: ('A' for Active; 'I' for Inactive)
REMARK    1  A    between atoms: C_5  and  O_6 
REMARK    2  A    between atoms: O_6  and  C_7 
REMARK    3  A    between atoms: C_7  and  C_8 
REMARK    4  A    between atoms: C_8  and  O_9 
REMARK    5  A    between atoms: C_8  and  C_10 
REMARK    6  A    between atoms: C_10  and  N_11 
ROOT
HETATM    1  C   UNL     1     -41.469 -53.506  12.517  1.00  0.00     0.161 C 
ENDROOT
BRANCH   1   2
HETATM    2  C   UNL     1     -42.580 -52.459  12.285  1.00  0.00     0.209 C 
BRANCH   2   3
HETATM    3  O   UNL     1     -43.839 -53.142  12.258  1.00  0.00    -0.349 OA
BRANCH   3   4
HETATM    4  C   UNL     1     -44.728 -52.869  13.258  1.00  0.00     0.068 A 
HETATM    5  C   UNL     1     -44.787 -51.527  13.640  1.00  0.00     0.037 A 
HETATM    6  C   UNL     1     -45.690 -51.097  14.615  1.00  0.00     0.009 A 
HETATM    7  C   UNL     1     -46.565 -52.006  15.216  1.00  0.00    -0.062 A 
HETATM    8  C   UNL     1     -47.580 -51.550  16.222  1.00  0.00     0.048 C 
HETATM    9  C   UNL     1     -46.507 -53.351  14.829  1.00  0.00     0.009 A 
HETATM   10  C   UNL     1     -45.593 -53.783  13.858  1.00  0.00     0.037 A 
ENDBRANCH   3   4
ENDBRANCH   2   3
ENDBRANCH   1   2
BRANCH   1  11
HETATM   11  O   UNL     1     -40.466 -53.423  11.489  1.00  0.00    -0.392 OA
HETATM   12  H   UNL     1     -39.895 -52.656  11.666  1.00  0.00     0.210 HD
ENDBRANCH   1  11
BRANCH   1  13
HETATM   13  C   UNL     1     -40.785 -53.298  13.880  1.00  0.00     0.166 C 
BRANCH  13  14
HETATM   14  N   UNL     1     -41.709 -53.484  15.001  1.00  0.00    -0.307 N 
HETATM   15  C   UNL     1     -42.246 -54.720  15.250  1.00  0.00     0.186 A 
HETATM   16  N   UNL     1     -43.068 -54.995  16.202  1.00  0.00    -0.355 N 
HETATM   17  C   UNL     1     -43.485 -53.955  16.999  1.00  0.00     0.017 A 
ATOM     18  HN  UNL     1     -43.397 -55.947  16.359  1.00  0.00     0.166 HD
HETATM   19  C   UNL     1     -44.481 -54.353  18.057  1.00  0.00     0.069 C 
HETATM   20  C   UNL     1     -43.072 -52.685  16.845  1.00  0.00     0.028 A 
HETATM   21  C   UNL     1     -43.545 -51.495  17.623  1.00  0.00     0.056 C 
HETATM   22  C   UNL     1     -42.055 -52.412  15.791  1.00  0.00     0.256 A 
HETATM   23  O   UNL     1     -41.569 -51.291  15.662  1.00  0.00    -0.267 OA
ENDBRANCH  13  14
ENDBRANCH   1  13
TORSDOF 6
ENDMDL
MODEL 5
REMARK VINA RESULT:      -6.1      2.874      7.211
REMARK  6 active torsions:
REMARK  status: ('A' for Active; 'I' for Inactive)
REMARK    1  A    between atoms: C_5  and  O_6 
REMARK    2  A    between atoms: O_6  and  C_7 
REMARK    3  A    between atoms: C_7  and  C_8 
REMARK    4  A    between atoms: C_8  and  O_9 
REMARK    5  A    between atoms: C_8  and  C_10 
REMARK    6  A    between atoms: C_10  and  N_11 
ROOT
HETATM    1  C   UNL     1     -41.021 -52.253  12.318  1.00  0.00     0.161 C 
ENDROOT
BRANCH   1   2
HETATM    2  C   UNL     1     -42.447 -52.551  12.829  1.00  0.00     0.209 C 
BRANCH   2   3
HETATM    3  O   UNL     1     -43.166 -51.315  12.893  1.00  0.00    -0.349 OA
BRANCH   3   4
HETATM    4  C   UNL     1     -44.195 -51.228  13.788  1.00  0.00     0.068 A 
HETATM    5  C   UNL     1     -45.456 -51.521  13.263  1.00  0.00     0.037 A 
HETATM    6  C   UNL     1     -46.590 -51.522  14.078  1.00  0.00     0.009 A 
HETATM    7  C   UNL     1     -46.478 -51.245  15.442  1.00  0.00    -0.062 A 
HETATM    8  C   UNL     1     -47.678 -51.299  16.341  1.00  0.00     0.048 C 
HETATM    9  C   UNL     1     -45.213 -50.954  15.969  1.00  0.00     0.009 A 
HETATM   10  C   UNL     1     -44.077 -50.943  15.148  1.00  0.00     0.037 A 
ENDBRANCH   3   4
ENDBRANCH   2   3
ENDBRANCH   1   2
BRANCH   1  11
HETATM   11  O   UNL     1     -40.608 -53.234  11.349  1.00  0.00    -0.392 OA
HETATM   12  H   UNL     1     -40.888 -52.940  10.465  1.00  0.00     0.210 HD
ENDBRANCH   1  11
BRANCH   1  13
HETATM   13  C   UNL     1     -40.944 -50.862  11.664  1.00  0.00     0.166 C 
BRANCH  13  14
HETATM   14  N   UNL     1     -39.999 -49.976  12.345  1.00  0.00    -0.307 N 
HETATM   15  C   UNL     1     -38.948 -50.504  13.049  1.00  0.00     0.186 A 
HETATM   16  N   UNL     1     -38.062 -49.822  13.687  1.00  0.00    -0.355 N 
HETATM   17  C   UNL     1     -38.213 -48.455  13.713  1.00  0.00     0.017 A 
ATOM     18  HN  UNL     1     -37.279 -50.277  14.155  1.00  0.00     0.166 HD
HETATM   19  C   UNL     1     -37.163 -47.737  14.519  1.00  0.00     0.069 C 
HETATM   20  C   UNL     1     -39.217 -47.804  13.102  1.00  0.00     0.028 A 
HETATM   21  C   UNL     1     -39.486 -46.331  13.155  1.00  0.00     0.056 C 
HETATM   22  C   UNL     1     -40.178 -48.613  12.299  1.00  0.00     0.256 A 
HETATM   23  O   UNL     1     -41.061 -48.068  11.642  1.00  0.00    -0.267 OA
ENDBRANCH  13  14
ENDBRANCH   1  13
TORSDOF 6
ENDMDL
MODEL 6
REMARK VINA RESULT:      -6.1      2.784      4.868
REMARK  6 active torsions:
REMARK  status: ('A' for Active; 'I' for Inactive)
REMARK    1  A    between atoms: C_5  and  O_6 
REMARK    2  A    between atoms: O_6  and  C_7 
REMARK    3  A    between atoms: C_7  and  C_8 
REMARK    4  A    between atoms: C_8  and  O_9 
REMARK    5  A    between atoms: C_8  and  C_10 
REMARK    6  A    between atoms: C_10  and  N_11 
ROOT
HETATM    1  C   UNL     1     -45.665 -54.623  14.343  1.00  0.00     0.161 C 
ENDROOT
BRANCH   1   2
HETATM    2  C   UNL     1     -45.049 -54.261  15.713  1.00  0.00     0.209 C 
BRANCH   2   3
HETATM    3  O   UNL     1     -43.783 -54.920  15.822  1.00  0.00    -0.349 OA
BRANCH   3   4
HETATM    4  C   UNL     1     -42.660 -54.145  15.759  1.00  0.00     0.068 A 
HETATM    5  C   UNL     1     -41.698 -54.580  14.843  1.00  0.00     0.037 A 
HETATM    6  C   UNL     1     -40.523 -53.853  14.637  1.00  0.00     0.009 A 
HETATM    7  C   UNL     1     -40.297 -52.665  15.336  1.00  0.00    -0.062 A 
HETATM    8  C   UNL     1     -39.067 -51.844  15.084  1.00  0.00     0.048 C 
HETATM    9  C   UNL     1     -41.263 -52.229  16.252  1.00  0.00     0.009 A 
HETATM   10  C   UNL     1     -42.437 -52.965  16.465  1.00  0.00     0.037 A 
ENDBRANCH   3   4
ENDBRANCH   2   3
ENDBRANCH   1   2
BRANCH   1  11
HETATM   11  O   UNL     1     -46.907 -55.328  14.511  1.00  0.00    -0.392 OA
HETATM   12  H   UNL     1     -47.629 -54.681  14.582  1.00  0.00     0.210 HD
ENDBRANCH   1  11
BRANCH   1  13
HETATM   13  C   UNL     1     -45.931 -53.361  13.503  1.00  0.00     0.166 C 
BRANCH  13  14
HETATM   14  N   UNL     1     -44.698 -52.663  13.138  1.00  0.00    -0.307 N 
HETATM   15  C   UNL     1     -43.828 -53.228  12.242  1.00  0.00     0.186 A 
HETATM   16  N   UNL     1     -42.717 -52.706  11.854  1.00  0.00    -0.355 N 
HETATM   17  C   UNL     1     -42.344 -51.513  12.426  1.00  0.00     0.017 A 
ATOM     18  HN  UNL     1     -42.136 -53.160  11.149  1.00  0.00     0.166 HD
HETATM   19  C   UNL     1     -41.011 -50.995  11.952  1.00  0.00     0.069 C 
HETATM   20  C   UNL     1     -43.078 -50.865  13.346  1.00  0.00     0.028 A 
HETATM   21  C   UNL     1     -42.696 -49.607  14.066  1.00  0.00     0.056 C 
HETATM   22  C   UNL     1     -44.400 -51.449  13.712  1.00  0.00     0.256 A 
HETATM   23  O   UNL     1     -45.158 -50.857  14.476  1.00  0.00    -0.267 OA
ENDBRANCH  13  14
ENDBRANCH   1  13
TORSDOF 6
ENDMDL
MODEL 7
REMARK VINA RESULT:      -6.1      1.644      1.984
REMARK  6 active torsions:
REMARK  status: ('A' for Active; 'I' for Inactive)
REMARK    1  A    between atoms: C_5  and  O_6 
REMARK    2  A    between atoms: O_6  and  C_7 
REMARK    3  A    between atoms: C_7  and  C_8 
REMARK    4  A    between atoms: C_8  and  O_9 
REMARK    5  A    between atoms: C_8  and  C_10 
REMARK    6  A    between atoms: C_10  and  N_11 
ROOT
HETATM    1  C   UNL     1     -40.404 -53.749  13.310  1.00  0.00     0.161 C 
ENDROOT
BRANCH   1   2
HETATM    2  C   UNL     1     -39.757 -52.524  13.994  1.00  0.00     0.209 C 
BRANCH   2   3
HETATM    3  O   UNL     1     -38.948 -51.847  13.025  1.00  0.00    -0.349 OA
BRANCH   3   4
HETATM    4  C   UNL     1     -39.391 -50.639  12.567  1.00  0.00     0.068 A 
HETATM    5  C   UNL     1     -38.672 -49.536  13.033  1.00  0.00     0.037 A 
HETATM    6  C   UNL     1     -38.982 -48.243  12.603  1.00  0.00     0.009 A 
HETATM    7  C   UNL     1     -40.012 -48.034  11.683  1.00  0.00    -0.062 A 
HETATM    8  C   UNL     1     -40.319 -46.659  11.168  1.00  0.00     0.048 C 
HETATM    9  C   UNL     1     -40.730 -49.142  11.214  1.00  0.00     0.009 A 
HETATM   10  C   UNL     1     -40.424 -50.437  11.654  1.00  0.00     0.037 A 
ENDBRANCH   3   4
ENDBRANCH   2   3
ENDBRANCH   1   2
BRANCH   1  11
HETATM   11  O   UNL     1     -39.429 -54.783  13.083  1.00  0.00    -0.392 OA
HETATM   12  H   UNL     1     -38.592 -54.524  13.506  1.00  0.00     0.210 HD
ENDBRANCH   1  11
BRANCH   1  13
HETATM   13  C   UNL     1     -41.539 -54.332  14.172  1.00  0.00     0.166 C 
BRANCH  13  14
HETATM   14  N   UNL     1     -42.860 -53.882  13.732  1.00  0.00    -0.307 N 
HETATM   15  C   UNL     1     -42.972 -52.986  12.701  1.00  0.00     0.186 A 
HETATM   16  N   UNL     1     -44.080 -52.521  12.237  1.00  0.00    -0.355 N 
HETATM   17  C   UNL     1     -45.241 -52.910  12.861  1.00  0.00     0.017 A 
ATOM     18  HN  UNL     1     -44.095 -51.890  11.436  1.00  0.00     0.166 HD
HETATM   19  C   UNL     1     -46.486 -52.285  12.288  1.00  0.00     0.069 C 
HETATM   20  C   UNL     1     -45.279 -53.751  13.909  1.00  0.00     0.028 A 
HETATM   21  C   UNL     1     -46.496 -54.152  14.685  1.00  0.00     0.056 C 
HETATM   22  C   UNL     1     -43.989 -54.340  14.369  1.00  0.00     0.256 A 
HETATM   23  O   UNL     1     -43.968 -55.185  15.260  1.00  0.00    -0.267 OA
ENDBRANCH  13  14
ENDBRANCH   1  13
TORSDOF 6
ENDMDL
MODEL 8
REMARK VINA RESULT:      -6.1      2.551      5.606
REMARK  6 active torsions:
REMARK  status: ('A' for Active; 'I' for Inactive)
REMARK    1  A    between atoms: C_5  and  O_6 
REMARK    2  A    between atoms: O_6  and  C_7 
REMARK    3  A    between atoms: C_7  and  C_8 
REMARK    4  A    between atoms: C_8  and  O_9 
REMARK    5  A    between atoms: C_8  and  C_10 
REMARK    6  A    between atoms: C_10  and  N_11 
ROOT
HETATM    1  C   UNL     1     -39.772 -53.851  13.830  1.00  0.00     0.161 C 
ENDROOT
BRANCH   1   2
HETATM    2  C   UNL     1     -41.003 -54.252  12.988  1.00  0.00     0.209 C 
BRANCH   2   3
HETATM    3  O   UNL     1     -42.057 -54.620  13.884  1.00  0.00    -0.349 OA
BRANCH   3   4
HETATM    4  C   UNL     1     -43.213 -53.894  13.832  1.00  0.00     0.068 A 
HETATM    5  C   UNL     1     -43.738 -53.536  15.076  1.00  0.00     0.037 A 
HETATM    6  C   UNL     1     -44.888 -52.749  15.170  1.00  0.00     0.009 A 
HETATM    7  C   UNL     1     -45.526 -52.292  14.014  1.00  0.00    -0.062 A 
HETATM    8  C   UNL     1     -46.728 -51.398  14.099  1.00  0.00     0.048 C 
HETATM    9  C   UNL     1     -44.997 -52.649  12.767  1.00  0.00     0.009 A 
HETATM   10  C   UNL     1     -43.849 -53.448  12.674  1.00  0.00     0.037 A 
ENDBRANCH   3   4
ENDBRANCH   2   3
ENDBRANCH   1   2
BRANCH   1  11
HETATM   11  O   UNL     1     -38.617 -54.616  13.445  1.00  0.00    -0.392 OA
HETATM   12  H   UNL     1     -37.823 -54.066  13.558  1.00  0.00     0.210 HD
ENDBRANCH   1  11
BRANCH   1  13
HETATM   13  C   UNL     1     -39.445 -52.356  13.658  1.00  0.00     0.166 C 
BRANCH  13  14
HETATM   14  N   UNL     1     -40.516 -51.490  14.154  1.00  0.00    -0.307 N 
HETATM   15  C   UNL     1     -40.755 -51.396  15.500  1.00  0.00     0.186 A 
HETATM   16  N   UNL     1     -41.669 -50.671  16.044  1.00  0.00    -0.355 N 
HETATM   17  C   UNL     1     -42.512 -49.979  15.206  1.00  0.00     0.017 A 
ATOM     18  HN  UNL     1     -41.765 -50.612  17.058  1.00  0.00     0.166 HD
HETATM   19  C   UNL     1     -43.581 -49.195  15.920  1.00  0.00     0.069 C 
HETATM   20  C   UNL     1     -42.420 -50.010  13.865  1.00  0.00     0.028 A 
HETATM   21  C   UNL     1     -43.349 -49.348  12.894  1.00  0.00     0.056 C 
HETATM   22  C   UNL     1     -41.299 -50.788  13.267  1.00  0.00     0.256 A 
HETATM   23  O   UNL     1     -41.106 -50.780  12.054  1.00  0.00    -0.267 OA
ENDBRANCH  13  14
ENDBRANCH   1  13
TORSDOF 6
ENDMDL
MODEL 9
REMARK VINA RESULT:      -6.1      2.115      6.677
REMARK  6 active torsions:
REMARK  status: ('A' for Active; 'I' for Inactive)
REMARK    1  A    between atoms: C_5  and  O_6 
REMARK    2  A    between atoms: O_6  and  C_7 
REMARK    3  A    between atoms: C_7  and  C_8 
REMARK    4  A    between atoms: C_8  and  O_9 
REMARK    5  A    between atoms: C_8  and  C_10 
REMARK    6  A    between atoms: C_10  and  N_11 
ROOT
HETATM    1  C   UNL     1     -40.923 -53.768  13.016  1.00  0.00     0.161 C 
ENDROOT
BRANCH   1   2
HETATM    2  C   UNL     1     -42.414 -54.106  13.231  1.00  0.00     0.209 C 
BRANCH   2   3
HETATM    3  O   UNL     1     -43.198 -53.028  12.708  1.00  0.00    -0.349 OA
BRANCH   3   4
HETATM    4  C   UNL     1     -44.285 -52.628  13.432  1.00  0.00     0.068 A 
HETATM    5  C   UNL     1     -44.238 -52.953  14.789  1.00  0.00     0.037 A 
HETATM    6  C   UNL     1     -45.259 -52.559  15.657  1.00  0.00     0.009 A 
HETATM    7  C   UNL     1     -46.341 -51.815  15.182  1.00  0.00    -0.062 A 
HETATM    8  C   UNL     1     -47.416 -51.335  16.112  1.00  0.00     0.048 C 
HETATM    9  C   UNL     1     -46.386 -51.486  13.820  1.00  0.00     0.009 A 
HETATM   10  C   UNL     1     -45.366 -51.891  12.949  1.00  0.00     0.037 A 
ENDBRANCH   3   4
ENDBRANCH   2   3
ENDBRANCH   1   2
BRANCH   1  11
HETATM   11  O   UNL     1     -40.700 -53.259  11.689  1.00  0.00    -0.392 OA
HETATM   12  H   UNL     1     -41.413 -53.574  11.107  1.00  0.00     0.210 HD
ENDBRANCH   1  11
BRANCH   1  13
HETATM   13  C   UNL     1     -40.441 -52.713  14.028  1.00  0.00     0.166 C 
BRANCH  13  14
HETATM   14  N   UNL     1     -40.177 -51.417  13.401  1.00  0.00    -0.307 N 
HETATM   15  C   UNL     1     -41.155 -50.458  13.368  1.00  0.00     0.186 A 
HETATM   16  N   UNL     1     -41.034 -49.290  12.841  1.00  0.00    -0.355 N 
HETATM   17  C   UNL     1     -39.847 -49.000  12.210  1.00  0.00     0.017 A 
ATOM     18  HN  UNL     1     -41.788 -48.605  12.890  1.00  0.00     0.166 HD
HETATM   19  C   UNL     1     -39.804 -47.632  11.580  1.00  0.00     0.069 C 
HETATM   20  C   UNL     1     -38.816 -49.858  12.129  1.00  0.00     0.028 A 
HETATM   21  C   UNL     1     -37.530 -49.639  11.391  1.00  0.00     0.056 C 
HETATM   22  C   UNL     1     -38.953 -51.170  12.823  1.00  0.00     0.256 A 
HETATM   23  O   UNL     1     -38.013 -51.960  12.865  1.00  0.00    -0.267 OA
ENDBRANCH  13  14
ENDBRANCH   1  13
TORSDOF 6
ENDMDL
