MODEL 1
REMARK VINA RESULT:      -6.2      0.000      0.000
REMARK  7 active torsions:
REMARK  status: ('A' for Active; 'I' for Inactive)
REMARK    1  A    between atoms: O_2  and  C_3 
REMARK    2  A    between atoms: C_8  and  O_9 
REMARK    3  A    between atoms: O_9  and  C_10 
REMARK    4  A    between atoms: C_10  and  C_11 
REMARK    5  A    between atoms: C_11  and  N_12 
REMARK    6  A    between atoms: C_13  and  C_22 
REMARK    7  A    between atoms: C_22  and  O_25 
ROOT
HETATM    1  N   UNL     1     -40.904 -48.948  12.584  1.00  0.00    -0.330 N 
HETATM    2  C   UNL     1     -39.627 -49.247  12.099  1.00  0.00     0.119 A 
HETATM    3  N   UNL     1     -39.163 -48.241  11.381  1.00  0.00    -0.341 N 
ATOM      4  HN  UNL     1     -38.258 -48.192  10.913  1.00  0.00     0.167 HD
HETATM    5  C   UNL     1     -40.128 -47.281  11.386  1.00  0.00     0.060 A 
HETATM    6  C   UNL     1     -40.102 -46.020  10.770  1.00  0.00     0.032 A 
HETATM    7  C   UNL     1     -41.206 -45.175  10.895  1.00  0.00     0.002 A 
HETATM    8  C   UNL     1     -42.321 -45.586  11.615  1.00  0.00     0.002 A 
HETATM    9  C   UNL     1     -42.366 -46.845  12.226  1.00  0.00     0.032 A 
HETATM   10  C   UNL     1     -41.245 -47.688  12.114  1.00  0.00     0.062 A 
ENDROOT
BRANCH   1  11
HETATM   11  C   UNL     1     -41.674 -49.833  13.441  1.00  0.00     0.157 C 
BRANCH  11  12
HETATM   12  C   UNL     1     -42.853 -50.598  12.847  1.00  0.00     0.196 C 
BRANCH  12  13
HETATM   13  O   UNL     1     -42.456 -51.907  12.451  1.00  0.00    -0.347 OA
BRANCH  13  14
HETATM   14  C   UNL     1     -42.925 -52.997  13.142  1.00  0.00     0.102 A 
HETATM   15  C   UNL     1     -44.162 -53.659  13.028  1.00  0.00     0.101 A 
HETATM   16  C   UNL     1     -44.431 -54.743  13.878  1.00  0.00     0.039 A 
HETATM   17  C   UNL     1     -43.490 -55.176  14.811  1.00  0.00     0.003 A 
HETATM   18  C   UNL     1     -42.263 -54.532  14.915  1.00  0.00     0.003 A 
HETATM   19  C   UNL     1     -41.989 -53.448  14.083  1.00  0.00     0.039 A 
BRANCH  15  20
HETATM   20  O   UNL     1     -45.103 -53.188  12.151  1.00  0.00    -0.353 OA
HETATM   21  C   UNL     1     -46.147 -52.387  12.699  1.00  0.00     0.210 C 
ENDBRANCH  15  20
ENDBRANCH  13  14
ENDBRANCH  12  13
ENDBRANCH  11  12
ENDBRANCH   1  11
BRANCH   2  22
HETATM   22  C   UNL     1     -38.808 -50.499  12.364  1.00  0.00     0.109 C 
HETATM   23  C   UNL     1     -37.478 -50.447  11.594  1.00  0.00     0.054 C 
HETATM   24  C   UNL     1     -38.532 -50.667  13.857  1.00  0.00     0.054 C 
BRANCH  22  25
HETATM   25  O   UNL     1     -39.523 -51.649  11.909  1.00  0.00    -0.383 OA
HETATM   26  H   UNL     1     -40.453 -51.384  11.798  1.00  0.00     0.211 HD
ENDBRANCH  22  25
ENDBRANCH   2  22
TORSDOF 7
ENDMDL
MODEL 2
REMARK VINA RESULT:      -6.1      0.889      2.109
REMARK  7 active torsions:
REMARK  status: ('A' for Active; 'I' for Inactive)
REMARK    1  A    between atoms: O_2  and  C_3 
REMARK    2  A    between atoms: C_8  and  O_9 
REMARK    3  A    between atoms: O_9  and  C_10 
REMARK    4  A    between atoms: C_10  and  C_11 
REMARK    5  A    between atoms: C_11  and  N_12 
REMARK    6  A    between atoms: C_13  and  C_22 
REMARK    7  A    between atoms: C_22  and  O_25 
ROOT
HETATM    1  N   UNL     1     -40.823 -48.914  12.537  1.00  0.00    -0.330 N 
HETATM    2  C   UNL     1     -39.543 -49.129  12.018  1.00  0.00     0.119 A 
HETATM    3  N   UNL     1     -39.158 -48.088  11.304  1.00  0.00    -0.341 N 
ATOM      4  HN  UNL     1     -38.269 -47.978  10.816  1.00  0.00     0.167 HD
HETATM    5  C   UNL     1     -40.179 -47.188  11.346  1.00  0.00     0.060 A 
HETATM    6  C   UNL     1     -40.244 -45.920  10.747  1.00  0.00     0.032 A 
HETATM    7  C   UNL     1     -41.394 -45.145  10.910  1.00  0.00     0.002 A 
HETATM    8  C   UNL     1     -42.464 -45.632  11.651  1.00  0.00     0.002 A 
HETATM    9  C   UNL     1     -42.418 -46.899  12.245  1.00  0.00     0.032 A 
HETATM   10  C   UNL     1     -41.251 -47.671  12.094  1.00  0.00     0.062 A 
ENDROOT
BRANCH   1  11
HETATM   11  C   UNL     1     -41.517 -49.855  13.400  1.00  0.00     0.157 C 
BRANCH  11  12
HETATM   12  C   UNL     1     -42.667 -50.678  12.825  1.00  0.00     0.196 C 
BRANCH  12  13
HETATM   13  O   UNL     1     -42.223 -51.982  12.466  1.00  0.00    -0.347 OA
BRANCH  13  14
HETATM   14  C   UNL     1     -42.428 -53.030  13.329  1.00  0.00     0.102 A 
HETATM   15  C   UNL     1     -41.510 -53.675  14.179  1.00  0.00     0.101 A 
HETATM   16  C   UNL     1     -41.951 -54.760  14.953  1.00  0.00     0.039 A 
HETATM   17  C   UNL     1     -43.277 -55.188  14.902  1.00  0.00     0.003 A 
HETATM   18  C   UNL     1     -44.187 -54.543  14.073  1.00  0.00     0.003 A 
HETATM   19  C   UNL     1     -43.757 -53.471  13.293  1.00  0.00     0.039 A 
BRANCH  15  20
HETATM   20  O   UNL     1     -40.196 -53.286  14.177  1.00  0.00    -0.353 OA
HETATM   21  C   UNL     1     -39.221 -54.324  14.108  1.00  0.00     0.210 C 
ENDBRANCH  15  20
ENDBRANCH  13  14
ENDBRANCH  12  13
ENDBRANCH  11  12
ENDBRANCH   1  11
BRANCH   2  22
HETATM   22  C   UNL     1     -38.644 -50.333  12.246  1.00  0.00     0.109 C 
HETATM   23  C   UNL     1     -37.403 -50.258  11.341  1.00  0.00     0.054 C 
HETATM   24  C   UNL     1     -38.210 -50.423  13.708  1.00  0.00     0.054 C 
BRANCH  22  25
HETATM   25  O   UNL     1     -39.347 -51.531  11.913  1.00  0.00    -0.383 OA
HETATM   26  H   UNL     1     -38.800 -52.278  12.212  1.00  0.00     0.211 HD
ENDBRANCH  22  25
ENDBRANCH   2  22
TORSDOF 7
ENDMDL
MODEL 3
REMARK VINA RESULT:      -6.1      2.502      6.220
REMARK  7 active torsions:
REMARK  status: ('A' for Active; 'I' for Inactive)
REMARK    1  A    between atoms: O_2  and  C_3 
REMARK    2  A    between atoms: C_8  and  O_9 
REMARK    3  A    between atoms: O_9  and  C_10 
REMARK    4  A    between atoms: C_10  and  C_11 
REMARK    5  A    between atoms: C_11  and  N_12 
REMARK    6  A    between atoms: C_13  and  C_22 
REMARK    7  A    between atoms: C_22  and  O_25 
ROOT
HETATM    1  N   UNL     1     -42.538 -52.153  12.572  1.00  0.00    -0.330 N 
HETATM    2  C   UNL     1     -42.767 -50.777  12.494  1.00  0.00     0.119 A 
HETATM    3  N   UNL     1     -44.002 -50.497  12.869  1.00  0.00    -0.341 N 
ATOM      4  HN  UNL     1     -44.432 -49.573  12.910  1.00  0.00     0.167 HD
HETATM    5  C   UNL     1     -44.589 -51.682  13.190  1.00  0.00     0.060 A 
HETATM    6  C   UNL     1     -45.896 -51.907  13.652  1.00  0.00     0.032 A 
HETATM    7  C   UNL     1     -46.309 -53.212  13.925  1.00  0.00     0.002 A 
HETATM    8  C   UNL     1     -45.437 -54.275  13.730  1.00  0.00     0.002 A 
HETATM    9  C   UNL     1     -44.134 -54.068  13.259  1.00  0.00     0.032 A 
HETATM   10  C   UNL     1     -43.714 -52.750  13.002  1.00  0.00     0.062 A 
ENDROOT
BRANCH   1  11
HETATM   11  C   UNL     1     -41.264 -52.781  12.264  1.00  0.00     0.157 C 
BRANCH  11  12
HETATM   12  C   UNL     1     -40.522 -53.532  13.367  1.00  0.00     0.196 C 
BRANCH  12  13
HETATM   13  O   UNL     1     -39.127 -53.255  13.314  1.00  0.00    -0.347 OA
BRANCH  13  14
HETATM   14  C   UNL     1     -38.634 -52.129  13.925  1.00  0.00     0.102 A 
HETATM   15  C   UNL     1     -37.772 -51.142  13.412  1.00  0.00     0.101 A 
HETATM   16  C   UNL     1     -37.373 -50.088  14.250  1.00  0.00     0.039 A 
HETATM   17  C   UNL     1     -37.832 -50.001  15.564  1.00  0.00     0.003 A 
HETATM   18  C   UNL     1     -38.694 -50.968  16.067  1.00  0.00     0.003 A 
HETATM   19  C   UNL     1     -39.087 -52.024  15.247  1.00  0.00     0.039 A 
BRANCH  15  20
HETATM   20  O   UNL     1     -37.279 -51.268  12.140  1.00  0.00    -0.353 OA
HETATM   21  C   UNL     1     -37.390 -50.127  11.293  1.00  0.00     0.210 C 
ENDBRANCH  15  20
ENDBRANCH  13  14
ENDBRANCH  12  13
ENDBRANCH  11  12
ENDBRANCH   1  11
BRANCH   2  22
HETATM   22  C   UNL     1     -41.775 -49.695  12.101  1.00  0.00     0.109 C 
HETATM   23  C   UNL     1     -42.511 -48.459  11.559  1.00  0.00     0.054 C 
HETATM   24  C   UNL     1     -40.903 -49.294  13.290  1.00  0.00     0.054 C 
BRANCH  22  25
HETATM   25  O   UNL     1     -40.921 -50.178  11.063  1.00  0.00    -0.383 OA
HETATM   26  H   UNL     1     -41.487 -50.629  10.412  1.00  0.00     0.211 HD
ENDBRANCH  22  25
ENDBRANCH   2  22
TORSDOF 7
ENDMDL
MODEL 4
REMARK VINA RESULT:      -6.1      2.456      6.737
REMARK  7 active torsions:
REMARK  status: ('A' for Active; 'I' for Inactive)
REMARK    1  A    between atoms: O_2  and  C_3 
REMARK    2  A    between atoms: C_8  and  O_9 
REMARK    3  A    between atoms: O_9  and  C_10 
REMARK    4  A    between atoms: C_10  and  C_11 
REMARK    5  A    between atoms: C_11  and  N_12 
REMARK    6  A    between atoms: C_13  and  C_22 
REMARK    7  A    between atoms: C_22  and  O_25 
ROOT
HETATM    1  N   UNL     1     -41.497 -53.295  13.096  1.00  0.00    -0.330 N 
HETATM    2  C   UNL     1     -40.793 -53.880  14.152  1.00  0.00     0.119 A 
HETATM    3  N   UNL     1     -41.603 -54.614  14.891  1.00  0.00    -0.341 N 
ATOM      4  HN  UNL     1     -41.353 -55.152  15.721  1.00  0.00     0.167 HD
HETATM    5  C   UNL     1     -42.840 -54.514  14.330  1.00  0.00     0.060 A 
HETATM    6  C   UNL     1     -44.034 -55.123  14.747  1.00  0.00     0.032 A 
HETATM    7  C   UNL     1     -45.208 -54.889  14.028  1.00  0.00     0.002 A 
HETATM    8  C   UNL     1     -45.190 -54.054  12.918  1.00  0.00     0.002 A 
HETATM    9  C   UNL     1     -44.008 -53.432  12.496  1.00  0.00     0.032 A 
HETATM   10  C   UNL     1     -42.824 -53.683  13.212  1.00  0.00     0.062 A 
ENDROOT
BRANCH   1  11
HETATM   11  C   UNL     1     -40.884 -52.458  12.078  1.00  0.00     0.157 C 
BRANCH  11  12
HETATM   12  C   UNL     1     -41.291 -50.990  11.983  1.00  0.00     0.196 C 
BRANCH  12  13
HETATM   13  O   UNL     1     -40.219 -50.203  11.476  1.00  0.00    -0.347 OA
BRANCH  13  14
HETATM   14  C   UNL     1     -40.044 -48.920  11.931  1.00  0.00     0.102 A 
HETATM   15  C   UNL     1     -40.611 -47.722  11.456  1.00  0.00     0.101 A 
HETATM   16  C   UNL     1     -40.250 -46.512  12.069  1.00  0.00     0.039 A 
HETATM   17  C   UNL     1     -39.361 -46.487  13.143  1.00  0.00     0.003 A 
HETATM   18  C   UNL     1     -38.812 -47.671  13.622  1.00  0.00     0.003 A 
HETATM   19  C   UNL     1     -39.155 -48.876  13.013  1.00  0.00     0.039 A 
BRANCH  15  20
HETATM   20  O   UNL     1     -41.436 -47.751  10.362  1.00  0.00    -0.353 OA
HETATM   21  C   UNL     1     -42.837 -47.815  10.618  1.00  0.00     0.210 C 
ENDBRANCH  15  20
ENDBRANCH  13  14
ENDBRANCH  12  13
ENDBRANCH  11  12
ENDBRANCH   1  11
BRANCH   2  22
HETATM   22  C   UNL     1     -39.304 -53.777  14.440  1.00  0.00     0.109 C 
HETATM   23  C   UNL     1     -38.887 -52.307  14.606  1.00  0.00     0.054 C 
HETATM   24  C   UNL     1     -38.934 -54.563  15.697  1.00  0.00     0.054 C 
BRANCH  22  25
HETATM   25  O   UNL     1     -38.563 -54.314  13.343  1.00  0.00    -0.383 OA
HETATM   26  H   UNL     1     -38.049 -53.582  12.957  1.00  0.00     0.211 HD
ENDBRANCH  22  25
ENDBRANCH   2  22
TORSDOF 7
ENDMDL
MODEL 5
REMARK VINA RESULT:      -6.0      2.665      5.409
REMARK  7 active torsions:
REMARK  status: ('A' for Active; 'I' for Inactive)
REMARK    1  A    between atoms: O_2  and  C_3 
REMARK    2  A    between atoms: C_8  and  O_9 
REMARK    3  A    between atoms: O_9  and  C_10 
REMARK    4  A    between atoms: C_10  and  C_11 
REMARK    5  A    between atoms: C_11  and  N_12 
REMARK    6  A    between atoms: C_13  and  C_22 
REMARK    7  A    between atoms: C_22  and  O_25 
ROOT
HETATM    1  N   UNL     1     -42.005 -46.879  10.433  1.00  0.00    -0.330 N 
HETATM    2  C   UNL     1     -43.218 -46.354   9.978  1.00  0.00     0.119 A 
HETATM    3  N   UNL     1     -43.281 -45.060  10.234  1.00  0.00    -0.341 N 
ATOM      4  HN  UNL     1     -44.051 -44.431  10.007  1.00  0.00     0.167 HD
HETATM    5  C   UNL     1     -42.117 -44.730  10.858  1.00  0.00     0.060 A 
HETATM    6  C   UNL     1     -41.708 -43.469  11.319  1.00  0.00     0.032 A 
HETATM    7  C   UNL     1     -40.464 -43.339  11.940  1.00  0.00     0.002 A 
HETATM    8  C   UNL     1     -39.648 -44.452  12.106  1.00  0.00     0.002 A 
HETATM    9  C   UNL     1     -40.048 -45.718  11.661  1.00  0.00     0.032 A 
HETATM   10  C   UNL     1     -41.294 -45.842  11.019  1.00  0.00     0.062 A 
ENDROOT
BRANCH   1  11
HETATM   11  C   UNL     1     -41.610 -48.268  10.269  1.00  0.00     0.157 C 
BRANCH  11  12
HETATM   12  C   UNL     1     -41.476 -49.151  11.507  1.00  0.00     0.196 C 
BRANCH  12  13
HETATM   13  O   UNL     1     -40.416 -50.087  11.344  1.00  0.00    -0.347 OA
BRANCH  13  14
HETATM   14  C   UNL     1     -39.472 -50.223  12.332  1.00  0.00     0.102 A 
HETATM   15  C   UNL     1     -39.128 -51.362  13.084  1.00  0.00     0.101 A 
HETATM   16  C   UNL     1     -38.142 -51.246  14.076  1.00  0.00     0.039 A 
HETATM   17  C   UNL     1     -37.495 -50.033  14.308  1.00  0.00     0.003 A 
HETATM   18  C   UNL     1     -37.823 -48.912  13.556  1.00  0.00     0.003 A 
HETATM   19  C   UNL     1     -38.809 -49.013  12.576  1.00  0.00     0.039 A 
BRANCH  15  20
HETATM   20  O   UNL     1     -39.812 -52.534  12.890  1.00  0.00    -0.353 OA
HETATM   21  C   UNL     1     -40.892 -52.801  13.781  1.00  0.00     0.210 C 
ENDBRANCH  15  20
ENDBRANCH  13  14
ENDBRANCH  12  13
ENDBRANCH  11  12
ENDBRANCH   1  11
BRANCH   2  22
HETATM   22  C   UNL     1     -44.325 -47.089   9.241  1.00  0.00     0.109 C 
HETATM   23  C   UNL     1     -45.478 -46.130   8.904  1.00  0.00     0.054 C 
HETATM   24  C   UNL     1     -43.796 -47.728   7.957  1.00  0.00     0.054 C 
BRANCH  22  25
HETATM   25  O   UNL     1     -44.854 -48.124  10.071  1.00  0.00    -0.383 OA
HETATM   26  H   UNL     1     -44.670 -48.971   9.627  1.00  0.00     0.211 HD
ENDBRANCH  22  25
ENDBRANCH   2  22
TORSDOF 7
ENDMDL
MODEL 6
REMARK VINA RESULT:      -6.0      1.361      2.134
REMARK  7 active torsions:
REMARK  status: ('A' for Active; 'I' for Inactive)
REMARK    1  A    between atoms: O_2  and  C_3 
REMARK    2  A    between atoms: C_8  and  O_9 
REMARK    3  A    between atoms: O_9  and  C_10 
REMARK    4  A    between atoms: C_10  and  C_11 
REMARK    5  A    between atoms: C_11  and  N_12 
REMARK    6  A    between atoms: C_13  and  C_22 
REMARK    7  A    between atoms: C_22  and  O_25 
ROOT
HETATM    1  N   UNL     1     -41.292 -49.428  11.802  1.00  0.00    -0.330 N 
HETATM    2  C   UNL     1     -39.906 -49.246  11.787  1.00  0.00     0.119 A 
HETATM    3  N   UNL     1     -39.608 -48.046  11.323  1.00  0.00    -0.341 N 
ATOM      4  HN  UNL     1     -38.674 -47.652  11.208  1.00  0.00     0.167 HD
HETATM    5  C   UNL     1     -40.789 -47.438  11.028  1.00  0.00     0.060 A 
HETATM    6  C   UNL     1     -40.997 -46.147  10.517  1.00  0.00     0.032 A 
HETATM    7  C   UNL     1     -42.302 -45.708  10.280  1.00  0.00     0.002 A 
HETATM    8  C   UNL     1     -43.378 -46.546  10.541  1.00  0.00     0.002 A 
HETATM    9  C   UNL     1     -43.185 -47.840  11.042  1.00  0.00     0.032 A 
HETATM   10  C   UNL     1     -41.871 -48.274  11.296  1.00  0.00     0.062 A 
ENDROOT
BRANCH   1  11
HETATM   11  C   UNL     1     -41.946 -50.630  12.293  1.00  0.00     0.157 C 
BRANCH  11  12
HETATM   12  C   UNL     1     -42.897 -50.522  13.481  1.00  0.00     0.196 C 
BRANCH  12  13
HETATM   13  O   UNL     1     -44.247 -50.703  13.063  1.00  0.00    -0.347 OA
BRANCH  13  14
HETATM   14  C   UNL     1     -44.981 -51.745  13.572  1.00  0.00     0.102 A 
HETATM   15  C   UNL     1     -44.804 -53.130  13.393  1.00  0.00     0.101 A 
HETATM   16  C   UNL     1     -45.716 -54.012  13.994  1.00  0.00     0.039 A 
HETATM   17  C   UNL     1     -46.771 -53.536  14.772  1.00  0.00     0.003 A 
HETATM   18  C   UNL     1     -46.938 -52.170  14.960  1.00  0.00     0.003 A 
HETATM   19  C   UNL     1     -46.045 -51.285  14.360  1.00  0.00     0.039 A 
BRANCH  15  20
HETATM   20  O   UNL     1     -43.801 -53.584  12.578  1.00  0.00    -0.353 OA
HETATM   21  C   UNL     1     -42.660 -54.148  13.220  1.00  0.00     0.210 C 
ENDBRANCH  15  20
ENDBRANCH  13  14
ENDBRANCH  12  13
ENDBRANCH  11  12
ENDBRANCH   1  11
BRANCH   2  22
HETATM   22  C   UNL     1     -38.840 -50.216  12.269  1.00  0.00     0.109 C 
HETATM   23  C   UNL     1     -37.494 -49.921  11.588  1.00  0.00     0.054 C 
HETATM   24  C   UNL     1     -38.677 -50.138  13.786  1.00  0.00     0.054 C 
BRANCH  22  25
HETATM   25  O   UNL     1     -39.213 -51.551  11.927  1.00  0.00    -0.383 OA
HETATM   26  H   UNL     1     -40.100 -51.509  11.528  1.00  0.00     0.211 HD
ENDBRANCH  22  25
ENDBRANCH   2  22
TORSDOF 7
ENDMDL
MODEL 7
REMARK VINA RESULT:      -6.0      2.412      6.208
REMARK  7 active torsions:
REMARK  status: ('A' for Active; 'I' for Inactive)
REMARK    1  A    between atoms: O_2  and  C_3 
REMARK    2  A    between atoms: C_8  and  O_9 
REMARK    3  A    between atoms: O_9  and  C_10 
REMARK    4  A    between atoms: C_10  and  C_11 
REMARK    5  A    between atoms: C_11  and  N_12 
REMARK    6  A    between atoms: C_13  and  C_22 
REMARK    7  A    between atoms: C_22  and  O_25 
ROOT
HETATM    1  N   UNL     1     -42.691 -51.315  13.850  1.00  0.00    -0.330 N 
HETATM    2  C   UNL     1     -42.167 -52.102  12.820  1.00  0.00     0.119 A 
HETATM    3  N   UNL     1     -43.139 -52.735  12.188  1.00  0.00    -0.341 N 
ATOM      4  HN  UNL     1     -43.039 -53.371  11.397  1.00  0.00     0.167 HD
HETATM    5  C   UNL     1     -44.301 -52.372  12.798  1.00  0.00     0.060 A 
HETATM    6  C   UNL     1     -45.609 -52.773  12.483  1.00  0.00     0.032 A 
HETATM    7  C   UNL     1     -46.675 -52.283  13.240  1.00  0.00     0.002 A 
HETATM    8  C   UNL     1     -46.438 -51.416  14.299  1.00  0.00     0.002 A 
HETATM    9  C   UNL     1     -45.138 -51.016  14.632  1.00  0.00     0.032 A 
HETATM   10  C   UNL     1     -44.067 -51.497  13.857  1.00  0.00     0.062 A 
ENDROOT
BRANCH   1  11
HETATM   11  C   UNL     1     -41.886 -50.464  14.709  1.00  0.00     0.157 C 
BRANCH  11  12
HETATM   12  C   UNL     1     -42.011 -48.949  14.578  1.00  0.00     0.196 C 
BRANCH  12  13
HETATM   13  O   UNL     1     -42.395 -48.589  13.255  1.00  0.00    -0.347 OA
BRANCH  13  14
HETATM   14  C   UNL     1     -41.655 -47.663  12.562  1.00  0.00     0.102 A 
HETATM   15  C   UNL     1     -41.634 -47.395  11.180  1.00  0.00     0.101 A 
HETATM   16  C   UNL     1     -40.757 -46.412  10.695  1.00  0.00     0.039 A 
HETATM   17  C   UNL     1     -39.931 -45.695  11.559  1.00  0.00     0.003 A 
HETATM   18  C   UNL     1     -39.962 -45.949  12.925  1.00  0.00     0.003 A 
HETATM   19  C   UNL     1     -40.820 -46.931  13.416  1.00  0.00     0.039 A 
BRANCH  15  20
HETATM   20  O   UNL     1     -42.405 -48.146  10.332  1.00  0.00    -0.353 OA
HETATM   21  C   UNL     1     -43.102 -47.442   9.307  1.00  0.00     0.210 C 
ENDBRANCH  15  20
ENDBRANCH  13  14
ENDBRANCH  12  13
ENDBRANCH  11  12
ENDBRANCH   1  11
BRANCH   2  22
HETATM   22  C   UNL     1     -40.714 -52.219  12.394  1.00  0.00     0.109 C 
HETATM   23  C   UNL     1     -40.212 -50.887  11.814  1.00  0.00     0.054 C 
HETATM   24  C   UNL     1     -39.831 -52.633  13.571  1.00  0.00     0.054 C 
BRANCH  22  25
HETATM   25  O   UNL     1     -40.588 -53.209  11.372  1.00  0.00    -0.383 OA
HETATM   26  H   UNL     1     -41.481 -53.378  11.025  1.00  0.00     0.211 HD
ENDBRANCH  22  25
ENDBRANCH   2  22
TORSDOF 7
ENDMDL
MODEL 8
REMARK VINA RESULT:      -6.0      2.498      4.709
REMARK  7 active torsions:
REMARK  status: ('A' for Active; 'I' for Inactive)
REMARK    1  A    between atoms: O_2  and  C_3 
REMARK    2  A    between atoms: C_8  and  O_9 
REMARK    3  A    between atoms: O_9  and  C_10 
REMARK    4  A    between atoms: C_10  and  C_11 
REMARK    5  A    between atoms: C_11  and  N_12 
REMARK    6  A    between atoms: C_13  and  C_22 
REMARK    7  A    between atoms: C_22  and  O_25 
ROOT
HETATM    1  N   UNL     1     -41.890 -47.070  10.632  1.00  0.00    -0.330 N 
HETATM    2  C   UNL     1     -43.037 -46.458  10.120  1.00  0.00     0.119 A 
HETATM    3  N   UNL     1     -43.021 -45.164  10.383  1.00  0.00    -0.341 N 
ATOM      4  HN  UNL     1     -43.732 -44.480  10.123  1.00  0.00     0.167 HD
HETATM    5  C   UNL     1     -41.872 -44.921  11.070  1.00  0.00     0.060 A 
HETATM    6  C   UNL     1     -41.398 -43.694  11.563  1.00  0.00     0.032 A 
HETATM    7  C   UNL     1     -40.183 -43.657  12.249  1.00  0.00     0.002 A 
HETATM    8  C   UNL     1     -39.458 -44.826  12.448  1.00  0.00     0.002 A 
HETATM    9  C   UNL     1     -39.923 -46.058  11.971  1.00  0.00     0.032 A 
HETATM   10  C   UNL     1     -41.139 -46.090  11.264  1.00  0.00     0.062 A 
ENDROOT
BRANCH   1  11
HETATM   11  C   UNL     1     -41.587 -48.483  10.476  1.00  0.00     0.157 C 
BRANCH  11  12
HETATM   12  C   UNL     1     -41.608 -49.385  11.707  1.00  0.00     0.196 C 
BRANCH  12  13
HETATM   13  O   UNL     1     -40.771 -50.520  11.513  1.00  0.00    -0.347 OA
BRANCH  13  14
HETATM   14  C   UNL     1     -40.961 -51.643  12.279  1.00  0.00     0.102 A 
HETATM   15  C   UNL     1     -40.046 -52.325  13.103  1.00  0.00     0.101 A 
HETATM   16  C   UNL     1     -40.468 -53.486  13.770  1.00  0.00     0.039 A 
HETATM   17  C   UNL     1     -41.775 -53.954  13.640  1.00  0.00     0.003 A 
HETATM   18  C   UNL     1     -42.683 -53.274  12.838  1.00  0.00     0.003 A 
HETATM   19  C   UNL     1     -42.272 -52.127  12.163  1.00  0.00     0.039 A 
BRANCH  15  20
HETATM   20  O   UNL     1     -38.748 -51.891  13.177  1.00  0.00    -0.353 OA
HETATM   21  C   UNL     1     -38.444 -50.948  14.202  1.00  0.00     0.210 C 
ENDBRANCH  15  20
ENDBRANCH  13  14
ENDBRANCH  12  13
ENDBRANCH  11  12
ENDBRANCH   1  11
BRANCH   2  22
HETATM   22  C   UNL     1     -44.153 -47.108   9.318  1.00  0.00     0.109 C 
HETATM   23  C   UNL     1     -45.234 -46.075   8.962  1.00  0.00     0.054 C 
HETATM   24  C   UNL     1     -43.609 -47.745   8.041  1.00  0.00     0.054 C 
BRANCH  22  25
HETATM   25  O   UNL     1     -44.775 -48.130  10.098  1.00  0.00    -0.383 OA
HETATM   26  H   UNL     1     -45.733 -48.070   9.940  1.00  0.00     0.211 HD
ENDBRANCH  22  25
ENDBRANCH   2  22
TORSDOF 7
ENDMDL
MODEL 9
REMARK VINA RESULT:      -5.9      1.631      2.209
REMARK  7 active torsions:
REMARK  status: ('A' for Active; 'I' for Inactive)
REMARK    1  A    between atoms: O_2  and  C_3 
REMARK    2  A    between atoms: C_8  and  O_9 
REMARK    3  A    between atoms: O_9  and  C_10 
REMARK    4  A    between atoms: C_10  and  C_11 
REMARK    5  A    between atoms: C_11  and  N_12 
REMARK    6  A    between atoms: C_13  and  C_22 
REMARK    7  A    between atoms: C_22  and  O_25 
ROOT
HETATM    1  N   UNL     1     -41.084 -49.608  11.727  1.00  0.00    -0.330 N 
HETATM    2  C   UNL     1     -39.721 -49.300  11.684  1.00  0.00     0.119 A 
HETATM    3  N   UNL     1     -39.546 -48.054  11.284  1.00  0.00    -0.341 N 
ATOM      4  HN  UNL     1     -38.655 -47.571  11.166  1.00  0.00     0.167 HD
HETATM    5  C   UNL     1     -40.786 -47.539  11.059  1.00  0.00     0.060 A 
HETATM    6  C   UNL     1     -41.124 -46.246  10.631  1.00  0.00     0.032 A 
HETATM    7  C   UNL     1     -42.470 -45.914  10.458  1.00  0.00     0.002 A 
HETATM    8  C   UNL     1     -43.458 -46.860  10.699  1.00  0.00     0.002 A 
HETATM    9  C   UNL     1     -43.135 -48.157  11.117  1.00  0.00     0.032 A 
HETATM   10  C   UNL     1     -41.780 -48.484  11.308  1.00  0.00     0.062 A 
ENDROOT
BRANCH   1  11
HETATM   11  C   UNL     1     -41.612 -50.889  12.164  1.00  0.00     0.157 C 
BRANCH  11  12
HETATM   12  C   UNL     1     -42.538 -50.934  13.376  1.00  0.00     0.196 C 
BRANCH  12  13
HETATM   13  O   UNL     1     -43.432 -52.038  13.286  1.00  0.00    -0.347 OA
BRANCH  13  14
HETATM   14  C   UNL     1     -44.583 -52.043  14.034  1.00  0.00     0.102 A 
HETATM   15  C   UNL     1     -45.647 -52.965  14.025  1.00  0.00     0.101 A 
HETATM   16  C   UNL     1     -46.747 -52.737  14.865  1.00  0.00     0.039 A 
HETATM   17  C   UNL     1     -46.789 -51.630  15.712  1.00  0.00     0.003 A 
HETATM   18  C   UNL     1     -45.733 -50.727  15.732  1.00  0.00     0.003 A 
HETATM   19  C   UNL     1     -44.640 -50.938  14.893  1.00  0.00     0.039 A 
BRANCH  15  20
HETATM   20  O   UNL     1     -45.624 -54.016  13.146  1.00  0.00    -0.353 OA
HETATM   21  C   UNL     1     -45.499 -55.320  13.709  1.00  0.00     0.210 C 
ENDBRANCH  15  20
ENDBRANCH  13  14
ENDBRANCH  12  13
ENDBRANCH  11  12
ENDBRANCH   1  11
BRANCH   2  22
HETATM   22  C   UNL     1     -38.558 -50.195  12.078  1.00  0.00     0.109 C 
HETATM   23  C   UNL     1     -37.341 -49.927  11.177  1.00  0.00     0.054 C 
HETATM   24  C   UNL     1     -38.173 -49.980  13.540  1.00  0.00     0.054 C 
BRANCH  22  25
HETATM   25  O   UNL     1     -38.925 -51.566  11.908  1.00  0.00    -0.383 OA
HETATM   26  H   UNL     1     -38.781 -52.009  12.762  1.00  0.00     0.211 HD
ENDBRANCH  22  25
ENDBRANCH   2  22
TORSDOF 7
ENDMDL
