MODEL 1
REMARK VINA RESULT:      -5.0      0.000      0.000
REMARK  5 active torsions:
REMARK  status: ('A' for Active; 'I' for Inactive)
REMARK    1  A    between atoms: O_1  and  C_2 
REMARK    2  A    between atoms: C_2  and  C_3 
REMARK    3  A    between atoms: C_3  and  O_4 
REMARK    4  A    between atoms: O_4  and  C_5 
REMARK    5  A    between atoms: N_9  and  C_11 
ROOT
HETATM    1  C   UNL     1     -46.766 -52.236  14.301  1.00  0.00     0.139 C 
HETATM    2  C   UNL     1     -46.743 -51.330  15.536  1.00  0.00     0.035 C 
HETATM    3  C   UNL     1     -45.321 -50.851  15.840  1.00  0.00     0.022 C 
HETATM    4  C   UNL     1     -44.361 -52.031  15.995  1.00  0.00     0.123 C 
HETATM    5  N   UNL     1     -44.416 -52.911  14.823  1.00  0.00    -0.377 N 
HETATM    6  C   UNL     1     -45.764 -53.403  14.486  1.00  0.00     0.155 C 
ENDROOT
BRANCH   5   7
HETATM    7  C   UNL     1     -43.328 -53.075  13.967  1.00  0.00     0.054 A 
HETATM    8  C   UNL     1     -43.068 -52.120  12.966  1.00  0.00     0.048 A 
HETATM    9  C   UNL     1     -41.978 -52.257  12.113  1.00  0.00     0.090 A 
HETATM   10  N   UNL     1     -41.118 -53.287  12.149  1.00  0.00    -0.373 N 
HETATM   11  C   UNL     1     -41.357 -54.204  13.111  1.00  0.00     0.113 A 
ATOM     12  HN  UNL     1     -40.339 -53.371  11.497  1.00  0.00     0.164 HD
HETATM   13  C   UNL     1     -42.404 -54.142  14.032  1.00  0.00     0.075 A 
HETATM   14 CL   UNL     1     -42.377 -55.342  15.283  1.00  0.00    -0.080 Cl
ENDBRANCH   5   7
BRANCH   1  15
HETATM   15  O   UNL     1     -46.488 -51.415  13.153  1.00  0.00    -0.382 OA
BRANCH  15  16
HETATM   16  C   UNL     1     -46.560 -52.118  11.914  1.00  0.00     0.194 C 
BRANCH  16  17
HETATM   17  C   UNL     1     -47.645 -51.507  11.038  1.00  0.00     0.190 C 
BRANCH  17  18
HETATM   18  O   UNL     1     -47.074 -50.530  10.177  1.00  0.00    -0.399 OA
HETATM   19  H   UNL     1     -46.748 -51.002   9.393  1.00  0.00     0.209 HD
ENDBRANCH  17  18
ENDBRANCH  16  17
ENDBRANCH  15  16
ENDBRANCH   1  15
TORSDOF 5
ENDMDL
MODEL 2
REMARK VINA RESULT:      -4.9      3.038      4.400
REMARK  5 active torsions:
REMARK  status: ('A' for Active; 'I' for Inactive)
REMARK    1  A    between atoms: O_1  and  C_2 
REMARK    2  A    between atoms: C_2  and  C_3 
REMARK    3  A    between atoms: C_3  and  O_4 
REMARK    4  A    between atoms: O_4  and  C_5 
REMARK    5  A    between atoms: N_9  and  C_11 
ROOT
HETATM    1  C   UNL     1     -42.205 -54.074  13.202  1.00  0.00     0.139 C 
HETATM    2  C   UNL     1     -42.292 -54.095  14.731  1.00  0.00     0.035 C 
HETATM    3  C   UNL     1     -41.869 -52.750  15.325  1.00  0.00     0.022 C 
HETATM    4  C   UNL     1     -40.471 -52.350  14.851  1.00  0.00     0.123 C 
HETATM    5  N   UNL     1     -40.389 -52.365  13.386  1.00  0.00    -0.377 N 
HETATM    6  C   UNL     1     -40.785 -53.640  12.761  1.00  0.00     0.155 C 
ENDROOT
BRANCH   5   7
HETATM    7  C   UNL     1     -40.184 -51.204  12.642  1.00  0.00     0.054 A 
HETATM    8  C   UNL     1     -41.284 -50.485  12.138  1.00  0.00     0.048 A 
HETATM    9  C   UNL     1     -41.100 -49.315  11.408  1.00  0.00     0.090 A 
HETATM   10  N   UNL     1     -39.898 -48.795  11.109  1.00  0.00    -0.373 N 
HETATM   11  C   UNL     1     -38.839 -49.476  11.595  1.00  0.00     0.113 A 
ATOM     12  HN  UNL     1     -39.794 -47.946  10.554  1.00  0.00     0.164 HD
HETATM   13  C   UNL     1     -38.919 -50.640  12.362  1.00  0.00     0.075 A 
HETATM   14 CL   UNL     1     -37.421 -51.210  13.023  1.00  0.00    -0.080 Cl
ENDBRANCH   5   7
BRANCH   1  15
HETATM   15  O   UNL     1     -43.247 -53.206  12.720  1.00  0.00    -0.382 OA
BRANCH  15  16
HETATM   16  C   UNL     1     -44.548 -53.792  12.768  1.00  0.00     0.194 C 
BRANCH  16  17
HETATM   17  C   UNL     1     -45.603 -52.697  12.847  1.00  0.00     0.190 C 
BRANCH  17  18
HETATM   18  O   UNL     1     -46.355 -52.667  11.640  1.00  0.00    -0.399 OA
HETATM   19  H   UNL     1     -46.356 -51.746  11.332  1.00  0.00     0.209 HD
ENDBRANCH  17  18
ENDBRANCH  16  17
ENDBRANCH  15  16
ENDBRANCH   1  15
TORSDOF 5
ENDMDL
MODEL 3
REMARK VINA RESULT:      -4.7      2.739      4.895
REMARK  5 active torsions:
REMARK  status: ('A' for Active; 'I' for Inactive)
REMARK    1  A    between atoms: O_1  and  C_2 
REMARK    2  A    between atoms: C_2  and  C_3 
REMARK    3  A    between atoms: C_3  and  O_4 
REMARK    4  A    between atoms: O_4  and  C_5 
REMARK    5  A    between atoms: N_9  and  C_11 
ROOT
HETATM    1  C   UNL     1     -40.896 -51.442  13.536  1.00  0.00     0.139 C 
HETATM    2  C   UNL     1     -39.979 -52.645  13.293  1.00  0.00     0.035 C 
HETATM    3  C   UNL     1     -40.794 -53.907  12.998  1.00  0.00     0.022 C 
HETATM    4  C   UNL     1     -41.801 -54.189  14.113  1.00  0.00     0.123 C 
HETATM    5  N   UNL     1     -42.652 -53.019  14.361  1.00  0.00    -0.377 N 
HETATM    6  C   UNL     1     -41.918 -51.775  14.651  1.00  0.00     0.155 C 
ENDROOT
BRANCH   5   7
HETATM    7  C   UNL     1     -44.023 -53.033  14.108  1.00  0.00     0.054 A 
HETATM    8  C   UNL     1     -44.508 -52.711  12.827  1.00  0.00     0.048 A 
HETATM    9  C   UNL     1     -45.871 -52.736  12.551  1.00  0.00     0.090 A 
HETATM   10  N   UNL     1     -46.817 -53.034  13.455  1.00  0.00    -0.373 N 
HETATM   11  C   UNL     1     -46.359 -53.350  14.685  1.00  0.00     0.113 A 
ATOM     12  HN  UNL     1     -47.812 -53.024  13.229  1.00  0.00     0.164 HD
HETATM   13  C   UNL     1     -45.013 -53.384  15.054  1.00  0.00     0.075 A 
HETATM   14 CL   UNL     1     -44.682 -54.005  16.637  1.00  0.00    -0.080 Cl
ENDBRANCH   5   7
BRANCH   1  15
HETATM   15  O   UNL     1     -41.508 -51.102  12.278  1.00  0.00    -0.382 OA
BRANCH  15  16
HETATM   16  C   UNL     1     -41.886 -49.730  12.178  1.00  0.00     0.194 C 
BRANCH  16  17
HETATM   17  C   UNL     1     -41.071 -49.050  11.087  1.00  0.00     0.190 C 
BRANCH  17  18
HETATM   18  O   UNL     1     -40.407 -50.031  10.300  1.00  0.00    -0.399 OA
HETATM   19  H   UNL     1     -40.511 -49.764   9.371  1.00  0.00     0.209 HD
ENDBRANCH  17  18
ENDBRANCH  16  17
ENDBRANCH  15  16
ENDBRANCH   1  15
TORSDOF 5
ENDMDL
MODEL 4
REMARK VINA RESULT:      -4.7      5.757      7.591
REMARK  5 active torsions:
REMARK  status: ('A' for Active; 'I' for Inactive)
REMARK    1  A    between atoms: O_1  and  C_2 
REMARK    2  A    between atoms: C_2  and  C_3 
REMARK    3  A    between atoms: C_3  and  O_4 
REMARK    4  A    between atoms: O_4  and  C_5 
REMARK    5  A    between atoms: N_9  and  C_11 
ROOT
HETATM    1  C   UNL     1     -38.818 -50.322  12.522  1.00  0.00     0.139 C 
HETATM    2  C   UNL     1     -38.239 -49.914  13.881  1.00  0.00     0.035 C 
HETATM    3  C   UNL     1     -39.018 -48.740  14.479  1.00  0.00     0.022 C 
HETATM    4  C   UNL     1     -39.064 -47.555  13.514  1.00  0.00     0.123 C 
HETATM    5  N   UNL     1     -39.588 -47.964  12.206  1.00  0.00    -0.377 N 
HETATM    6  C   UNL     1     -38.873 -49.092  11.582  1.00  0.00     0.155 C 
ENDROOT
BRANCH   5   7
HETATM    7  C   UNL     1     -40.799 -47.484  11.709  1.00  0.00     0.054 A 
HETATM    8  C   UNL     1     -42.012 -48.070  12.118  1.00  0.00     0.048 A 
HETATM    9  C   UNL     1     -43.231 -47.594  11.647  1.00  0.00     0.090 A 
HETATM   10  N   UNL     1     -43.358 -46.584  10.772  1.00  0.00    -0.373 N 
HETATM   11  C   UNL     1     -42.199 -46.014  10.379  1.00  0.00     0.113 A 
ATOM     12  HN  UNL     1     -44.265 -46.271  10.428  1.00  0.00     0.164 HD
HETATM   13  C   UNL     1     -40.930 -46.397  10.816  1.00  0.00     0.075 A 
HETATM   14 CL   UNL     1     -39.621 -45.380  10.309  1.00  0.00    -0.080 Cl
ENDBRANCH   5   7
BRANCH   1  15
HETATM   15  O   UNL     1     -40.104 -50.921  12.761  1.00  0.00    -0.382 OA
BRANCH  15  16
HETATM   16  C   UNL     1     -40.031 -52.215  13.358  1.00  0.00     0.194 C 
BRANCH  16  17
HETATM   17  C   UNL     1     -40.996 -53.161  12.658  1.00  0.00     0.190 C 
BRANCH  17  18
HETATM   18  O   UNL     1     -40.560 -53.392  11.324  1.00  0.00    -0.399 OA
HETATM   19  H   UNL     1     -40.320 -54.332  11.264  1.00  0.00     0.209 HD
ENDBRANCH  17  18
ENDBRANCH  16  17
ENDBRANCH  15  16
ENDBRANCH   1  15
TORSDOF 5
ENDMDL
MODEL 5
REMARK VINA RESULT:      -4.6      3.255      4.593
REMARK  5 active torsions:
REMARK  status: ('A' for Active; 'I' for Inactive)
REMARK    1  A    between atoms: O_1  and  C_2 
REMARK    2  A    between atoms: C_2  and  C_3 
REMARK    3  A    between atoms: C_3  and  O_4 
REMARK    4  A    between atoms: O_4  and  C_5 
REMARK    5  A    between atoms: N_9  and  C_11 
ROOT
HETATM    1  C   UNL     1     -45.520 -53.681  15.787  1.00  0.00     0.139 C 
HETATM    2  C   UNL     1     -46.341 -54.512  14.795  1.00  0.00     0.035 C 
HETATM    3  C   UNL     1     -45.437 -55.176  13.755  1.00  0.00     0.022 C 
HETATM    4  C   UNL     1     -44.570 -54.144  13.033  1.00  0.00     0.123 C 
HETATM    5  N   UNL     1     -43.814 -53.330  13.993  1.00  0.00    -0.377 N 
HETATM    6  C   UNL     1     -44.638 -52.666  15.018  1.00  0.00     0.155 C 
ENDROOT
BRANCH   5   7
HETATM    7  C   UNL     1     -42.423 -53.375  14.069  1.00  0.00     0.054 A 
HETATM    8  C   UNL     1     -41.789 -54.413  14.777  1.00  0.00     0.048 A 
HETATM    9  C   UNL     1     -40.401 -54.485  14.850  1.00  0.00     0.090 A 
HETATM   10  N   UNL     1     -39.570 -53.589  14.293  1.00  0.00    -0.373 N 
HETATM   11  C   UNL     1     -40.172 -52.594  13.607  1.00  0.00     0.113 A 
ATOM     12  HN  UNL     1     -38.557 -53.656  14.381  1.00  0.00     0.164 HD
HETATM   13  C   UNL     1     -41.552 -52.451  13.450  1.00  0.00     0.075 A 
HETATM   14 CL   UNL     1     -42.059 -51.198  12.366  1.00  0.00    -0.080 Cl
ENDBRANCH   5   7
BRANCH   1  15
HETATM   15  O   UNL     1     -44.767 -54.596  16.602  1.00  0.00    -0.382 OA
BRANCH  15  16
HETATM   16  C   UNL     1     -44.712 -54.224  17.979  1.00  0.00     0.194 C 
BRANCH  16  17
HETATM   17  C   UNL     1     -46.097 -54.346  18.600  1.00  0.00     0.190 C 
BRANCH  17  18
HETATM   18  O   UNL     1     -46.511 -55.707  18.590  1.00  0.00    -0.399 OA
HETATM   19  H   UNL     1     -46.653 -55.951  17.660  1.00  0.00     0.209 HD
ENDBRANCH  17  18
ENDBRANCH  16  17
ENDBRANCH  15  16
ENDBRANCH   1  15
TORSDOF 5
ENDMDL
MODEL 6
REMARK VINA RESULT:      -4.6      3.554      5.297
REMARK  5 active torsions:
REMARK  status: ('A' for Active; 'I' for Inactive)
REMARK    1  A    between atoms: O_1  and  C_2 
REMARK    2  A    between atoms: C_2  and  C_3 
REMARK    3  A    between atoms: C_3  and  O_4 
REMARK    4  A    between atoms: O_4  and  C_5 
REMARK    5  A    between atoms: N_9  and  C_11 
ROOT
HETATM    1  C   UNL     1     -40.534 -53.161  15.709  1.00  0.00     0.139 C 
HETATM    2  C   UNL     1     -39.833 -54.375  16.327  1.00  0.00     0.035 C 
HETATM    3  C   UNL     1     -40.728 -55.615  16.271  1.00  0.00     0.022 C 
HETATM    4  C   UNL     1     -42.079 -55.354  16.937  1.00  0.00     0.123 C 
HETATM    5  N   UNL     1     -42.728 -54.170  16.362  1.00  0.00    -0.377 N 
HETATM    6  C   UNL     1     -41.908 -52.945  16.391  1.00  0.00     0.155 C 
ENDROOT
BRANCH   5   7
HETATM    7  C   UNL     1     -43.917 -54.253  15.639  1.00  0.00     0.054 A 
HETATM    8  C   UNL     1     -43.911 -54.759  14.326  1.00  0.00     0.048 A 
HETATM    9  C   UNL     1     -45.089 -54.866  13.595  1.00  0.00     0.090 A 
HETATM   10  N   UNL     1     -46.294 -54.487  14.050  1.00  0.00    -0.373 N 
HETATM   11  C   UNL     1     -46.309 -54.006  15.311  1.00  0.00     0.113 A 
ATOM     12  HN  UNL     1     -47.139 -54.558  13.482  1.00  0.00     0.164 HD
HETATM   13  C   UNL     1     -45.189 -53.887  16.135  1.00  0.00     0.075 A 
HETATM   14 CL   UNL     1     -45.506 -53.421  17.774  1.00  0.00    -0.080 Cl
ENDBRANCH   5   7
BRANCH   1  15
HETATM   15  O   UNL     1     -40.625 -53.387  14.291  1.00  0.00    -0.382 OA
BRANCH  15  16
HETATM   16  C   UNL     1     -40.933 -52.212  13.543  1.00  0.00     0.194 C 
BRANCH  16  17
HETATM   17  C   UNL     1     -41.545 -52.600  12.204  1.00  0.00     0.190 C 
BRANCH  17  18
HETATM   18  O   UNL     1     -40.602 -53.342  11.441  1.00  0.00    -0.399 OA
HETATM   19  H   UNL     1     -39.909 -52.719  11.167  1.00  0.00     0.209 HD
ENDBRANCH  17  18
ENDBRANCH  16  17
ENDBRANCH  15  16
ENDBRANCH   1  15
TORSDOF 5
ENDMDL
MODEL 7
REMARK VINA RESULT:      -4.6      7.534      8.439
REMARK  5 active torsions:
REMARK  status: ('A' for Active; 'I' for Inactive)
REMARK    1  A    between atoms: O_1  and  C_2 
REMARK    2  A    between atoms: C_2  and  C_3 
REMARK    3  A    between atoms: C_3  and  O_4 
REMARK    4  A    between atoms: O_4  and  C_5 
REMARK    5  A    between atoms: N_9  and  C_11 
ROOT
HETATM    1  C   UNL     1     -42.584 -47.633  10.531  1.00  0.00     0.139 C 
HETATM    2  C   UNL     1     -42.951 -48.319  11.851  1.00  0.00     0.035 C 
HETATM    3  C   UNL     1     -43.037 -47.304  12.993  1.00  0.00     0.022 C 
HETATM    4  C   UNL     1     -41.740 -46.505  13.123  1.00  0.00     0.123 C 
HETATM    5  N   UNL     1     -41.379 -45.879  11.846  1.00  0.00    -0.377 N 
HETATM    6  C   UNL     1     -41.282 -46.813  10.709  1.00  0.00     0.155 C 
ENDROOT
BRANCH   5   7
HETATM    7  C   UNL     1     -41.363 -44.496  11.675  1.00  0.00     0.054 A 
HETATM    8  C   UNL     1     -42.505 -43.832  11.187  1.00  0.00     0.048 A 
HETATM    9  C   UNL     1     -42.515 -42.451  11.027  1.00  0.00     0.090 A 
HETATM   10  N   UNL     1     -41.466 -41.654  11.291  1.00  0.00    -0.373 N 
HETATM   11  C   UNL     1     -40.370 -42.283  11.766  1.00  0.00     0.113 A 
ATOM     12  HN  UNL     1     -41.496 -40.646  11.144  1.00  0.00     0.164 HD
HETATM   13  C   UNL     1     -40.270 -43.657  11.990  1.00  0.00     0.075 A 
HETATM   14 CL   UNL     1     -38.823 -44.187  12.783  1.00  0.00    -0.080 Cl
ENDBRANCH   5   7
BRANCH   1  15
HETATM   15  O   UNL     1     -43.713 -46.838  10.126  1.00  0.00    -0.382 OA
BRANCH  15  16
HETATM   16  C   UNL     1     -44.867 -47.609   9.796  1.00  0.00     0.194 C 
BRANCH  16  17
HETATM   17  C   UNL     1     -45.845 -46.756   9.000  1.00  0.00     0.190 C 
BRANCH  17  18
HETATM   18  O   UNL     1     -46.623 -47.586   8.146  1.00  0.00    -0.399 OA
HETATM   19  H   UNL     1     -47.551 -47.321   8.265  1.00  0.00     0.209 HD
ENDBRANCH  17  18
ENDBRANCH  16  17
ENDBRANCH  15  16
ENDBRANCH   1  15
TORSDOF 5
ENDMDL
MODEL 8
REMARK VINA RESULT:      -4.4      6.845      7.569
REMARK  5 active torsions:
REMARK  status: ('A' for Active; 'I' for Inactive)
REMARK    1  A    between atoms: O_1  and  C_2 
REMARK    2  A    between atoms: C_2  and  C_3 
REMARK    3  A    between atoms: C_3  and  O_4 
REMARK    4  A    between atoms: O_4  and  C_5 
REMARK    5  A    between atoms: N_9  and  C_11 
ROOT
HETATM    1  C   UNL     1     -42.122 -45.706  11.332  1.00  0.00     0.139 C 
HETATM    2  C   UNL     1     -41.537 -44.306  11.118  1.00  0.00     0.035 C 
HETATM    3  C   UNL     1     -40.013 -44.321  11.254  1.00  0.00     0.022 C 
HETATM    4  C   UNL     1     -39.582 -44.905  12.600  1.00  0.00     0.123 C 
HETATM    5  N   UNL     1     -40.175 -46.231  12.811  1.00  0.00    -0.377 N 
HETATM    6  C   UNL     1     -41.643 -46.274  12.691  1.00  0.00     0.155 C 
ENDROOT
BRANCH   5   7
HETATM    7  C   UNL     1     -39.399 -47.387  12.881  1.00  0.00     0.054 A 
HETATM    8  C   UNL     1     -39.325 -48.255  11.775  1.00  0.00     0.048 A 
HETATM    9  C   UNL     1     -38.543 -49.404  11.820  1.00  0.00     0.090 A 
HETATM   10  N   UNL     1     -37.832 -49.791  12.892  1.00  0.00    -0.373 N 
HETATM   11  C   UNL     1     -37.894 -48.960  13.954  1.00  0.00     0.113 A 
ATOM     12  HN  UNL     1     -37.284 -50.651  12.903  1.00  0.00     0.164 HD
HETATM   13  C   UNL     1     -38.624 -47.771  13.998  1.00  0.00     0.075 A 
HETATM   14 CL   UNL     1     -38.383 -46.792  15.409  1.00  0.00    -0.080 Cl
ENDBRANCH   5   7
BRANCH   1  15
HETATM   15  O   UNL     1     -41.740 -46.514  10.205  1.00  0.00    -0.382 OA
BRANCH  15  16
HETATM   16  C   UNL     1     -42.719 -47.484   9.837  1.00  0.00     0.194 C 
BRANCH  16  17
HETATM   17  C   UNL     1     -43.508 -46.988   8.633  1.00  0.00     0.190 C 
BRANCH  17  18
HETATM   18  O   UNL     1     -42.708 -46.093   7.869  1.00  0.00    -0.399 OA
HETATM   19  H   UNL     1     -43.274 -45.745   7.160  1.00  0.00     0.209 HD
ENDBRANCH  17  18
ENDBRANCH  16  17
ENDBRANCH  15  16
ENDBRANCH   1  15
TORSDOF 5
ENDMDL
MODEL 9
REMARK VINA RESULT:      -4.4      2.672      3.984
REMARK  5 active torsions:
REMARK  status: ('A' for Active; 'I' for Inactive)
REMARK    1  A    between atoms: O_1  and  C_2 
REMARK    2  A    between atoms: C_2  and  C_3 
REMARK    3  A    between atoms: C_3  and  O_4 
REMARK    4  A    between atoms: O_4  and  C_5 
REMARK    5  A    between atoms: N_9  and  C_11 
ROOT
HETATM    1  C   UNL     1     -45.558 -52.988  13.052  1.00  0.00     0.139 C 
HETATM    2  C   UNL     1     -46.648 -51.927  13.237  1.00  0.00     0.035 C 
HETATM    3  C   UNL     1     -46.578 -51.305  14.633  1.00  0.00     0.022 C 
HETATM    4  C   UNL     1     -46.651 -52.376  15.722  1.00  0.00     0.123 C 
HETATM    5  N   UNL     1     -45.626 -53.405  15.517  1.00  0.00    -0.377 N 
HETATM    6  C   UNL     1     -45.649 -54.039  14.186  1.00  0.00     0.155 C 
ENDROOT
BRANCH   5   7
HETATM    7  C   UNL     1     -44.576 -53.596  16.414  1.00  0.00     0.054 A 
HETATM    8  C   UNL     1     -43.280 -53.153  16.088  1.00  0.00     0.048 A 
HETATM    9  C   UNL     1     -42.224 -53.318  16.978  1.00  0.00     0.090 A 
HETATM   10  N   UNL     1     -42.333 -53.916  18.175  1.00  0.00    -0.373 N 
HETATM   11  C   UNL     1     -43.575 -54.338  18.497  1.00  0.00     0.113 A 
ATOM     12  HN  UNL     1     -41.536 -54.042  18.798  1.00  0.00     0.164 HD
HETATM   13  C   UNL     1     -44.704 -54.192  17.689  1.00  0.00     0.075 A 
HETATM   14 CL   UNL     1     -46.212 -54.646  18.413  1.00  0.00    -0.080 Cl
ENDBRANCH   5   7
BRANCH   1  15
HETATM   15  O   UNL     1     -44.293 -52.306  12.999  1.00  0.00    -0.382 OA
BRANCH  15  16
HETATM   16  C   UNL     1     -43.265 -53.056  12.353  1.00  0.00     0.194 C 
BRANCH  16  17
HETATM   17  C   UNL     1     -41.988 -52.230  12.290  1.00  0.00     0.190 C 
BRANCH  17  18
HETATM   18  O   UNL     1     -41.289 -52.516  11.085  1.00  0.00    -0.399 OA
HETATM   19  H   UNL     1     -41.280 -51.696  10.563  1.00  0.00     0.209 HD
ENDBRANCH  17  18
ENDBRANCH  16  17
ENDBRANCH  15  16
ENDBRANCH   1  15
TORSDOF 5
ENDMDL
