MODEL 1
REMARK VINA RESULT:      -5.7      0.000      0.000
REMARK  4 active torsions:
REMARK  status: ('A' for Active; 'I' for Inactive)
REMARK       I    between atoms: C_2  and  N_3 
REMARK       I    between atoms: C_2  and  N_7 
REMARK    1  A    between atoms: N_3  and  C_4 
REMARK    2  A    between atoms: N_7  and  C_8 
REMARK    3  A    between atoms: N_13  and  C_14 
REMARK    4  A    between atoms: C_14  and  C_15 
ROOT
HETATM    1  C   UNL     1     -42.231 -47.130  10.413  1.00  0.00     0.127 A 
HETATM    2  C   UNL     1     -41.651 -46.031  11.009  1.00  0.00     0.068 A 
HETATM    3  C   UNL     1     -42.456 -44.936  10.649  1.00  0.00     0.111 A 
HETATM    4  N   UNL     1     -43.472 -45.293   9.864  1.00  0.00    -0.308 N 
ATOM      5  HN  UNL     1     -44.197 -44.698   9.465  1.00  0.00     0.186 HD
HETATM    6  N   UNL     1     -43.316 -46.627   9.720  1.00  0.00    -0.277 N 
ENDROOT
BRANCH   1   7
HETATM    7  N   UNL     1     -41.805 -48.461  10.473  1.00  0.00    -0.293 N 
HETATM    8  C   UNL     1     -42.017 -49.282  11.615  1.00  0.00     0.322 C 
HETATM    9  O   UNL     1     -42.659 -48.907  12.582  1.00  0.00    -0.247 OA
HETATM   10  N   UNL     1     -41.449 -50.518  11.465  1.00  0.00    -0.338 N 
HETATM   11  H   UNL     1     -40.920 -50.760  10.644  1.00  0.00     0.164 HD
HETATM   12  H   UNL     1     -41.376 -48.862   9.656  1.00  0.00     0.172 HD
BRANCH  10  13
HETATM   13  C   UNL     1     -41.610 -51.516  12.483  1.00  0.00     0.086 A 
HETATM   14  C   UNL     1     -41.141 -52.927  12.254  1.00  0.00     0.027 A 
HETATM   15  C   UNL     1     -42.609 -52.630  12.345  1.00  0.00     0.027 A 
ENDBRANCH  10  13
ENDBRANCH   1   7
BRANCH   6  16
HETATM   16  C   UNL     1     -44.235 -47.345   8.849  1.00  0.00     0.155 C 
BRANCH  16  17
HETATM   17  C   UNL     1     -45.538 -47.670   9.513  1.00  0.00     0.005 A 
HETATM   18  C   UNL     1     -46.639 -48.450   8.834  1.00  0.00     0.007 A 
HETATM   19  C   UNL     1     -46.797 -46.973   9.053  1.00  0.00     0.007 A 
ENDBRANCH  16  17
ENDBRANCH   6  16
TORSDOF 4
ENDMDL
MODEL 2
REMARK VINA RESULT:      -5.5      2.204      6.376
REMARK  4 active torsions:
REMARK  status: ('A' for Active; 'I' for Inactive)
REMARK       I    between atoms: C_2  and  N_3 
REMARK       I    between atoms: C_2  and  N_7 
REMARK    1  A    between atoms: N_3  and  C_4 
REMARK    2  A    between atoms: N_7  and  C_8 
REMARK    3  A    between atoms: N_13  and  C_14 
REMARK    4  A    between atoms: C_14  and  C_15 
ROOT
HETATM    1  C   UNL     1     -39.410 -50.175  11.482  1.00  0.00     0.127 A 
HETATM    2  C   UNL     1     -38.081 -49.811  11.478  1.00  0.00     0.068 A 
HETATM    3  C   UNL     1     -37.495 -50.503  12.552  1.00  0.00     0.111 A 
HETATM    4  N   UNL     1     -38.380 -51.247  13.215  1.00  0.00    -0.308 N 
ATOM      5  HN  UNL     1     -38.218 -51.842  14.027  1.00  0.00     0.186 HD
HETATM    6  N   UNL     1     -39.541 -51.030  12.560  1.00  0.00    -0.277 N 
ENDROOT
BRANCH   1   7
HETATM    7  N   UNL     1     -40.415 -49.757  10.603  1.00  0.00    -0.293 N 
HETATM    8  C   UNL     1     -41.256 -48.642  10.877  1.00  0.00     0.322 C 
HETATM    9  O   UNL     1     -41.099 -47.927  11.852  1.00  0.00    -0.247 OA
HETATM   10  N   UNL     1     -42.207 -48.472   9.908  1.00  0.00    -0.338 N 
HETATM   11  H   UNL     1     -42.290 -49.108   9.132  1.00  0.00     0.164 HD
HETATM   12  H   UNL     1     -40.511 -50.236   9.724  1.00  0.00     0.172 HD
BRANCH  10  13
HETATM   13  C   UNL     1     -43.111 -47.360   9.969  1.00  0.00     0.086 A 
HETATM   14  C   UNL     1     -44.449 -47.421   9.281  1.00  0.00     0.027 A 
HETATM   15  C   UNL     1     -43.383 -46.498   8.767  1.00  0.00     0.027 A 
ENDBRANCH  10  13
ENDBRANCH   1   7
BRANCH   6  16
HETATM   16  C   UNL     1     -40.755 -51.650  13.071  1.00  0.00     0.155 C 
BRANCH  16  17
HETATM   17  C   UNL     1     -40.955 -53.047  12.569  1.00  0.00     0.005 A 
HETATM   18  C   UNL     1     -42.023 -53.972  13.102  1.00  0.00     0.007 A 
HETATM   19  C   UNL     1     -40.585 -54.212  13.457  1.00  0.00     0.007 A 
ENDBRANCH  16  17
ENDBRANCH   6  16
TORSDOF 4
ENDMDL
MODEL 3
REMARK VINA RESULT:      -5.4      2.583      5.852
REMARK  4 active torsions:
REMARK  status: ('A' for Active; 'I' for Inactive)
REMARK       I    between atoms: C_2  and  N_3 
REMARK       I    between atoms: C_2  and  N_7 
REMARK    1  A    between atoms: N_3  and  C_4 
REMARK    2  A    between atoms: N_7  and  C_8 
REMARK    3  A    between atoms: N_13  and  C_14 
REMARK    4  A    between atoms: C_14  and  C_15 
ROOT
HETATM    1  C   UNL     1     -42.535 -46.577  10.930  1.00  0.00     0.127 A 
HETATM    2  C   UNL     1     -41.482 -47.295  11.456  1.00  0.00     0.068 A 
HETATM    3  C   UNL     1     -41.325 -48.408  10.613  1.00  0.00     0.111 A 
HETATM    4  N   UNL     1     -42.218 -48.422   9.624  1.00  0.00    -0.308 N 
ATOM      5  HN  UNL     1     -42.323 -49.113   8.881  1.00  0.00     0.186 HD
HETATM    6  N   UNL     1     -42.954 -47.310   9.837  1.00  0.00    -0.277 N 
ENDROOT
BRANCH   1   7
HETATM    7  N   UNL     1     -43.079 -45.380  11.409  1.00  0.00    -0.293 N 
HETATM    8  C   UNL     1     -42.489 -44.112  11.148  1.00  0.00     0.322 C 
HETATM    9  O   UNL     1     -41.521 -43.978  10.419  1.00  0.00    -0.247 OA
HETATM   10  N   UNL     1     -43.159 -43.100  11.780  1.00  0.00    -0.338 N 
HETATM   11  H   UNL     1     -43.947 -43.282  12.380  1.00  0.00     0.164 HD
HETATM   12  H   UNL     1     -43.947 -45.420  11.916  1.00  0.00     0.172 HD
BRANCH  10  13
HETATM   13  C   UNL     1     -42.757 -41.736  11.588  1.00  0.00     0.086 A 
HETATM   14  C   UNL     1     -42.506 -40.837  12.768  1.00  0.00     0.027 A 
HETATM   15  C   UNL     1     -43.688 -40.592  11.877  1.00  0.00     0.027 A 
ENDBRANCH  10  13
ENDBRANCH   1   7
BRANCH   6  16
HETATM   16  C   UNL     1     -44.086 -47.046   8.961  1.00  0.00     0.155 C 
BRANCH  16  17
HETATM   17  C   UNL     1     -45.383 -47.558   9.509  1.00  0.00     0.005 A 
HETATM   18  C   UNL     1     -46.380 -48.336   8.684  1.00  0.00     0.007 A 
HETATM   19  C   UNL     1     -46.677 -46.916   9.069  1.00  0.00     0.007 A 
ENDBRANCH  16  17
ENDBRANCH   6  16
TORSDOF 4
ENDMDL
MODEL 4
REMARK VINA RESULT:      -5.3     20.994     22.568
REMARK  4 active torsions:
REMARK  status: ('A' for Active; 'I' for Inactive)
REMARK       I    between atoms: C_2  and  N_3 
REMARK       I    between atoms: C_2  and  N_7 
REMARK    1  A    between atoms: N_3  and  C_4 
REMARK    2  A    between atoms: N_7  and  C_8 
REMARK    3  A    between atoms: N_13  and  C_14 
REMARK    4  A    between atoms: C_14  and  C_15 
ROOT
HETATM    1  C   UNL     1     -26.062 -62.341  16.916  1.00  0.00     0.127 A 
HETATM    2  C   UNL     1     -25.455 -62.710  18.097  1.00  0.00     0.068 A 
HETATM    3  C   UNL     1     -25.883 -64.025  18.348  1.00  0.00     0.111 A 
HETATM    4  N   UNL     1     -26.721 -64.470  17.412  1.00  0.00    -0.308 N 
ATOM      5  HN  UNL     1     -27.174 -65.382  17.356  1.00  0.00     0.186 HD
HETATM    6  N   UNL     1     -26.828 -63.432  16.554  1.00  0.00    -0.277 N 
ENDROOT
BRANCH   1   7
HETATM    7  N   UNL     1     -25.950 -61.121  16.240  1.00  0.00    -0.293 N 
HETATM    8  C   UNL     1     -25.089 -60.941  15.122  1.00  0.00     0.322 C 
HETATM    9  O   UNL     1     -24.458 -61.859  14.627  1.00  0.00    -0.247 OA
HETATM   10  N   UNL     1     -25.096 -59.647  14.678  1.00  0.00    -0.338 N 
HETATM   11  H   UNL     1     -25.632 -58.932  15.142  1.00  0.00     0.164 HD
HETATM   12  H   UNL     1     -26.539 -60.359  16.531  1.00  0.00     0.172 HD
BRANCH  10  13
HETATM   13  C   UNL     1     -24.342 -59.277  13.516  1.00  0.00     0.086 A 
HETATM   14  C   UNL     1     -24.507 -57.916  12.894  1.00  0.00     0.027 A 
HETATM   15  C   UNL     1     -24.989 -59.136  12.166  1.00  0.00     0.027 A 
ENDBRANCH  10  13
ENDBRANCH   1   7
BRANCH   6  16
HETATM   16  C   UNL     1     -27.738 -63.555  15.425  1.00  0.00     0.155 C 
BRANCH  16  17
HETATM   17  C   UNL     1     -29.023 -62.810  15.624  1.00  0.00     0.005 A 
HETATM   18  C   UNL     1     -29.909 -63.000  16.832  1.00  0.00     0.007 A 
HETATM   19  C   UNL     1     -30.334 -63.552  15.502  1.00  0.00     0.007 A 
ENDBRANCH  16  17
ENDBRANCH   6  16
TORSDOF 4
ENDMDL
MODEL 5
REMARK VINA RESULT:      -5.3      4.870      7.234
REMARK  4 active torsions:
REMARK  status: ('A' for Active; 'I' for Inactive)
REMARK       I    between atoms: C_2  and  N_3 
REMARK       I    between atoms: C_2  and  N_7 
REMARK    1  A    between atoms: N_3  and  C_4 
REMARK    2  A    between atoms: N_7  and  C_8 
REMARK    3  A    between atoms: N_13  and  C_14 
REMARK    4  A    between atoms: C_14  and  C_15 
ROOT
HETATM    1  C   UNL     1     -40.969 -53.272  12.986  1.00  0.00     0.127 A 
HETATM    2  C   UNL     1     -40.558 -54.459  13.553  1.00  0.00     0.068 A 
HETATM    3  C   UNL     1     -39.286 -54.202  14.092  1.00  0.00     0.111 A 
HETATM    4  N   UNL     1     -38.891 -52.948  13.875  1.00  0.00    -0.308 N 
ATOM      5  HN  UNL     1     -38.016 -52.506  14.158  1.00  0.00     0.186 HD
HETATM    6  N   UNL     1     -39.919 -52.398  13.193  1.00  0.00    -0.277 N 
ENDROOT
BRANCH   1   7
HETATM    7  N   UNL     1     -42.173 -53.011  12.324  1.00  0.00    -0.293 N 
HETATM    8  C   UNL     1     -43.429 -53.002  12.993  1.00  0.00     0.322 C 
HETATM    9  O   UNL     1     -43.528 -53.137  14.201  1.00  0.00    -0.247 OA
HETATM   10  N   UNL     1     -44.466 -52.795  12.126  1.00  0.00    -0.338 N 
HETATM   11  H   UNL     1     -44.316 -52.704  11.134  1.00  0.00     0.164 HD
HETATM   12  H   UNL     1     -42.139 -52.773  11.347  1.00  0.00     0.172 HD
BRANCH  10  13
HETATM   13  C   UNL     1     -45.810 -52.687  12.617  1.00  0.00     0.086 A 
HETATM   14  C   UNL     1     -46.808 -51.793  11.931  1.00  0.00     0.027 A 
HETATM   15  C   UNL     1     -46.302 -51.441  13.299  1.00  0.00     0.027 A 
ENDBRANCH  10  13
ENDBRANCH   1   7
BRANCH   6  16
HETATM   16  C   UNL     1     -39.790 -51.025  12.727  1.00  0.00     0.155 C 
BRANCH  16  17
HETATM   17  C   UNL     1     -38.386 -50.508  12.809  1.00  0.00     0.005 A 
HETATM   18  C   UNL     1     -38.030 -49.052  12.623  1.00  0.00     0.007 A 
HETATM   19  C   UNL     1     -37.694 -50.045  11.548  1.00  0.00     0.007 A 
ENDBRANCH  16  17
ENDBRANCH   6  16
TORSDOF 4
ENDMDL
MODEL 6
REMARK VINA RESULT:      -5.1      4.670      6.547
REMARK  4 active torsions:
REMARK  status: ('A' for Active; 'I' for Inactive)
REMARK       I    between atoms: C_2  and  N_3 
REMARK       I    between atoms: C_2  and  N_7 
REMARK    1  A    between atoms: N_3  and  C_4 
REMARK    2  A    between atoms: N_7  and  C_8 
REMARK    3  A    between atoms: N_13  and  C_14 
REMARK    4  A    between atoms: C_14  and  C_15 
ROOT
HETATM    1  C   UNL     1     -42.101 -53.800  13.427  1.00  0.00     0.127 A 
HETATM    2  C   UNL     1     -41.848 -54.606  14.516  1.00  0.00     0.068 A 
HETATM    3  C   UNL     1     -43.107 -55.024  14.979  1.00  0.00     0.111 A 
HETATM    4  N   UNL     1     -44.104 -54.514  14.257  1.00  0.00    -0.308 N 
ATOM      5  HN  UNL     1     -45.107 -54.657  14.380  1.00  0.00     0.186 HD
HETATM    6  N   UNL     1     -43.478 -53.764  13.325  1.00  0.00    -0.277 N 
ENDROOT
BRANCH   1   7
HETATM    7  N   UNL     1     -41.172 -53.141  12.615  1.00  0.00    -0.293 N 
HETATM    8  C   UNL     1     -40.631 -51.868  12.947  1.00  0.00     0.322 C 
HETATM    9  O   UNL     1     -40.876 -51.307  14.001  1.00  0.00    -0.247 OA
HETATM   10  N   UNL     1     -39.801 -51.396  11.966  1.00  0.00    -0.338 N 
HETATM   11  H   UNL     1     -39.651 -51.905  11.111  1.00  0.00     0.164 HD
HETATM   12  H   UNL     1     -40.841 -53.612  11.790  1.00  0.00     0.172 HD
BRANCH  10  13
HETATM   13  C   UNL     1     -39.105 -50.155  12.143  1.00  0.00     0.086 A 
HETATM   14  C   UNL     1     -37.825 -49.881  11.401  1.00  0.00     0.027 A 
HETATM   15  C   UNL     1     -37.801 -50.081  12.887  1.00  0.00     0.027 A 
ENDBRANCH  10  13
ENDBRANCH   1   7
BRANCH   6  16
HETATM   16  C   UNL     1     -44.289 -52.995  12.392  1.00  0.00     0.155 C 
BRANCH  16  17
HETATM   17  C   UNL     1     -45.702 -52.813  12.854  1.00  0.00     0.005 A 
HETATM   18  C   UNL     1     -46.694 -51.917  12.151  1.00  0.00     0.007 A 
HETATM   19  C   UNL     1     -46.115 -51.498  13.471  1.00  0.00     0.007 A 
ENDBRANCH  16  17
ENDBRANCH   6  16
TORSDOF 4
ENDMDL
MODEL 7
REMARK VINA RESULT:      -5.1      3.083      5.123
REMARK  4 active torsions:
REMARK  status: ('A' for Active; 'I' for Inactive)
REMARK       I    between atoms: C_2  and  N_3 
REMARK       I    between atoms: C_2  and  N_7 
REMARK    1  A    between atoms: N_3  and  C_4 
REMARK    2  A    between atoms: N_7  and  C_8 
REMARK    3  A    between atoms: N_13  and  C_14 
REMARK    4  A    between atoms: C_14  and  C_15 
ROOT
HETATM    1  C   UNL     1     -41.054 -48.981  11.349  1.00  0.00     0.127 A 
HETATM    2  C   UNL     1     -41.540 -47.934  10.596  1.00  0.00     0.068 A 
HETATM    3  C   UNL     1     -40.721 -46.834  10.904  1.00  0.00     0.111 A 
HETATM    4  N   UNL     1     -39.786 -47.138  11.803  1.00  0.00    -0.308 N 
ATOM      5  HN  UNL     1     -39.070 -46.527  12.196  1.00  0.00     0.186 HD
HETATM    6  N   UNL     1     -40.007 -48.442  12.073  1.00  0.00    -0.277 N 
ENDROOT
BRANCH   1   7
HETATM    7  N   UNL     1     -41.529 -50.296  11.394  1.00  0.00    -0.293 N 
HETATM    8  C   UNL     1     -42.463 -50.740  12.370  1.00  0.00     0.322 C 
HETATM    9  O   UNL     1     -42.976 -49.984  13.178  1.00  0.00    -0.247 OA
HETATM   10  N   UNL     1     -42.720 -52.079  12.256  1.00  0.00    -0.338 N 
HETATM   11  H   UNL     1     -42.252 -52.651  11.573  1.00  0.00     0.164 HD
HETATM   12  H   UNL     1     -41.231 -50.935  10.676  1.00  0.00     0.172 HD
BRANCH  10  13
HETATM   13  C   UNL     1     -43.689 -52.705  13.109  1.00  0.00     0.086 A 
HETATM   14  C   UNL     1     -44.210 -54.082  12.797  1.00  0.00     0.027 A 
HETATM   15  C   UNL     1     -45.117 -52.893  12.678  1.00  0.00     0.027 A 
ENDBRANCH  10  13
ENDBRANCH   1   7
BRANCH   6  16
HETATM   16  C   UNL     1     -39.190 -49.092  13.087  1.00  0.00     0.155 C 
BRANCH  16  17
HETATM   17  C   UNL     1     -37.799 -49.389  12.616  1.00  0.00     0.005 A 
HETATM   18  C   UNL     1     -37.491 -49.949  11.248  1.00  0.00     0.007 A 
HETATM   19  C   UNL     1     -37.362 -50.826  12.459  1.00  0.00     0.007 A 
ENDBRANCH  16  17
ENDBRANCH   6  16
TORSDOF 4
ENDMDL
MODEL 8
REMARK VINA RESULT:      -5.0      2.483      6.195
REMARK  4 active torsions:
REMARK  status: ('A' for Active; 'I' for Inactive)
REMARK       I    between atoms: C_2  and  N_3 
REMARK       I    between atoms: C_2  and  N_7 
REMARK    1  A    between atoms: N_3  and  C_4 
REMARK    2  A    between atoms: N_7  and  C_8 
REMARK    3  A    between atoms: N_13  and  C_14 
REMARK    4  A    between atoms: C_14  and  C_15 
ROOT
HETATM    1  C   UNL     1     -41.985 -52.667  12.672  1.00  0.00     0.127 A 
HETATM    2  C   UNL     1     -40.983 -53.231  13.431  1.00  0.00     0.068 A 
HETATM    3  C   UNL     1     -41.586 -54.294  14.126  1.00  0.00     0.111 A 
HETATM    4  N   UNL     1     -42.886 -54.401  13.853  1.00  0.00    -0.308 N 
ATOM      5  HN  UNL     1     -43.551 -55.081  14.220  1.00  0.00     0.186 HD
HETATM    6  N   UNL     1     -43.117 -53.399  12.977  1.00  0.00    -0.277 N 
ENDROOT
BRANCH   1   7
HETATM    7  N   UNL     1     -41.889 -51.576  11.802  1.00  0.00    -0.293 N 
HETATM    8  C   UNL     1     -42.102 -50.235  12.227  1.00  0.00     0.322 C 
HETATM    9  O   UNL     1     -42.297 -49.941  13.394  1.00  0.00    -0.247 OA
HETATM   10  N   UNL     1     -42.025 -49.353  11.184  1.00  0.00    -0.338 N 
HETATM   11  H   UNL     1     -41.873 -49.663  10.239  1.00  0.00     0.164 HD
HETATM   12  H   UNL     1     -41.611 -51.748  10.850  1.00  0.00     0.172 HD
BRANCH  10  13
HETATM   13  C   UNL     1     -42.146 -47.943  11.419  1.00  0.00     0.086 A 
HETATM   14  C   UNL     1     -43.351 -47.184  10.930  1.00  0.00     0.027 A 
HETATM   15  C   UNL     1     -42.008 -46.942  10.306  1.00  0.00     0.027 A 
ENDBRANCH  10  13
ENDBRANCH   1   7
BRANCH   6  16
HETATM   16  C   UNL     1     -44.479 -53.180  12.513  1.00  0.00     0.155 C 
BRANCH  16  17
HETATM   17  C   UNL     1     -45.177 -52.076  13.248  1.00  0.00     0.005 A 
HETATM   18  C   UNL     1     -46.463 -52.278  14.014  1.00  0.00     0.007 A 
HETATM   19  C   UNL     1     -46.482 -51.539  12.708  1.00  0.00     0.007 A 
ENDBRANCH  16  17
ENDBRANCH   6  16
TORSDOF 4
ENDMDL
MODEL 9
REMARK VINA RESULT:      -4.9      2.735      4.044
REMARK  4 active torsions:
REMARK  status: ('A' for Active; 'I' for Inactive)
REMARK       I    between atoms: C_2  and  N_3 
REMARK       I    between atoms: C_2  and  N_7 
REMARK    1  A    between atoms: N_3  and  C_4 
REMARK    2  A    between atoms: N_7  and  C_8 
REMARK    3  A    between atoms: N_13  and  C_14 
REMARK    4  A    between atoms: C_14  and  C_15 
ROOT
HETATM    1  C   UNL     1     -40.210 -50.290  11.511  1.00  0.00     0.127 A 
HETATM    2  C   UNL     1     -38.891 -50.388  11.902  1.00  0.00     0.068 A 
HETATM    3  C   UNL     1     -38.376 -49.082  11.828  1.00  0.00     0.111 A 
HETATM    4  N   UNL     1     -39.285 -48.205  11.405  1.00  0.00    -0.308 N 
ATOM      5  HN  UNL     1     -39.172 -47.201  11.264  1.00  0.00     0.186 HD
HETATM    6  N   UNL     1     -40.391 -48.955  11.206  1.00  0.00    -0.277 N 
ENDROOT
BRANCH   1   7
HETATM    7  N   UNL     1     -41.154 -51.318  11.420  1.00  0.00    -0.293 N 
HETATM    8  C   UNL     1     -42.117 -51.566  12.437  1.00  0.00     0.322 C 
HETATM    9  O   UNL     1     -42.238 -50.847  13.414  1.00  0.00    -0.247 OA
HETATM   10  N   UNL     1     -42.882 -52.665  12.156  1.00  0.00    -0.338 N 
HETATM   11  H   UNL     1     -42.722 -53.225  11.335  1.00  0.00     0.164 HD
HETATM   12  H   UNL     1     -41.180 -51.869  10.578  1.00  0.00     0.172 HD
BRANCH  10  13
HETATM   13  C   UNL     1     -43.955 -53.042  13.030  1.00  0.00     0.086 A 
HETATM   14  C   UNL     1     -44.728 -54.312  12.792  1.00  0.00     0.027 A 
HETATM   15  C   UNL     1     -45.391 -52.982  12.588  1.00  0.00     0.027 A 
ENDBRANCH  10  13
ENDBRANCH   1   7
BRANCH   6  16
HETATM   16  C   UNL     1     -41.580 -48.312  10.667  1.00  0.00     0.155 C 
BRANCH  16  17
HETATM   17  C   UNL     1     -41.485 -46.816  10.658  1.00  0.00     0.005 A 
HETATM   18  C   UNL     1     -42.385 -45.926  11.481  1.00  0.00     0.007 A 
HETATM   19  C   UNL     1     -42.576 -46.010   9.995  1.00  0.00     0.007 A 
ENDBRANCH  16  17
ENDBRANCH   6  16
TORSDOF 4
ENDMDL
