MODEL 1
REMARK VINA RESULT:      -5.4      0.000      0.000
REMARK  7 active torsions:
REMARK  status: ('A' for Active; 'I' for Inactive)
REMARK    1  A    between atoms: C_2  and  C_5 
REMARK    2  A    between atoms: C_5  and  N_6 
REMARK       I    between atoms: N_6  and  C_7 
REMARK    3  A    between atoms: C_7  and  C_9 
REMARK    4  A    between atoms: C_9  and  N_10 
REMARK    5  A    between atoms: N_10  and  C_11 
REMARK    6  A    between atoms: C_11  and  C_12 
REMARK    7  A    between atoms: C_12  and  N_13 
ROOT
HETATM    1  C   UNL     1     -42.531 -48.415  11.781  1.00  0.00     0.371 C 
ENDROOT
BRANCH   1   2
HETATM    2  C   UNL     1     -43.136 -47.793  10.519  1.00  0.00     0.246 C 
HETATM    3  N   UNL     1     -44.486 -48.022  10.374  1.00  0.00    -0.351 N 
HETATM    4  H   UNL     1     -44.862 -48.783  10.939  1.00  0.00     0.162 HD
HETATM    5  O   UNL     1     -42.493 -47.092   9.747  1.00  0.00    -0.272 OA
BRANCH   3   6
HETATM    6  C   UNL     1     -45.204 -47.540   9.197  1.00  0.00     0.240 C 
BRANCH   6   7
HETATM    7  C   UNL     1     -46.528 -48.246   8.876  1.00  0.00     0.403 C 
HETATM    8  F   UNL     1     -47.591 -47.414   8.970  1.00  0.00    -0.169 F 
HETATM    9  F   UNL     1     -46.748 -49.302   9.685  1.00  0.00    -0.169 F 
HETATM   10  F   UNL     1     -46.507 -48.713   7.602  1.00  0.00    -0.169 F 
ENDBRANCH   6   7
ENDBRANCH   3   6
ENDBRANCH   1   2
BRANCH   1  11
HETATM   11  N   UNL     1     -41.921 -49.732  11.469  1.00  0.00     0.093 N 
HETATM   12  H   UNL     1     -40.905 -49.594  11.456  1.00  0.00     0.316 HD
BRANCH  11  13
HETATM   13  C   UNL     1     -42.210 -50.709  12.542  1.00  0.00     0.291 C 
BRANCH  13  14
HETATM   14  C   UNL     1     -43.361 -50.304  13.470  1.00  0.00     0.178 C 
BRANCH  14  15
HETATM   15  N   UNL     1     -44.509 -51.182  13.352  1.00  0.00    -0.302 N 
HETATM   16  C   UNL     1     -45.619 -51.192  14.148  1.00  0.00     0.111 A 
HETATM   17  C   UNL     1     -46.390 -52.244  13.709  1.00  0.00     0.037 A 
HETATM   18  C   UNL     1     -45.656 -52.807  12.650  1.00  0.00     0.108 A 
HETATM   19  N   UNL     1     -44.505 -52.166  12.431  1.00  0.00    -0.310 N 
ATOM     20  HN  UNL     1     -43.792 -52.372  11.733  1.00  0.00     0.186 HD
ENDBRANCH  14  15
ENDBRANCH  13  14
ENDBRANCH  11  13
ENDBRANCH   1  11
TORSDOF 7
ENDMDL
MODEL 2
REMARK VINA RESULT:      -5.4      4.378      6.556
REMARK  7 active torsions:
REMARK  status: ('A' for Active; 'I' for Inactive)
REMARK    1  A    between atoms: C_2  and  C_5 
REMARK    2  A    between atoms: C_5  and  N_6 
REMARK       I    between atoms: N_6  and  C_7 
REMARK    3  A    between atoms: C_7  and  C_9 
REMARK    4  A    between atoms: C_9  and  N_10 
REMARK    5  A    between atoms: N_10  and  C_11 
REMARK    6  A    between atoms: C_11  and  C_12 
REMARK    7  A    between atoms: C_12  and  N_13 
ROOT
HETATM    1  C   UNL     1     -43.264 -53.583  12.774  1.00  0.00     0.371 C 
ENDROOT
BRANCH   1   2
HETATM    2  C   UNL     1     -44.732 -53.327  13.124  1.00  0.00     0.246 C 
HETATM    3  N   UNL     1     -44.969 -53.179  14.472  1.00  0.00    -0.351 N 
HETATM    4  H   UNL     1     -44.231 -53.524  15.085  1.00  0.00     0.162 HD
HETATM    5  O   UNL     1     -45.606 -53.191  12.276  1.00  0.00    -0.272 OA
BRANCH   3   6
HETATM    6  C   UNL     1     -46.326 -52.980  14.976  1.00  0.00     0.240 C 
BRANCH   6   7
HETATM    7  C   UNL     1     -46.784 -51.524  15.129  1.00  0.00     0.403 C 
HETATM    8  F   UNL     1     -47.203 -50.990  13.959  1.00  0.00    -0.169 F 
HETATM    9  F   UNL     1     -45.809 -50.736  15.626  1.00  0.00    -0.169 F 
HETATM   10  F   UNL     1     -47.833 -51.456  15.988  1.00  0.00    -0.169 F 
ENDBRANCH   6   7
ENDBRANCH   3   6
ENDBRANCH   1   2
BRANCH   1  11
HETATM   11  N   UNL     1     -42.782 -52.577  11.795  1.00  0.00     0.093 N 
HETATM   12  H   UNL     1     -43.254 -51.694  12.017  1.00  0.00     0.316 HD
BRANCH  11  13
HETATM   13  C   UNL     1     -41.329 -52.342  11.959  1.00  0.00     0.291 C 
BRANCH  13  14
HETATM   14  C   UNL     1     -40.935 -50.862  12.027  1.00  0.00     0.178 C 
BRANCH  14  15
HETATM   15  N   UNL     1     -39.497 -50.666  12.016  1.00  0.00    -0.302 N 
HETATM   16  C   UNL     1     -38.620 -50.980  13.015  1.00  0.00     0.111 A 
HETATM   17  C   UNL     1     -37.389 -50.538  12.589  1.00  0.00     0.037 A 
HETATM   18  C   UNL     1     -37.630 -49.969  11.327  1.00  0.00     0.108 A 
HETATM   19  N   UNL     1     -38.917 -50.040  10.975  1.00  0.00    -0.310 N 
ATOM     20  HN  UNL     1     -39.355 -49.700  10.119  1.00  0.00     0.186 HD
ENDBRANCH  14  15
ENDBRANCH  13  14
ENDBRANCH  11  13
ENDBRANCH   1  11
TORSDOF 7
ENDMDL
MODEL 3
REMARK VINA RESULT:      -5.4      3.120      5.318
REMARK  7 active torsions:
REMARK  status: ('A' for Active; 'I' for Inactive)
REMARK    1  A    between atoms: C_2  and  C_5 
REMARK    2  A    between atoms: C_5  and  N_6 
REMARK       I    between atoms: N_6  and  C_7 
REMARK    3  A    between atoms: C_7  and  C_9 
REMARK    4  A    between atoms: C_9  and  N_10 
REMARK    5  A    between atoms: N_10  and  C_11 
REMARK    6  A    between atoms: C_11  and  C_12 
REMARK    7  A    between atoms: C_12  and  N_13 
ROOT
HETATM    1  C   UNL     1     -41.659 -53.393  12.418  1.00  0.00     0.371 C 
ENDROOT
BRANCH   1   2
HETATM    2  C   UNL     1     -43.034 -53.319  13.086  1.00  0.00     0.246 C 
HETATM    3  N   UNL     1     -44.078 -53.164  12.202  1.00  0.00    -0.351 N 
HETATM    4  H   UNL     1     -43.817 -52.841  11.271  1.00  0.00     0.162 HD
HETATM    5  O   UNL     1     -43.198 -53.462  14.292  1.00  0.00    -0.272 OA
BRANCH   3   6
HETATM    6  C   UNL     1     -45.451 -53.025  12.683  1.00  0.00     0.240 C 
BRANCH   6   7
HETATM    7  C   UNL     1     -45.982 -51.591  12.806  1.00  0.00     0.403 C 
HETATM    8  F   UNL     1     -46.771 -51.243  11.763  1.00  0.00    -0.169 F 
HETATM    9  F   UNL     1     -44.985 -50.687  12.897  1.00  0.00    -0.169 F 
HETATM   10  F   UNL     1     -46.738 -51.471  13.926  1.00  0.00    -0.169 F 
ENDBRANCH   6   7
ENDBRANCH   3   6
ENDBRANCH   1   2
BRANCH   1  11
HETATM   11  N   UNL     1     -41.480 -52.263  11.472  1.00  0.00     0.093 N 
HETATM   12  H   UNL     1     -42.386 -52.110  11.016  1.00  0.00     0.316 HD
BRANCH  11  13
HETATM   13  C   UNL     1     -41.150 -51.018  12.202  1.00  0.00     0.291 C 
BRANCH  13  14
HETATM   14  C   UNL     1     -40.628 -49.885  11.310  1.00  0.00     0.178 C 
BRANCH  14  15
HETATM   15  N   UNL     1     -41.651 -48.906  10.996  1.00  0.00    -0.302 N 
HETATM   16  C   UNL     1     -42.663 -48.487  11.812  1.00  0.00     0.111 A 
HETATM   17  C   UNL     1     -43.423 -47.623  11.058  1.00  0.00     0.037 A 
HETATM   18  C   UNL     1     -42.791 -47.593   9.803  1.00  0.00     0.108 A 
HETATM   19  N   UNL     1     -41.712 -48.378   9.758  1.00  0.00    -0.310 N 
ATOM     20  HN  UNL     1     -41.082 -48.540   8.972  1.00  0.00     0.186 HD
ENDBRANCH  14  15
ENDBRANCH  13  14
ENDBRANCH  11  13
ENDBRANCH   1  11
TORSDOF 7
ENDMDL
MODEL 4
REMARK VINA RESULT:      -5.3      2.940      3.229
REMARK  7 active torsions:
REMARK  status: ('A' for Active; 'I' for Inactive)
REMARK    1  A    between atoms: C_2  and  C_5 
REMARK    2  A    between atoms: C_5  and  N_6 
REMARK       I    between atoms: N_6  and  C_7 
REMARK    3  A    between atoms: C_7  and  C_9 
REMARK    4  A    between atoms: C_9  and  N_10 
REMARK    5  A    between atoms: N_10  and  C_11 
REMARK    6  A    between atoms: C_11  and  C_12 
REMARK    7  A    between atoms: C_12  and  N_13 
ROOT
HETATM    1  C   UNL     1     -41.013 -47.866  11.026  1.00  0.00     0.371 C 
ENDROOT
BRANCH   1   2
HETATM    2  C   UNL     1     -42.075 -47.195  10.150  1.00  0.00     0.246 C 
HETATM    3  N   UNL     1     -42.701 -48.053   9.273  1.00  0.00    -0.351 N 
HETATM    4  H   UNL     1     -42.217 -48.934   9.105  1.00  0.00     0.162 HD
HETATM    5  O   UNL     1     -42.392 -46.018  10.270  1.00  0.00    -0.272 OA
BRANCH   3   6
HETATM    6  C   UNL     1     -43.702 -47.559   8.331  1.00  0.00     0.240 C 
BRANCH   6   7
HETATM    7  C   UNL     1     -45.153 -47.556   8.827  1.00  0.00     0.403 C 
HETATM    8  F   UNL     1     -45.718 -46.328   8.760  1.00  0.00    -0.169 F 
HETATM    9  F   UNL     1     -45.256 -47.996  10.098  1.00  0.00    -0.169 F 
HETATM   10  F   UNL     1     -45.909 -48.377   8.055  1.00  0.00    -0.169 F 
ENDBRANCH   6   7
ENDBRANCH   3   6
ENDBRANCH   1   2
BRANCH   1  11
HETATM   11  N   UNL     1     -40.821 -49.280  10.617  1.00  0.00     0.093 N 
HETATM   12  H   UNL     1     -39.828 -49.392  10.389  1.00  0.00     0.316 HD
BRANCH  11  13
HETATM   13  C   UNL     1     -41.110 -50.195  11.744  1.00  0.00     0.291 C 
BRANCH  13  14
HETATM   14  C   UNL     1     -39.888 -50.965  12.259  1.00  0.00     0.178 C 
BRANCH  14  15
HETATM   15  N   UNL     1     -40.234 -52.271  12.787  1.00  0.00    -0.302 N 
HETATM   16  C   UNL     1     -39.732 -52.858  13.914  1.00  0.00     0.111 A 
HETATM   17  C   UNL     1     -40.286 -54.116  13.963  1.00  0.00     0.037 A 
HETATM   18  C   UNL     1     -41.101 -54.193  12.820  1.00  0.00     0.108 A 
HETATM   19  N   UNL     1     -41.069 -53.071  12.097  1.00  0.00    -0.310 N 
ATOM     20  HN  UNL     1     -41.560 -52.868  11.226  1.00  0.00     0.186 HD
ENDBRANCH  14  15
ENDBRANCH  13  14
ENDBRANCH  11  13
ENDBRANCH   1  11
TORSDOF 7
ENDMDL
MODEL 5
REMARK VINA RESULT:      -5.3      2.021      2.490
REMARK  7 active torsions:
REMARK  status: ('A' for Active; 'I' for Inactive)
REMARK    1  A    between atoms: C_2  and  C_5 
REMARK    2  A    between atoms: C_5  and  N_6 
REMARK       I    between atoms: N_6  and  C_7 
REMARK    3  A    between atoms: C_7  and  C_9 
REMARK    4  A    between atoms: C_9  and  N_10 
REMARK    5  A    between atoms: N_10  and  C_11 
REMARK    6  A    between atoms: C_11  and  C_12 
REMARK    7  A    between atoms: C_12  and  N_13 
ROOT
HETATM    1  C   UNL     1     -42.082 -50.335  12.484  1.00  0.00     0.371 C 
ENDROOT
BRANCH   1   2
HETATM    2  C   UNL     1     -41.635 -49.255  11.496  1.00  0.00     0.246 C 
HETATM    3  N   UNL     1     -42.670 -48.658  10.812  1.00  0.00    -0.351 N 
HETATM    4  H   UNL     1     -43.551 -49.169  10.823  1.00  0.00     0.162 HD
HETATM    5  O   UNL     1     -40.467 -48.901  11.378  1.00  0.00    -0.272 OA
BRANCH   3   6
HETATM    6  C   UNL     1     -42.407 -47.643   9.794  1.00  0.00     0.240 C 
BRANCH   6   7
HETATM    7  C   UNL     1     -43.466 -47.499   8.694  1.00  0.00     0.403 C 
HETATM    8  F   UNL     1     -43.552 -46.232   8.225  1.00  0.00    -0.169 F 
HETATM    9  F   UNL     1     -44.690 -47.875   9.117  1.00  0.00    -0.169 F 
HETATM   10  F   UNL     1     -43.146 -48.287   7.637  1.00  0.00    -0.169 F 
ENDBRANCH   6   7
ENDBRANCH   3   6
ENDBRANCH   1   2
BRANCH   1  11
HETATM   11  N   UNL     1     -42.117 -51.663  11.821  1.00  0.00     0.093 N 
HETATM   12  H   UNL     1     -41.181 -51.827  11.433  1.00  0.00     0.316 HD
BRANCH  11  13
HETATM   13  C   UNL     1     -42.368 -52.735  12.810  1.00  0.00     0.291 C 
BRANCH  13  14
HETATM   14  C   UNL     1     -43.701 -53.467  12.620  1.00  0.00     0.178 C 
BRANCH  14  15
HETATM   15  N   UNL     1     -44.846 -52.629  12.926  1.00  0.00    -0.302 N 
HETATM   16  C   UNL     1     -45.190 -52.126  14.148  1.00  0.00     0.111 A 
HETATM   17  C   UNL     1     -46.385 -51.469  13.963  1.00  0.00     0.037 A 
HETATM   18  C   UNL     1     -46.679 -51.640  12.600  1.00  0.00     0.108 A 
HETATM   19  N   UNL     1     -45.746 -52.351  11.963  1.00  0.00    -0.310 N 
ATOM     20  HN  UNL     1     -45.720 -52.621  10.979  1.00  0.00     0.186 HD
ENDBRANCH  14  15
ENDBRANCH  13  14
ENDBRANCH  11  13
ENDBRANCH   1  11
TORSDOF 7
ENDMDL
MODEL 6
REMARK VINA RESULT:      -5.2      3.004      5.261
REMARK  7 active torsions:
REMARK  status: ('A' for Active; 'I' for Inactive)
REMARK    1  A    between atoms: C_2  and  C_5 
REMARK    2  A    between atoms: C_5  and  N_6 
REMARK       I    between atoms: N_6  and  C_7 
REMARK    3  A    between atoms: C_7  and  C_9 
REMARK    4  A    between atoms: C_9  and  N_10 
REMARK    5  A    between atoms: N_10  and  C_11 
REMARK    6  A    between atoms: C_11  and  C_12 
REMARK    7  A    between atoms: C_12  and  N_13 
ROOT
HETATM    1  C   UNL     1     -41.366 -51.363  12.676  1.00  0.00     0.371 C 
ENDROOT
BRANCH   1   2
HETATM    2  C   UNL     1     -42.527 -52.359  12.743  1.00  0.00     0.246 C 
HETATM    3  N   UNL     1     -43.772 -51.772  12.695  1.00  0.00    -0.351 N 
HETATM    4  H   UNL     1     -43.791 -50.774  12.901  1.00  0.00     0.162 HD
HETATM    5  O   UNL     1     -42.364 -53.573  12.761  1.00  0.00    -0.272 OA
BRANCH   3   6
HETATM    6  C   UNL     1     -44.984 -52.581  12.800  1.00  0.00     0.240 C 
BRANCH   6   7
HETATM    7  C   UNL     1     -46.194 -51.903  13.455  1.00  0.00     0.403 C 
HETATM    8  F   UNL     1     -45.833 -51.001  14.396  1.00  0.00    -0.169 F 
HETATM    9  F   UNL     1     -47.028 -52.796  14.027  1.00  0.00    -0.169 F 
HETATM   10  F   UNL     1     -46.909 -51.227  12.520  1.00  0.00    -0.169 F 
ENDBRANCH   6   7
ENDBRANCH   3   6
ENDBRANCH   1   2
BRANCH   1  11
HETATM   11  N   UNL     1     -40.890 -51.215  11.277  1.00  0.00     0.093 N 
HETATM   12  H   UNL     1     -41.716 -51.279  10.673  1.00  0.00     0.316 HD
BRANCH  11  13
HETATM   13  C   UNL     1     -40.305 -49.872  11.064  1.00  0.00     0.291 C 
BRANCH  13  14
HETATM   14  C   UNL     1     -41.071 -48.735  11.749  1.00  0.00     0.178 C 
BRANCH  14  15
HETATM   15  N   UNL     1     -42.129 -48.194  10.918  1.00  0.00    -0.302 N 
HETATM   16  C   UNL     1     -43.360 -47.769  11.331  1.00  0.00     0.111 A 
HETATM   17  C   UNL     1     -44.044 -47.424  10.188  1.00  0.00     0.037 A 
HETATM   18  C   UNL     1     -43.142 -47.681   9.141  1.00  0.00     0.108 A 
HETATM   19  N   UNL     1     -41.974 -48.156   9.580  1.00  0.00    -0.310 N 
ATOM     20  HN  UNL     1     -41.157 -48.426   9.033  1.00  0.00     0.186 HD
ENDBRANCH  14  15
ENDBRANCH  13  14
ENDBRANCH  11  13
ENDBRANCH   1  11
TORSDOF 7
ENDMDL
MODEL 7
REMARK VINA RESULT:      -5.2      3.681      4.578
REMARK  7 active torsions:
REMARK  status: ('A' for Active; 'I' for Inactive)
REMARK    1  A    between atoms: C_2  and  C_5 
REMARK    2  A    between atoms: C_5  and  N_6 
REMARK       I    between atoms: N_6  and  C_7 
REMARK    3  A    between atoms: C_7  and  C_9 
REMARK    4  A    between atoms: C_9  and  N_10 
REMARK    5  A    between atoms: N_10  and  C_11 
REMARK    6  A    between atoms: C_11  and  C_12 
REMARK    7  A    between atoms: C_12  and  N_13 
ROOT
HETATM    1  C   UNL     1     -42.088 -45.927  10.298  1.00  0.00     0.371 C 
ENDROOT
BRANCH   1   2
HETATM    2  C   UNL     1     -43.223 -46.144   9.295  1.00  0.00     0.246 C 
HETATM    3  N   UNL     1     -43.533 -47.468   9.077  1.00  0.00    -0.351 N 
HETATM    4  H   UNL     1     -42.821 -48.136   9.370  1.00  0.00     0.162 HD
HETATM    5  O   UNL     1     -43.850 -45.222   8.788  1.00  0.00    -0.272 OA
BRANCH   3   6
HETATM    6  C   UNL     1     -44.558 -47.846   8.108  1.00  0.00     0.240 C 
BRANCH   6   7
HETATM    7  C   UNL     1     -45.977 -48.028   8.662  1.00  0.00     0.403 C 
HETATM    8  F   UNL     1     -46.687 -48.948   7.970  1.00  0.00    -0.169 F 
HETATM    9  F   UNL     1     -46.674 -46.872   8.660  1.00  0.00    -0.169 F 
HETATM   10  F   UNL     1     -45.922 -48.461   9.947  1.00  0.00    -0.169 F 
ENDBRANCH   6   7
ENDBRANCH   3   6
ENDBRANCH   1   2
BRANCH   1  11
HETATM   11  N   UNL     1     -42.176 -46.915  11.403  1.00  0.00     0.093 N 
HETATM   12  H   UNL     1     -42.764 -47.685  11.068  1.00  0.00     0.316 HD
BRANCH  11  13
HETATM   13  C   UNL     1     -40.844 -47.487  11.701  1.00  0.00     0.291 C 
BRANCH  13  14
HETATM   14  C   UNL     1     -40.671 -48.944  11.256  1.00  0.00     0.178 C 
BRANCH  14  15
HETATM   15  N   UNL     1     -39.403 -49.509  11.677  1.00  0.00    -0.302 N 
HETATM   16  C   UNL     1     -38.937 -49.614  12.957  1.00  0.00     0.111 A 
HETATM   17  C   UNL     1     -37.667 -50.132  12.856  1.00  0.00     0.037 A 
HETATM   18  C   UNL     1     -37.458 -50.299  11.476  1.00  0.00     0.108 A 
HETATM   19  N   UNL     1     -38.513 -49.915  10.752  1.00  0.00    -0.310 N 
ATOM     20  HN  UNL     1     -38.619 -49.927   9.738  1.00  0.00     0.186 HD
ENDBRANCH  14  15
ENDBRANCH  13  14
ENDBRANCH  11  13
ENDBRANCH   1  11
TORSDOF 7
ENDMDL
MODEL 8
REMARK VINA RESULT:      -5.1      3.615      5.814
REMARK  7 active torsions:
REMARK  status: ('A' for Active; 'I' for Inactive)
REMARK    1  A    between atoms: C_2  and  C_5 
REMARK    2  A    between atoms: C_5  and  N_6 
REMARK       I    between atoms: N_6  and  C_7 
REMARK    3  A    between atoms: C_7  and  C_9 
REMARK    4  A    between atoms: C_9  and  N_10 
REMARK    5  A    between atoms: N_10  and  C_11 
REMARK    6  A    between atoms: C_11  and  C_12 
REMARK    7  A    between atoms: C_12  and  N_13 
ROOT
HETATM    1  C   UNL     1     -41.726 -52.706  12.340  1.00  0.00     0.371 C 
ENDROOT
BRANCH   1   2
HETATM    2  C   UNL     1     -43.070 -52.781  13.068  1.00  0.00     0.246 C 
HETATM    3  N   UNL     1     -44.157 -52.882  12.229  1.00  0.00    -0.351 N 
HETATM    4  H   UNL     1     -43.985 -52.619  11.260  1.00  0.00     0.162 HD
HETATM    5  O   UNL     1     -43.165 -52.824  14.289  1.00  0.00    -0.272 OA
BRANCH   3   6
HETATM    6  C   UNL     1     -45.516 -52.912  12.765  1.00  0.00     0.240 C 
BRANCH   6   7
HETATM    7  C   UNL     1     -46.238 -51.561  12.851  1.00  0.00     0.403 C 
HETATM    8  F   UNL     1     -45.386 -50.514  12.763  1.00  0.00    -0.169 F 
HETATM    9  F   UNL     1     -46.942 -51.435  13.995  1.00  0.00    -0.169 F 
HETATM   10  F   UNL     1     -47.116 -51.439  11.824  1.00  0.00    -0.169 F 
ENDBRANCH   6   7
ENDBRANCH   3   6
ENDBRANCH   1   2
BRANCH   1  11
HETATM   11  N   UNL     1     -41.669 -51.498  11.479  1.00  0.00     0.093 N 
HETATM   12  H   UNL     1     -42.512 -51.508  10.894  1.00  0.00     0.316 HD
BRANCH  11  13
HETATM   13  C   UNL     1     -41.731 -50.267  12.301  1.00  0.00     0.291 C 
BRANCH  13  14
HETATM   14  C   UNL     1     -40.589 -49.278  12.040  1.00  0.00     0.178 C 
BRANCH  14  15
HETATM   15  N   UNL     1     -39.283 -49.909  12.082  1.00  0.00    -0.302 N 
HETATM   16  C   UNL     1     -38.679 -50.471  13.170  1.00  0.00     0.111 A 
HETATM   17  C   UNL     1     -37.429 -50.861  12.750  1.00  0.00     0.037 A 
HETATM   18  C   UNL     1     -37.374 -50.486  11.396  1.00  0.00     0.108 A 
HETATM   19  N   UNL     1     -38.502 -49.900  10.985  1.00  0.00    -0.310 N 
ATOM     20  HN  UNL     1     -38.719 -49.532  10.059  1.00  0.00     0.186 HD
ENDBRANCH  14  15
ENDBRANCH  13  14
ENDBRANCH  11  13
ENDBRANCH   1  11
TORSDOF 7
ENDMDL
MODEL 9
REMARK VINA RESULT:      -5.0      4.630      5.058
REMARK  7 active torsions:
REMARK  status: ('A' for Active; 'I' for Inactive)
REMARK    1  A    between atoms: C_2  and  C_5 
REMARK    2  A    between atoms: C_5  and  N_6 
REMARK       I    between atoms: N_6  and  C_7 
REMARK    3  A    between atoms: C_7  and  C_9 
REMARK    4  A    between atoms: C_9  and  N_10 
REMARK    5  A    between atoms: N_10  and  C_11 
REMARK    6  A    between atoms: C_11  and  C_12 
REMARK    7  A    between atoms: C_12  and  N_13 
ROOT
HETATM    1  C   UNL     1     -39.424 -49.408  11.735  1.00  0.00     0.371 C 
ENDROOT
BRANCH   1   2
HETATM    2  C   UNL     1     -40.061 -48.025  11.890  1.00  0.00     0.246 C 
HETATM    3  N   UNL     1     -40.239 -47.354  10.701  1.00  0.00    -0.351 N 
HETATM    4  H   UNL     1     -39.693 -47.707   9.916  1.00  0.00     0.162 HD
HETATM    5  O   UNL     1     -40.447 -47.585  12.966  1.00  0.00    -0.272 OA
BRANCH   3   6
HETATM    6  C   UNL     1     -40.787 -46.000  10.681  1.00  0.00     0.240 C 
BRANCH   6   7
HETATM    7  C   UNL     1     -39.768 -44.859  10.564  1.00  0.00     0.403 C 
HETATM    8  F   UNL     1     -40.358 -43.661  10.347  1.00  0.00    -0.169 F 
HETATM    9  F   UNL     1     -38.878 -45.074   9.573  1.00  0.00    -0.169 F 
HETATM   10  F   UNL     1     -39.064 -44.746  11.718  1.00  0.00    -0.169 F 
ENDBRANCH   6   7
ENDBRANCH   3   6
ENDBRANCH   1   2
BRANCH   1  11
HETATM   11  N   UNL     1     -40.338 -50.321  11.004  1.00  0.00     0.093 N 
HETATM   12  H   UNL     1     -39.757 -51.064  10.600  1.00  0.00     0.316 HD
BRANCH  11  13
HETATM   13  C   UNL     1     -41.282 -50.974  11.938  1.00  0.00     0.291 C 
BRANCH  13  14
HETATM   14  C   UNL     1     -41.225 -52.506  11.924  1.00  0.00     0.178 C 
BRANCH  14  15
HETATM   15  N   UNL     1     -42.370 -53.114  12.574  1.00  0.00    -0.302 N 
HETATM   16  C   UNL     1     -42.358 -53.893  13.696  1.00  0.00     0.111 A 
HETATM   17  C   UNL     1     -43.657 -54.305  13.884  1.00  0.00     0.037 A 
HETATM   18  C   UNL     1     -44.373 -53.727  12.821  1.00  0.00     0.108 A 
HETATM   19  N   UNL     1     -43.591 -53.003  12.016  1.00  0.00    -0.310 N 
ATOM     20  HN  UNL     1     -43.856 -52.488  11.177  1.00  0.00     0.186 HD
ENDBRANCH  14  15
ENDBRANCH  13  14
ENDBRANCH  11  13
ENDBRANCH   1  11
TORSDOF 7
ENDMDL
