MODEL 1
REMARK VINA RESULT:      -6.4      0.000      0.000
REMARK  4 active torsions:
REMARK  status: ('A' for Active; 'I' for Inactive)
REMARK    1  A    between atoms: O_1  and  C_2 
REMARK    2  A    between atoms: C_2  and  C_3 
REMARK    3  A    between atoms: C_2  and  C_13 
REMARK    4  A    between atoms: C_3  and  N_4 
ROOT
HETATM    1  C   UNL     1     -42.078 -52.620  13.921  1.00  0.00     0.169 C 
ENDROOT
BRANCH   1   2
HETATM    2  C   UNL     1     -43.299 -53.288  13.235  1.00  0.00     0.171 C 
BRANCH   2   3
HETATM    3  O   UNL     1     -43.329 -53.041  11.824  1.00  0.00    -0.389 OA
HETATM    4  H   UNL     1     -43.263 -52.075  11.681  1.00  0.00     0.210 HD
ENDBRANCH   2   3
BRANCH   2   5
HETATM    5  C   UNL     1     -44.618 -52.866  13.858  1.00  0.00    -0.006 A 
HETATM    6  C   UNL     1     -44.820 -51.526  14.244  1.00  0.00     0.011 A 
HETATM    7  C   UNL     1     -46.006 -51.119  14.858  1.00  0.00     0.001 A 
HETATM    8  C   UNL     1     -47.020 -52.042  15.093  1.00  0.00     0.002 A 
HETATM    9  C   UNL     1     -46.845 -53.372  14.720  1.00  0.00     0.024 A 
HETATM   10  C   UNL     1     -45.653 -53.785  14.112  1.00  0.00     0.043 A 
HETATM   11 CL   UNL     1     -45.510 -55.460  13.711  1.00  0.00    -0.084 Cl
ENDBRANCH   2   5
ENDBRANCH   1   2
BRANCH   1  12
HETATM   12  N   UNL     1     -41.034 -53.563  14.346  1.00  0.00    -0.305 N 
HETATM   13  C   UNL     1     -41.285 -54.439  15.390  1.00  0.00     0.125 A 
HETATM   14  C   UNL     1     -40.352 -55.272  15.861  1.00  0.00     0.117 A 
HETATM   15 CL   UNL     1     -40.661 -56.341  17.167  1.00  0.00    -0.077 Cl
HETATM   16  C   UNL     1     -39.003 -55.252  15.241  1.00  0.00     0.272 A 
HETATM   17  O   UNL     1     -38.075 -55.952  15.630  1.00  0.00    -0.266 OA
HETATM   18  N   UNL     1     -38.852 -54.382  14.192  1.00  0.00    -0.274 N 
HETATM   19  C   UNL     1     -39.793 -53.503  13.725  1.00  0.00     0.329 A 
HETATM   20  H   UNL     1     -37.939 -54.342  13.766  1.00  0.00     0.173 HD
HETATM   21  O   UNL     1     -39.527 -52.715  12.818  1.00  0.00    -0.246 OA
ENDBRANCH   1  12
TORSDOF 4
ENDMDL
MODEL 2
REMARK VINA RESULT:      -6.3      5.600      8.148
REMARK  4 active torsions:
REMARK  status: ('A' for Active; 'I' for Inactive)
REMARK    1  A    between atoms: O_1  and  C_2 
REMARK    2  A    between atoms: C_2  and  C_3 
REMARK    3  A    between atoms: C_2  and  C_13 
REMARK    4  A    between atoms: C_3  and  N_4 
ROOT
HETATM    1  C   UNL     1     -40.927 -48.734  12.274  1.00  0.00     0.169 C 
ENDROOT
BRANCH   1   2
HETATM    2  C   UNL     1     -40.072 -49.814  11.559  1.00  0.00     0.171 C 
BRANCH   2   3
HETATM    3  O   UNL     1     -40.481 -50.017  10.202  1.00  0.00    -0.389 OA
HETATM    4  H   UNL     1     -41.417 -49.743  10.120  1.00  0.00     0.210 HD
ENDBRANCH   2   3
BRANCH   2   5
HETATM    5  C   UNL     1     -40.074 -51.141  12.300  1.00  0.00    -0.006 A 
HETATM    6  C   UNL     1     -41.067 -52.101  12.023  1.00  0.00     0.011 A 
HETATM    7  C   UNL     1     -41.119 -53.311  12.719  1.00  0.00     0.001 A 
HETATM    8  C   UNL     1     -40.174 -53.590  13.701  1.00  0.00     0.002 A 
HETATM    9  C   UNL     1     -39.182 -52.656  13.991  1.00  0.00     0.024 A 
HETATM   10  C   UNL     1     -39.133 -51.439  13.302  1.00  0.00     0.043 A 
HETATM   11 CL   UNL     1     -37.888 -50.327  13.749  1.00  0.00    -0.084 Cl
ENDBRANCH   2   5
ENDBRANCH   1   2
BRANCH   1  12
HETATM   12  N   UNL     1     -41.632 -47.822  11.362  1.00  0.00    -0.305 N 
HETATM   13  C   UNL     1     -42.955 -48.068  11.034  1.00  0.00     0.125 A 
HETATM   14  C   UNL     1     -43.625 -47.311  10.160  1.00  0.00     0.117 A 
HETATM   15 CL   UNL     1     -45.258 -47.632   9.741  1.00  0.00    -0.077 Cl
HETATM   16  C   UNL     1     -42.921 -46.171   9.522  1.00  0.00     0.272 A 
HETATM   17  O   UNL     1     -43.442 -45.445   8.682  1.00  0.00    -0.266 OA
HETATM   18  N   UNL     1     -41.627 -45.977   9.930  1.00  0.00    -0.274 N 
HETATM   19  C   UNL     1     -40.924 -46.767  10.801  1.00  0.00     0.329 A 
HETATM   20  H   UNL     1     -41.126 -45.216   9.499  1.00  0.00     0.173 HD
HETATM   21  O   UNL     1     -39.740 -46.541  11.046  1.00  0.00    -0.246 OA
ENDBRANCH   1  12
TORSDOF 4
ENDMDL
MODEL 3
REMARK VINA RESULT:      -6.3      4.952      6.773
REMARK  4 active torsions:
REMARK  status: ('A' for Active; 'I' for Inactive)
REMARK    1  A    between atoms: O_1  and  C_2 
REMARK    2  A    between atoms: C_2  and  C_3 
REMARK    3  A    between atoms: C_2  and  C_13 
REMARK    4  A    between atoms: C_3  and  N_4 
ROOT
HETATM    1  C   UNL     1     -41.493 -50.116  12.620  1.00  0.00     0.169 C 
ENDROOT
BRANCH   1   2
HETATM    2  C   UNL     1     -41.334 -49.369  11.268  1.00  0.00     0.171 C 
BRANCH   2   3
HETATM    3  O   UNL     1     -40.409 -50.026  10.393  1.00  0.00    -0.389 OA
HETATM    4  H   UNL     1     -39.513 -49.682  10.582  1.00  0.00     0.210 HD
ENDBRANCH   2   3
BRANCH   2   5
HETATM    5  C   UNL     1     -40.927 -47.917  11.450  1.00  0.00    -0.006 A 
HETATM    6  C   UNL     1     -39.969 -47.570  12.423  1.00  0.00     0.011 A 
HETATM    7  C   UNL     1     -39.608 -46.239  12.642  1.00  0.00     0.001 A 
HETATM    8  C   UNL     1     -40.191 -45.227  11.887  1.00  0.00     0.002 A 
HETATM    9  C   UNL     1     -41.140 -45.545  10.918  1.00  0.00     0.024 A 
HETATM   10  C   UNL     1     -41.510 -46.878  10.703  1.00  0.00     0.043 A 
HETATM   11 CL   UNL     1     -42.718 -47.178   9.503  1.00  0.00    -0.084 Cl
ENDBRANCH   2   5
ENDBRANCH   1   2
BRANCH   1  12
HETATM   12  N   UNL     1     -42.538 -51.149  12.619  1.00  0.00    -0.305 N 
HETATM   13  C   UNL     1     -43.794 -50.853  13.122  1.00  0.00     0.125 A 
HETATM   14  C   UNL     1     -44.762 -51.771  13.207  1.00  0.00     0.117 A 
HETATM   15 CL   UNL     1     -46.311 -51.405  13.848  1.00  0.00    -0.077 Cl
HETATM   16  C   UNL     1     -44.473 -53.153  12.747  1.00  0.00     0.272 A 
HETATM   17  O   UNL     1     -45.285 -54.068  12.821  1.00  0.00    -0.266 OA
HETATM   18  N   UNL     1     -43.218 -53.349  12.232  1.00  0.00    -0.274 N 
HETATM   19  C   UNL     1     -42.212 -52.422  12.171  1.00  0.00     0.329 A 
HETATM   20  H   UNL     1     -42.996 -54.284  11.927  1.00  0.00     0.173 HD
HETATM   21  O   UNL     1     -41.097 -52.726  11.750  1.00  0.00    -0.246 OA
ENDBRANCH   1  12
TORSDOF 4
ENDMDL
MODEL 4
REMARK VINA RESULT:      -6.1      3.315      5.151
REMARK  4 active torsions:
REMARK  status: ('A' for Active; 'I' for Inactive)
REMARK    1  A    between atoms: O_1  and  C_2 
REMARK    2  A    between atoms: C_2  and  C_3 
REMARK    3  A    between atoms: C_2  and  C_13 
REMARK    4  A    between atoms: C_3  and  N_4 
ROOT
HETATM    1  C   UNL     1     -40.193 -52.289  13.577  1.00  0.00     0.169 C 
ENDROOT
BRANCH   1   2
HETATM    2  C   UNL     1     -40.696 -53.562  12.844  1.00  0.00     0.171 C 
BRANCH   2   3
HETATM    3  O   UNL     1     -40.704 -53.399  11.421  1.00  0.00    -0.389 OA
HETATM    4  H   UNL     1     -39.897 -52.909  11.165  1.00  0.00     0.210 HD
ENDBRANCH   2   3
BRANCH   2   5
HETATM    5  C   UNL     1     -42.071 -54.000  13.318  1.00  0.00    -0.006 A 
HETATM    6  C   UNL     1     -43.209 -53.724  12.535  1.00  0.00     0.011 A 
HETATM    7  C   UNL     1     -44.489 -54.077  12.966  1.00  0.00     0.001 A 
HETATM    8  C   UNL     1     -44.659 -54.721  14.187  1.00  0.00     0.002 A 
HETATM    9  C   UNL     1     -43.549 -55.006  14.979  1.00  0.00     0.024 A 
HETATM   10  C   UNL     1     -42.265 -54.645  14.553  1.00  0.00     0.043 A 
HETATM   11 CL   UNL     1     -40.950 -55.010  15.613  1.00  0.00    -0.084 Cl
ENDBRANCH   2   5
ENDBRANCH   1   2
BRANCH   1  12
HETATM   12  N   UNL     1     -40.395 -51.041  12.826  1.00  0.00    -0.305 N 
HETATM   13  C   UNL     1     -41.637 -50.428  12.838  1.00  0.00     0.125 A 
HETATM   14  C   UNL     1     -41.896 -49.329  12.121  1.00  0.00     0.117 A 
HETATM   15 CL   UNL     1     -43.441 -48.584  12.122  1.00  0.00    -0.077 Cl
HETATM   16  C   UNL     1     -40.812 -48.754  11.286  1.00  0.00     0.272 A 
HETATM   17  O   UNL     1     -40.966 -47.772  10.569  1.00  0.00    -0.266 OA
HETATM   18  N   UNL     1     -39.606 -49.402  11.362  1.00  0.00    -0.274 N 
HETATM   19  C   UNL     1     -39.342 -50.546  12.068  1.00  0.00     0.329 A 
HETATM   20  H   UNL     1     -38.859 -49.036  10.792  1.00  0.00     0.173 HD
HETATM   21  O   UNL     1     -38.238 -51.084  12.010  1.00  0.00    -0.246 OA
ENDBRANCH   1  12
TORSDOF 4
ENDMDL
MODEL 5
REMARK VINA RESULT:      -6.0      3.291      4.099
REMARK  4 active torsions:
REMARK  status: ('A' for Active; 'I' for Inactive)
REMARK    1  A    between atoms: O_1  and  C_2 
REMARK    2  A    between atoms: C_2  and  C_3 
REMARK    3  A    between atoms: C_2  and  C_13 
REMARK    4  A    between atoms: C_3  and  N_4 
ROOT
HETATM    1  C   UNL     1     -42.666 -50.592  12.833  1.00  0.00     0.169 C 
ENDROOT
BRANCH   1   2
HETATM    2  C   UNL     1     -43.052 -52.093  12.923  1.00  0.00     0.171 C 
BRANCH   2   3
HETATM    3  O   UNL     1     -43.018 -52.737  11.644  1.00  0.00    -0.389 OA
HETATM    4  H   UNL     1     -42.860 -53.692  11.786  1.00  0.00     0.210 HD
ENDBRANCH   2   3
BRANCH   2   5
HETATM    5  C   UNL     1     -44.410 -52.306  13.569  1.00  0.00    -0.006 A 
HETATM    6  C   UNL     1     -45.379 -51.284  13.528  1.00  0.00     0.011 A 
HETATM    7  C   UNL     1     -46.620 -51.436  14.151  1.00  0.00     0.001 A 
HETATM    8  C   UNL     1     -46.922 -52.616  14.822  1.00  0.00     0.002 A 
HETATM    9  C   UNL     1     -45.980 -53.641  14.875  1.00  0.00     0.024 A 
HETATM   10  C   UNL     1     -44.733 -53.488  14.260  1.00  0.00     0.043 A 
HETATM   11 CL   UNL     1     -43.615 -54.799  14.404  1.00  0.00    -0.084 Cl
ENDBRANCH   2   5
ENDBRANCH   1   2
BRANCH   1  12
HETATM   12  N   UNL     1     -41.291 -50.350  12.375  1.00  0.00    -0.305 N 
HETATM   13  C   UNL     1     -40.239 -51.021  12.977  1.00  0.00     0.125 A 
HETATM   14  C   UNL     1     -38.965 -50.791  12.646  1.00  0.00     0.117 A 
HETATM   15 CL   UNL     1     -37.664 -51.610  13.408  1.00  0.00    -0.077 Cl
HETATM   16  C   UNL     1     -38.674 -49.780  11.598  1.00  0.00     0.272 A 
HETATM   17  O   UNL     1     -37.537 -49.476  11.256  1.00  0.00    -0.266 OA
HETATM   18  N   UNL     1     -39.773 -49.191  11.030  1.00  0.00    -0.274 N 
HETATM   19  C   UNL     1     -41.080 -49.398  11.386  1.00  0.00     0.329 A 
HETATM   20  H   UNL     1     -39.598 -48.491  10.326  1.00  0.00     0.173 HD
HETATM   21  O   UNL     1     -41.988 -48.761  10.854  1.00  0.00    -0.246 OA
ENDBRANCH   1  12
TORSDOF 4
ENDMDL
MODEL 6
REMARK VINA RESULT:      -5.8      3.525      4.866
REMARK  4 active torsions:
REMARK  status: ('A' for Active; 'I' for Inactive)
REMARK    1  A    between atoms: O_1  and  C_2 
REMARK    2  A    between atoms: C_2  and  C_3 
REMARK    3  A    between atoms: C_2  and  C_13 
REMARK    4  A    between atoms: C_3  and  N_4 
ROOT
HETATM    1  C   UNL     1     -40.363 -52.592  14.000  1.00  0.00     0.169 C 
ENDROOT
BRANCH   1   2
HETATM    2  C   UNL     1     -40.938 -53.734  13.119  1.00  0.00     0.171 C 
BRANCH   2   3
HETATM    3  O   UNL     1     -40.615 -53.562  11.734  1.00  0.00    -0.389 OA
HETATM    4  H   UNL     1     -39.773 -54.026  11.556  1.00  0.00     0.210 HD
ENDBRANCH   2   3
BRANCH   2   5
HETATM    5  C   UNL     1     -42.440 -53.892  13.281  1.00  0.00    -0.006 A 
HETATM    6  C   UNL     1     -43.316 -53.287  12.359  1.00  0.00     0.011 A 
HETATM    7  C   UNL     1     -44.702 -53.381  12.508  1.00  0.00     0.001 A 
HETATM    8  C   UNL     1     -45.241 -54.088  13.577  1.00  0.00     0.002 A 
HETATM    9  C   UNL     1     -44.394 -54.696  14.501  1.00  0.00     0.024 A 
HETATM   10  C   UNL     1     -43.005 -54.596  14.359  1.00  0.00     0.043 A 
HETATM   11 CL   UNL     1     -42.031 -55.355  15.570  1.00  0.00    -0.084 Cl
ENDBRANCH   2   5
ENDBRANCH   1   2
BRANCH   1  12
HETATM   12  N   UNL     1     -40.153 -51.325  13.285  1.00  0.00    -0.305 N 
HETATM   13  C   UNL     1     -38.982 -51.127  12.571  1.00  0.00     0.125 A 
HETATM   14  C   UNL     1     -38.709 -49.972  11.957  1.00  0.00     0.117 A 
HETATM   15 CL   UNL     1     -37.249 -49.723  11.091  1.00  0.00    -0.077 Cl
HETATM   16  C   UNL     1     -39.697 -48.868  12.048  1.00  0.00     0.272 A 
HETATM   17  O   UNL     1     -39.517 -47.762  11.550  1.00  0.00    -0.266 OA
HETATM   18  N   UNL     1     -40.843 -49.161  12.742  1.00  0.00    -0.274 N 
HETATM   19  C   UNL     1     -41.115 -50.331  13.400  1.00  0.00     0.329 A 
HETATM   20  H   UNL     1     -41.521 -48.421  12.828  1.00  0.00     0.173 HD
HETATM   21  O   UNL     1     -42.150 -50.463  14.053  1.00  0.00    -0.246 OA
ENDBRANCH   1  12
TORSDOF 4
ENDMDL
MODEL 7
REMARK VINA RESULT:      -5.8      3.534      6.384
REMARK  4 active torsions:
REMARK  status: ('A' for Active; 'I' for Inactive)
REMARK    1  A    between atoms: O_1  and  C_2 
REMARK    2  A    between atoms: C_2  and  C_3 
REMARK    3  A    between atoms: C_2  and  C_13 
REMARK    4  A    between atoms: C_3  and  N_4 
ROOT
HETATM    1  C   UNL     1     -41.570 -52.904  13.392  1.00  0.00     0.169 C 
ENDROOT
BRANCH   1   2
HETATM    2  C   UNL     1     -41.342 -51.917  12.216  1.00  0.00     0.171 C 
BRANCH   2   3
HETATM    3  O   UNL     1     -41.266 -52.589  10.953  1.00  0.00    -0.389 OA
HETATM    4  H   UNL     1     -40.894 -53.481  11.103  1.00  0.00     0.210 HD
ENDBRANCH   2   3
BRANCH   2   5
HETATM    5  C   UNL     1     -40.109 -51.052  12.413  1.00  0.00    -0.006 A 
HETATM    6  C   UNL     1     -39.042 -51.516  13.207  1.00  0.00     0.011 A 
HETATM    7  C   UNL     1     -37.915 -50.725  13.441  1.00  0.00     0.001 A 
HETATM    8  C   UNL     1     -37.827 -49.456  12.879  1.00  0.00     0.002 A 
HETATM    9  C   UNL     1     -38.870 -48.976  12.089  1.00  0.00     0.024 A 
HETATM   10  C   UNL     1     -40.004 -49.763  11.860  1.00  0.00     0.043 A 
HETATM   11 CL   UNL     1     -41.261 -49.075  10.894  1.00  0.00    -0.084 Cl
ENDBRANCH   2   5
ENDBRANCH   1   2
BRANCH   1  12
HETATM   12  N   UNL     1     -42.982 -53.213  13.656  1.00  0.00    -0.305 N 
HETATM   13  C   UNL     1     -43.970 -52.375  13.166  1.00  0.00     0.125 A 
HETATM   14  C   UNL     1     -45.266 -52.570  13.430  1.00  0.00     0.117 A 
HETATM   15 CL   UNL     1     -46.484 -51.518  12.837  1.00  0.00    -0.077 Cl
HETATM   16  C   UNL     1     -45.651 -53.725  14.280  1.00  0.00     0.272 A 
HETATM   17  O   UNL     1     -46.809 -53.961  14.606  1.00  0.00    -0.266 OA
HETATM   18  N   UNL     1     -44.615 -54.522  14.692  1.00  0.00    -0.274 N 
HETATM   19  C   UNL     1     -43.283 -54.311  14.452  1.00  0.00     0.329 A 
HETATM   20  H   UNL     1     -44.854 -55.304  15.282  1.00  0.00     0.173 HD
HETATM   21  O   UNL     1     -42.429 -55.055  14.930  1.00  0.00    -0.246 OA
ENDBRANCH   1  12
TORSDOF 4
ENDMDL
MODEL 8
REMARK VINA RESULT:      -5.7      3.154      4.158
REMARK  4 active torsions:
REMARK  status: ('A' for Active; 'I' for Inactive)
REMARK    1  A    between atoms: O_1  and  C_2 
REMARK    2  A    between atoms: C_2  and  C_3 
REMARK    3  A    between atoms: C_2  and  C_13 
REMARK    4  A    between atoms: C_3  and  N_4 
ROOT
HETATM    1  C   UNL     1     -40.864 -51.476  12.822  1.00  0.00     0.169 C 
ENDROOT
BRANCH   1   2
HETATM    2  C   UNL     1     -40.845 -53.023  12.691  1.00  0.00     0.171 C 
BRANCH   2   3
HETATM    3  O   UNL     1     -40.613 -53.448  11.343  1.00  0.00    -0.389 OA
HETATM    4  H   UNL     1     -40.647 -54.425  11.320  1.00  0.00     0.210 HD
ENDBRANCH   2   3
BRANCH   2   5
HETATM    5  C   UNL     1     -42.114 -53.667  13.222  1.00  0.00    -0.006 A 
HETATM    6  C   UNL     1     -43.344 -53.443  12.572  1.00  0.00     0.011 A 
HETATM    7  C   UNL     1     -44.532 -53.988  13.062  1.00  0.00     0.001 A 
HETATM    8  C   UNL     1     -44.516 -54.774  14.209  1.00  0.00     0.002 A 
HETATM    9  C   UNL     1     -43.312 -55.011  14.869  1.00  0.00     0.024 A 
HETATM   10  C   UNL     1     -42.121 -54.459  14.384  1.00  0.00     0.043 A 
HETATM   11 CL   UNL     1     -40.679 -54.778  15.283  1.00  0.00    -0.084 Cl
ENDBRANCH   2   5
ENDBRANCH   1   2
BRANCH   1  12
HETATM   12  N   UNL     1     -39.690 -50.914  13.504  1.00  0.00    -0.305 N 
HETATM   13  C   UNL     1     -39.313 -51.411  14.741  1.00  0.00     0.125 A 
HETATM   14  C   UNL     1     -38.294 -50.894  15.436  1.00  0.00     0.117 A 
HETATM   15 CL   UNL     1     -37.843 -51.500  16.976  1.00  0.00    -0.077 Cl
HETATM   16  C   UNL     1     -37.548 -49.749  14.858  1.00  0.00     0.272 A 
HETATM   17  O   UNL     1     -36.626 -49.186  15.437  1.00  0.00    -0.266 OA
HETATM   18  N   UNL     1     -37.964 -49.344  13.616  1.00  0.00    -0.274 N 
HETATM   19  C   UNL     1     -39.026 -49.848  12.912  1.00  0.00     0.329 A 
HETATM   20  H   UNL     1     -37.480 -48.558  13.210  1.00  0.00     0.173 HD
HETATM   21  O   UNL     1     -39.356 -49.361  11.831  1.00  0.00    -0.246 OA
ENDBRANCH   1  12
TORSDOF 4
ENDMDL
MODEL 9
REMARK VINA RESULT:      -5.7      6.179      8.321
REMARK  4 active torsions:
REMARK  status: ('A' for Active; 'I' for Inactive)
REMARK    1  A    between atoms: O_1  and  C_2 
REMARK    2  A    between atoms: C_2  and  C_3 
REMARK    3  A    between atoms: C_2  and  C_13 
REMARK    4  A    between atoms: C_3  and  N_4 
ROOT
HETATM    1  C   UNL     1     -41.930 -49.064  11.784  1.00  0.00     0.169 C 
ENDROOT
BRANCH   1   2
HETATM    2  C   UNL     1     -40.578 -49.761  11.475  1.00  0.00     0.171 C 
BRANCH   2   3
HETATM    3  O   UNL     1     -40.384 -49.968  10.071  1.00  0.00    -0.389 OA
HETATM    4  H   UNL     1     -39.476 -49.685   9.842  1.00  0.00     0.210 HD
ENDBRANCH   2   3
BRANCH   2   5
HETATM    5  C   UNL     1     -40.421 -51.078  12.215  1.00  0.00    -0.006 A 
HETATM    6  C   UNL     1     -41.347 -52.120  12.005  1.00  0.00     0.011 A 
HETATM    7  C   UNL     1     -41.252 -53.325  12.704  1.00  0.00     0.001 A 
HETATM    8  C   UNL     1     -40.225 -53.519  13.621  1.00  0.00     0.002 A 
HETATM    9  C   UNL     1     -39.297 -52.505  13.844  1.00  0.00     0.024 A 
HETATM   10  C   UNL     1     -39.395 -51.292  13.152  1.00  0.00     0.043 A 
HETATM   11 CL   UNL     1     -38.219 -50.078  13.516  1.00  0.00    -0.084 Cl
ENDBRANCH   2   5
ENDBRANCH   1   2
BRANCH   1  12
HETATM   12  N   UNL     1     -41.971 -47.640  11.422  1.00  0.00    -0.305 N 
HETATM   13  C   UNL     1     -40.877 -46.834  11.688  1.00  0.00     0.125 A 
HETATM   14  C   UNL     1     -40.883 -45.520  11.442  1.00  0.00     0.117 A 
HETATM   15 CL   UNL     1     -39.532 -44.522  11.791  1.00  0.00    -0.077 Cl
HETATM   16  C   UNL     1     -42.108 -44.911  10.865  1.00  0.00     0.272 A 
HETATM   17  O   UNL     1     -42.219 -43.711  10.640  1.00  0.00    -0.266 OA
HETATM   18  N   UNL     1     -43.129 -45.786  10.600  1.00  0.00    -0.274 N 
HETATM   19  C   UNL     1     -43.142 -47.127  10.879  1.00  0.00     0.329 A 
HETATM   20  H   UNL     1     -43.976 -45.391  10.221  1.00  0.00     0.173 HD
HETATM   21  O   UNL     1     -44.142 -47.809  10.661  1.00  0.00    -0.246 OA
ENDBRANCH   1  12
TORSDOF 4
ENDMDL
