MODEL 1
REMARK VINA RESULT:      -6.3      0.000      0.000
REMARK  5 active torsions:
REMARK  status: ('A' for Active; 'I' for Inactive)
REMARK    1  A    between atoms: C_2  and  O_3 
REMARK    2  A    between atoms: C_2  and  C_4 
REMARK    3  A    between atoms: C_4  and  N_5 
REMARK       I    between atoms: N_5  and  C_6 
REMARK       I    between atoms: C_6  and  N_8 
REMARK    4  A    between atoms: N_8  and  C_9 
REMARK    5  A    between atoms: C_15  and  N_16 
ROOT
HETATM    1  C   UNL     1     -39.478 -50.331  11.620  1.00  0.00     0.060 A 
HETATM    2  C   UNL     1     -38.250 -49.662  11.575  1.00  0.00     0.029 A 
HETATM    3  C   UNL     1     -37.359 -49.816  12.624  1.00  0.00     0.019 A 
HETATM    4  C   UNL     1     -37.721 -50.666  13.655  1.00  0.00     0.090 A 
HETATM    5  N   UNL     1     -38.875 -51.368  13.694  1.00  0.00    -0.351 N 
ATOM      6  HN  UNL     1     -39.071 -52.000  14.470  1.00  0.00     0.166 HD
HETATM    7  C   UNL     1     -39.768 -51.218  12.684  1.00  0.00     0.125 A 
ENDROOT
BRANCH   1   8
HETATM    8  N   UNL     1     -40.448 -49.960  10.654  1.00  0.00    -0.207 NA
HETATM    9  C   UNL     1     -41.195 -48.826  10.937  1.00  0.00     0.298 C 
HETATM   10  N   UNL     1     -42.040 -48.529   9.891  1.00  0.00    -0.345 N 
HETATM   11  O   UNL     1     -41.075 -48.106  11.918  1.00  0.00    -0.254 OA
HETATM   12  H   UNL     1     -42.491 -49.345   9.499  1.00  0.00     0.163 HD
HETATM   13  H   UNL     1     -40.110 -49.900   9.704  1.00  0.00     0.138 HD
BRANCH  10  14
HETATM   14  C   UNL     1     -42.867 -47.341   9.982  1.00  0.00     0.155 C 
BRANCH  14  15
HETATM   15  C   UNL     1     -43.556 -47.004   8.655  1.00  0.00     0.132 C 
HETATM   16  C   UNL     1     -44.943 -46.419   8.887  1.00  0.00     0.041 C 
BRANCH  15  17
HETATM   17  O   UNL     1     -42.755 -46.052   7.942  1.00  0.00    -0.394 OA
HETATM   18  H   UNL     1     -42.168 -45.620   8.585  1.00  0.00     0.210 HD
ENDBRANCH  15  17
ENDBRANCH  14  15
ENDBRANCH  10  14
ENDBRANCH   1   8
BRANCH   7  19
HETATM   19  N   UNL     1     -40.926 -51.971  12.726  1.00  0.00    -0.366 N 
HETATM   20  C   UNL     1     -40.936 -53.410  12.508  1.00  0.00     0.124 C 
HETATM   21  C   UNL     1     -42.201 -53.916  13.203  1.00  0.00     0.021 C 
HETATM   22  C   UNL     1     -42.640 -52.785  14.119  1.00  0.00     0.021 C 
HETATM   23  C   UNL     1     -42.087 -51.522  13.471  1.00  0.00     0.124 C 
ENDBRANCH   7  19
TORSDOF 5
ENDMDL
MODEL 2
REMARK VINA RESULT:      -6.1      2.049      2.347
REMARK  5 active torsions:
REMARK  status: ('A' for Active; 'I' for Inactive)
REMARK    1  A    between atoms: C_2  and  O_3 
REMARK    2  A    between atoms: C_2  and  C_4 
REMARK    3  A    between atoms: C_4  and  N_5 
REMARK       I    between atoms: N_5  and  C_6 
REMARK       I    between atoms: C_6  and  N_8 
REMARK    4  A    between atoms: N_8  and  C_9 
REMARK    5  A    between atoms: C_15  and  N_16 
ROOT
HETATM    1  C   UNL     1     -40.756 -48.548  11.423  1.00  0.00     0.060 A 
HETATM    2  C   UNL     1     -39.825 -47.518  11.592  1.00  0.00     0.029 A 
HETATM    3  C   UNL     1     -39.336 -47.254  12.861  1.00  0.00     0.019 A 
HETATM    4  C   UNL     1     -39.772 -48.060  13.899  1.00  0.00     0.090 A 
HETATM    5  N   UNL     1     -40.627 -49.096  13.751  1.00  0.00    -0.351 N 
ATOM      6  HN  UNL     1     -40.889 -49.670  14.553  1.00  0.00     0.166 HD
HETATM    7  C   UNL     1     -41.129 -49.362  12.520  1.00  0.00     0.125 A 
ENDROOT
BRANCH   1   8
HETATM    8  N   UNL     1     -41.405 -48.626  10.163  1.00  0.00    -0.207 NA
HETATM    9  C   UNL     1     -42.558 -47.870  10.018  1.00  0.00     0.298 C 
HETATM   10  N   UNL     1     -43.045 -47.970   8.733  1.00  0.00    -0.345 N 
HETATM   11  O   UNL     1     -43.047 -47.126  10.857  1.00  0.00    -0.254 OA
HETATM   12  H   UNL     1     -43.009 -48.912   8.366  1.00  0.00     0.163 HD
HETATM   13  H   UNL     1     -40.811 -48.473   9.362  1.00  0.00     0.138 HD
BRANCH  10  14
HETATM   14  C   UNL     1     -44.223 -47.202   8.375  1.00  0.00     0.155 C 
BRANCH  14  15
HETATM   15  C   UNL     1     -45.518 -48.000   8.560  1.00  0.00     0.132 C 
HETATM   16  C   UNL     1     -46.626 -47.126   9.135  1.00  0.00     0.041 C 
BRANCH  15  17
HETATM   17  O   UNL     1     -45.935 -48.515   7.288  1.00  0.00    -0.394 OA
HETATM   18  H   UNL     1     -46.652 -47.947   6.960  1.00  0.00     0.210 HD
ENDBRANCH  15  17
ENDBRANCH  14  15
ENDBRANCH  10  14
ENDBRANCH   1   8
BRANCH   7  19
HETATM   19  N   UNL     1     -41.973 -50.447  12.384  1.00  0.00    -0.366 N 
HETATM   20  C   UNL     1     -41.490 -51.784  12.074  1.00  0.00     0.124 C 
HETATM   21  C   UNL     1     -42.573 -52.734  12.590  1.00  0.00     0.021 C 
HETATM   22  C   UNL     1     -43.435 -51.899  13.522  1.00  0.00     0.021 C 
HETATM   23  C   UNL     1     -43.277 -50.469  13.022  1.00  0.00     0.124 C 
ENDBRANCH   7  19
TORSDOF 5
ENDMDL
MODEL 3
REMARK VINA RESULT:      -6.0      2.508      4.399
REMARK  5 active torsions:
REMARK  status: ('A' for Active; 'I' for Inactive)
REMARK    1  A    between atoms: C_2  and  O_3 
REMARK    2  A    between atoms: C_2  and  C_4 
REMARK    3  A    between atoms: C_4  and  N_5 
REMARK       I    between atoms: N_5  and  C_6 
REMARK       I    between atoms: C_6  and  N_8 
REMARK    4  A    between atoms: N_8  and  C_9 
REMARK    5  A    between atoms: C_15  and  N_16 
ROOT
HETATM    1  C   UNL     1     -42.131 -53.405  13.293  1.00  0.00     0.060 A 
HETATM    2  C   UNL     1     -41.141 -54.245  13.813  1.00  0.00     0.029 A 
HETATM    3  C   UNL     1     -41.317 -54.797  15.071  1.00  0.00     0.019 A 
HETATM    4  C   UNL     1     -42.496 -54.513  15.738  1.00  0.00     0.090 A 
HETATM    5  N   UNL     1     -43.492 -53.751  15.234  1.00  0.00    -0.351 N 
ATOM      6  HN  UNL     1     -44.350 -53.601  15.765  1.00  0.00     0.166 HD
HETATM    7  C   UNL     1     -43.333 -53.188  14.010  1.00  0.00     0.125 A 
ENDROOT
BRANCH   1   8
HETATM    8  N   UNL     1     -41.805 -52.678  12.119  1.00  0.00    -0.207 NA
HETATM    9  C   UNL     1     -41.237 -51.427  12.308  1.00  0.00     0.298 C 
HETATM   10  N   UNL     1     -40.897 -50.862  11.099  1.00  0.00    -0.345 N 
HETATM   11  O   UNL     1     -40.967 -50.909  13.382  1.00  0.00    -0.254 OA
HETATM   12  H   UNL     1     -41.602 -50.994  10.386  1.00  0.00     0.163 HD
HETATM   13  H   UNL     1     -41.261 -53.184  11.436  1.00  0.00     0.138 HD
BRANCH  10  14
HETATM   14  C   UNL     1     -40.239 -49.569  11.098  1.00  0.00     0.155 C 
BRANCH  14  15
HETATM   15  C   UNL     1     -41.228 -48.411  10.921  1.00  0.00     0.132 C 
HETATM   16  C   UNL     1     -40.553 -47.068  11.172  1.00  0.00     0.041 C 
BRANCH  15  17
HETATM   17  O   UNL     1     -41.743 -48.437   9.583  1.00  0.00    -0.394 OA
HETATM   18  H   UNL     1     -41.075 -48.861   9.018  1.00  0.00     0.210 HD
ENDBRANCH  15  17
ENDBRANCH  14  15
ENDBRANCH  10  14
ENDBRANCH   1   8
BRANCH   7  19
HETATM   19  N   UNL     1     -44.376 -52.442  13.499  1.00  0.00    -0.366 N 
HETATM   20  C   UNL     1     -45.324 -52.976  12.532  1.00  0.00     0.124 C 
HETATM   21  C   UNL     1     -46.583 -52.120  12.685  1.00  0.00     0.021 C 
HETATM   22  C   UNL     1     -46.421 -51.393  14.010  1.00  0.00     0.021 C 
HETATM   23  C   UNL     1     -44.915 -51.307  14.226  1.00  0.00     0.124 C 
ENDBRANCH   7  19
TORSDOF 5
ENDMDL
MODEL 4
REMARK VINA RESULT:      -5.9      3.012      4.023
REMARK  5 active torsions:
REMARK  status: ('A' for Active; 'I' for Inactive)
REMARK    1  A    between atoms: C_2  and  O_3 
REMARK    2  A    between atoms: C_2  and  C_4 
REMARK    3  A    between atoms: C_4  and  N_5 
REMARK       I    between atoms: N_5  and  C_6 
REMARK       I    between atoms: C_6  and  N_8 
REMARK    4  A    between atoms: N_8  and  C_9 
REMARK    5  A    between atoms: C_15  and  N_16 
ROOT
HETATM    1  C   UNL     1     -40.017 -45.990  11.415  1.00  0.00     0.060 A 
HETATM    2  C   UNL     1     -39.586 -44.660  11.433  1.00  0.00     0.029 A 
HETATM    3  C   UNL     1     -39.096 -44.126  12.614  1.00  0.00     0.019 A 
HETATM    4  C   UNL     1     -39.023 -44.963  13.715  1.00  0.00     0.090 A 
HETATM    5  N   UNL     1     -39.379 -46.266  13.707  1.00  0.00    -0.351 N 
ATOM      6  HN  UNL     1     -39.275 -46.837  14.546  1.00  0.00     0.166 HD
HETATM    7  C   UNL     1     -39.876 -46.803  12.565  1.00  0.00     0.125 A 
ENDROOT
BRANCH   1   8
HETATM    8  N   UNL     1     -40.727 -46.419  10.263  1.00  0.00    -0.207 NA
HETATM    9  C   UNL     1     -42.075 -46.098  10.218  1.00  0.00     0.298 C 
HETATM   10  N   UNL     1     -42.629 -46.498   9.022  1.00  0.00    -0.345 N 
HETATM   11  O   UNL     1     -42.697 -45.461  11.056  1.00  0.00    -0.254 OA
HETATM   12  H   UNL     1     -42.317 -47.414   8.726  1.00  0.00     0.163 HD
HETATM   13  H   UNL     1     -40.303 -46.176   9.380  1.00  0.00     0.138 HD
BRANCH  10  14
HETATM   14  C   UNL     1     -44.025 -46.200   8.768  1.00  0.00     0.155 C 
BRANCH  14  15
HETATM   15  C   UNL     1     -44.914 -47.446   8.851  1.00  0.00     0.132 C 
HETATM   16  C   UNL     1     -46.370 -47.069   9.094  1.00  0.00     0.041 C 
BRANCH  15  17
HETATM   17  O   UNL     1     -44.813 -48.174   7.620  1.00  0.00    -0.394 OA
HETATM   18  H   UNL     1     -44.289 -48.974   7.793  1.00  0.00     0.210 HD
ENDBRANCH  15  17
ENDBRANCH  14  15
ENDBRANCH  10  14
ENDBRANCH   1   8
BRANCH   7  19
HETATM   19  N   UNL     1     -40.201 -48.146  12.568  1.00  0.00    -0.366 N 
HETATM   20  C   UNL     1     -41.552 -48.627  12.812  1.00  0.00     0.124 C 
HETATM   21  C   UNL     1     -41.613 -50.010  12.160  1.00  0.00     0.021 C 
HETATM   22  C   UNL     1     -40.407 -50.076  11.237  1.00  0.00     0.021 C 
HETATM   23  C   UNL     1     -39.395 -49.115  11.847  1.00  0.00     0.124 C 
ENDBRANCH   7  19
TORSDOF 5
ENDMDL
MODEL 5
REMARK VINA RESULT:      -5.8      2.367      5.209
REMARK  5 active torsions:
REMARK  status: ('A' for Active; 'I' for Inactive)
REMARK    1  A    between atoms: C_2  and  O_3 
REMARK    2  A    between atoms: C_2  and  C_4 
REMARK    3  A    between atoms: C_4  and  N_5 
REMARK       I    between atoms: N_5  and  C_6 
REMARK       I    between atoms: C_6  and  N_8 
REMARK    4  A    between atoms: N_8  and  C_9 
REMARK    5  A    between atoms: C_15  and  N_16 
ROOT
HETATM    1  C   UNL     1     -40.712 -49.005  11.015  1.00  0.00     0.060 A 
HETATM    2  C   UNL     1     -41.726 -48.263  10.401  1.00  0.00     0.029 A 
HETATM    3  C   UNL     1     -41.770 -46.892  10.593  1.00  0.00     0.019 A 
HETATM    4  C   UNL     1     -40.770 -46.319  11.362  1.00  0.00     0.090 A 
HETATM    5  N   UNL     1     -39.748 -47.006  11.918  1.00  0.00    -0.351 N 
ATOM      6  HN  UNL     1     -39.027 -46.520  12.451  1.00  0.00     0.166 HD
HETATM    7  C   UNL     1     -39.697 -48.351  11.754  1.00  0.00     0.125 A 
ENDROOT
BRANCH   1   8
HETATM    8  N   UNL     1     -40.844 -50.417  10.989  1.00  0.00    -0.207 NA
HETATM    9  C   UNL     1     -41.569 -50.985  12.026  1.00  0.00     0.298 C 
HETATM   10  N   UNL     1     -41.690 -52.346  11.844  1.00  0.00    -0.345 N 
HETATM   11  O   UNL     1     -42.125 -50.386  12.935  1.00  0.00    -0.254 OA
HETATM   12  H   UNL     1     -40.835 -52.782  11.527  1.00  0.00     0.163 HD
HETATM   13  H   UNL     1     -41.166 -50.804  10.115  1.00  0.00     0.138 HD
BRANCH  10  14
HETATM   14  C   UNL     1     -42.464 -53.108  12.804  1.00  0.00     0.155 C 
BRANCH  14  15
HETATM   15  C   UNL     1     -43.914 -53.318  12.352  1.00  0.00     0.132 C 
HETATM   16  C   UNL     1     -44.609 -54.373  13.204  1.00  0.00     0.041 C 
BRANCH  15  17
HETATM   17  O   UNL     1     -44.622 -52.077  12.466  1.00  0.00    -0.394 OA
HETATM   18  H   UNL     1     -43.997 -51.361  12.260  1.00  0.00     0.210 HD
ENDBRANCH  15  17
ENDBRANCH  14  15
ENDBRANCH  10  14
ENDBRANCH   1   8
BRANCH   7  19
HETATM   19  N   UNL     1     -38.624 -49.030  12.301  1.00  0.00    -0.366 N 
HETATM   20  C   UNL     1     -38.640 -49.565  13.654  1.00  0.00     0.124 C 
HETATM   21  C   UNL     1     -37.606 -50.692  13.655  1.00  0.00     0.021 C 
HETATM   22  C   UNL     1     -37.337 -50.997  12.191  1.00  0.00     0.021 C 
HETATM   23  C   UNL     1     -37.651 -49.699  11.458  1.00  0.00     0.124 C 
ENDBRANCH   7  19
TORSDOF 5
ENDMDL
MODEL 6
REMARK VINA RESULT:      -5.8      1.265      3.377
REMARK  5 active torsions:
REMARK  status: ('A' for Active; 'I' for Inactive)
REMARK    1  A    between atoms: C_2  and  O_3 
REMARK    2  A    between atoms: C_2  and  C_4 
REMARK    3  A    between atoms: C_4  and  N_5 
REMARK       I    between atoms: N_5  and  C_6 
REMARK       I    between atoms: C_6  and  N_8 
REMARK    4  A    between atoms: N_8  and  C_9 
REMARK    5  A    between atoms: C_15  and  N_16 
ROOT
HETATM    1  C   UNL     1     -40.930 -51.864  12.351  1.00  0.00     0.060 A 
HETATM    2  C   UNL     1     -41.961 -52.808  12.300  1.00  0.00     0.029 A 
HETATM    3  C   UNL     1     -41.951 -53.866  13.194  1.00  0.00     0.019 A 
HETATM    4  C   UNL     1     -40.928 -53.909  14.126  1.00  0.00     0.090 A 
HETATM    5  N   UNL     1     -39.953 -52.979  14.232  1.00  0.00    -0.351 N 
ATOM      6  HN  UNL     1     -39.242 -53.054  14.960  1.00  0.00     0.166 HD
HETATM    7  C   UNL     1     -39.937 -51.944  13.356  1.00  0.00     0.125 A 
ENDROOT
BRANCH   1   8
HETATM    8  N   UNL     1     -40.850 -50.942  11.275  1.00  0.00    -0.207 NA
HETATM    9  C   UNL     1     -41.521 -49.741  11.443  1.00  0.00     0.298 C 
HETATM   10  N   UNL     1     -41.301 -48.908  10.368  1.00  0.00    -0.345 N 
HETATM   11  O   UNL     1     -42.145 -49.392  12.435  1.00  0.00    -0.254 OA
HETATM   12  H   UNL     1     -41.340 -49.388   9.479  1.00  0.00     0.163 HD
HETATM   13  H   UNL     1     -39.917 -50.751  10.939  1.00  0.00     0.138 HD
BRANCH  10  14
HETATM   14  C   UNL     1     -41.882 -47.579  10.389  1.00  0.00     0.155 C 
BRANCH  14  15
HETATM   15  C   UNL     1     -42.942 -47.388   9.298  1.00  0.00     0.132 C 
HETATM   16  C   UNL     1     -44.346 -47.383   9.890  1.00  0.00     0.041 C 
BRANCH  15  17
HETATM   17  O   UNL     1     -42.706 -46.140   8.632  1.00  0.00    -0.394 OA
HETATM   18  H   UNL     1     -42.665 -46.319   7.677  1.00  0.00     0.210 HD
ENDBRANCH  15  17
ENDBRANCH  14  15
ENDBRANCH  10  14
ENDBRANCH   1   8
BRANCH   7  19
HETATM   19  N   UNL     1     -38.953 -50.985  13.504  1.00  0.00    -0.366 N 
HETATM   20  C   UNL     1     -37.885 -50.798  12.534  1.00  0.00     0.124 C 
HETATM   21  C   UNL     1     -37.415 -49.355  12.723  1.00  0.00     0.021 C 
HETATM   22  C   UNL     1     -38.510 -48.674  13.527  1.00  0.00     0.021 C 
HETATM   23  C   UNL     1     -39.177 -49.798  14.309  1.00  0.00     0.124 C 
ENDBRANCH   7  19
TORSDOF 5
ENDMDL
MODEL 7
REMARK VINA RESULT:      -5.8      2.744      6.601
REMARK  5 active torsions:
REMARK  status: ('A' for Active; 'I' for Inactive)
REMARK    1  A    between atoms: C_2  and  O_3 
REMARK    2  A    between atoms: C_2  and  C_4 
REMARK    3  A    between atoms: C_4  and  N_5 
REMARK       I    between atoms: N_5  and  C_6 
REMARK       I    between atoms: C_6  and  N_8 
REMARK    4  A    between atoms: N_8  and  C_9 
REMARK    5  A    between atoms: C_15  and  N_16 
ROOT
HETATM    1  C   UNL     1     -41.059 -45.667  11.007  1.00  0.00     0.060 A 
HETATM    2  C   UNL     1     -40.292 -44.738  11.720  1.00  0.00     0.029 A 
HETATM    3  C   UNL     1     -40.810 -43.475  11.954  1.00  0.00     0.019 A 
HETATM    4  C   UNL     1     -42.089 -43.210  11.496  1.00  0.00     0.090 A 
HETATM    5  N   UNL     1     -42.871 -44.107  10.857  1.00  0.00    -0.351 N 
ATOM      6  HN  UNL     1     -43.818 -43.858  10.569  1.00  0.00     0.166 HD
HETATM    7  C   UNL     1     -42.377 -45.345  10.604  1.00  0.00     0.125 A 
ENDROOT
BRANCH   1   8
HETATM    8  N   UNL     1     -40.403 -46.852  10.586  1.00  0.00    -0.207 NA
HETATM    9  C   UNL     1     -40.339 -47.881  11.514  1.00  0.00     0.298 C 
HETATM   10  N   UNL     1     -39.752 -48.998  10.960  1.00  0.00    -0.345 N 
HETATM   11  O   UNL     1     -40.816 -47.873  12.639  1.00  0.00    -0.254 OA
HETATM   12  H   UNL     1     -38.945 -48.781  10.389  1.00  0.00     0.163 HD
HETATM   13  H   UNL     1     -40.716 -47.228   9.703  1.00  0.00     0.138 HD
BRANCH  10  14
HETATM   14  C   UNL     1     -39.644 -50.198  11.766  1.00  0.00     0.155 C 
BRANCH  14  15
HETATM   15  C   UNL     1     -38.196 -50.512  12.156  1.00  0.00     0.132 C 
HETATM   16  C   UNL     1     -37.223 -50.052  11.078  1.00  0.00     0.041 C 
BRANCH  15  17
HETATM   17  O   UNL     1     -37.888 -49.842  13.386  1.00  0.00    -0.394 OA
HETATM   18  H   UNL     1     -36.962 -50.041  13.607  1.00  0.00     0.210 HD
ENDBRANCH  15  17
ENDBRANCH  14  15
ENDBRANCH  10  14
ENDBRANCH   1   8
BRANCH   7  19
HETATM   19  N   UNL     1     -43.205 -46.258   9.980  1.00  0.00    -0.366 N 
HETATM   20  C   UNL     1     -43.840 -47.357  10.692  1.00  0.00     0.124 C 
HETATM   21  C   UNL     1     -45.066 -47.726   9.854  1.00  0.00     0.021 C 
HETATM   22  C   UNL     1     -45.281 -46.554   8.911  1.00  0.00     0.021 C 
HETATM   23  C   UNL     1     -43.903 -45.923   8.753  1.00  0.00     0.124 C 
ENDBRANCH   7  19
TORSDOF 5
ENDMDL
MODEL 8
REMARK VINA RESULT:      -5.8      2.400      5.727
REMARK  5 active torsions:
REMARK  status: ('A' for Active; 'I' for Inactive)
REMARK    1  A    between atoms: C_2  and  O_3 
REMARK    2  A    between atoms: C_2  and  C_4 
REMARK    3  A    between atoms: C_4  and  N_5 
REMARK       I    between atoms: N_5  and  C_6 
REMARK       I    between atoms: C_6  and  N_8 
REMARK    4  A    between atoms: N_8  and  C_9 
REMARK    5  A    between atoms: C_15  and  N_16 
ROOT
HETATM    1  C   UNL     1     -40.632 -48.953  10.940  1.00  0.00     0.060 A 
HETATM    2  C   UNL     1     -41.688 -48.235  10.369  1.00  0.00     0.029 A 
HETATM    3  C   UNL     1     -41.838 -46.893  10.682  1.00  0.00     0.019 A 
HETATM    4  C   UNL     1     -40.899 -46.321  11.523  1.00  0.00     0.090 A 
HETATM    5  N   UNL     1     -39.838 -46.979  12.041  1.00  0.00    -0.351 N 
ATOM      6  HN  UNL     1     -39.166 -46.492  12.633  1.00  0.00     0.166 HD
HETATM    7  C   UNL     1     -39.683 -48.296  11.759  1.00  0.00     0.125 A 
ENDROOT
BRANCH   1   8
HETATM    8  N   UNL     1     -40.657 -50.363  10.785  1.00  0.00    -0.207 NA
HETATM    9  C   UNL     1     -41.213 -51.086  11.829  1.00  0.00     0.298 C 
HETATM   10  N   UNL     1     -41.249 -52.429  11.524  1.00  0.00    -0.345 N 
HETATM   11  O   UNL     1     -41.706 -50.624  12.848  1.00  0.00    -0.254 OA
HETATM   12  H   UNL     1     -40.404 -52.757  11.075  1.00  0.00     0.163 HD
HETATM   13  H   UNL     1     -41.046 -50.694   9.914  1.00  0.00     0.138 HD
BRANCH  10  14
HETATM   14  C   UNL     1     -41.848 -53.342  12.478  1.00  0.00     0.155 C 
BRANCH  14  15
HETATM   15  C   UNL     1     -40.872 -53.749  13.588  1.00  0.00     0.132 C 
HETATM   16  C   UNL     1     -41.576 -54.562  14.668  1.00  0.00     0.041 C 
BRANCH  15  17
HETATM   17  O   UNL     1     -39.817 -54.535  13.018  1.00  0.00    -0.394 OA
HETATM   18  H   UNL     1     -39.893 -54.473  12.050  1.00  0.00     0.210 HD
ENDBRANCH  15  17
ENDBRANCH  14  15
ENDBRANCH  10  14
ENDBRANCH   1   8
BRANCH   7  19
HETATM   19  N   UNL     1     -38.573 -48.941  12.270  1.00  0.00    -0.366 N 
HETATM   20  C   UNL     1     -38.495 -49.400  13.648  1.00  0.00     0.124 C 
HETATM   21  C   UNL     1     -37.456 -50.523  13.643  1.00  0.00     0.021 C 
HETATM   22  C   UNL     1     -37.284 -50.909  12.183  1.00  0.00     0.021 C 
HETATM   23  C   UNL     1     -37.654 -49.654  11.402  1.00  0.00     0.124 C 
ENDBRANCH   7  19
TORSDOF 5
ENDMDL
MODEL 9
REMARK VINA RESULT:      -5.6      2.666      5.552
REMARK  5 active torsions:
REMARK  status: ('A' for Active; 'I' for Inactive)
REMARK    1  A    between atoms: C_2  and  O_3 
REMARK    2  A    between atoms: C_2  and  C_4 
REMARK    3  A    between atoms: C_4  and  N_5 
REMARK       I    between atoms: N_5  and  C_6 
REMARK       I    between atoms: C_6  and  N_8 
REMARK    4  A    between atoms: N_8  and  C_9 
REMARK    5  A    between atoms: C_15  and  N_16 
ROOT
HETATM    1  C   UNL     1     -40.278 -50.748  12.038  1.00  0.00     0.060 A 
HETATM    2  C   UNL     1     -39.082 -51.317  12.487  1.00  0.00     0.029 A 
HETATM    3  C   UNL     1     -37.987 -50.498  12.707  1.00  0.00     0.019 A 
HETATM    4  C   UNL     1     -38.150 -49.138  12.504  1.00  0.00     0.090 A 
HETATM    5  N   UNL     1     -39.310 -48.558  12.125  1.00  0.00    -0.351 N 
ATOM      6  HN  UNL     1     -39.373 -47.546  12.019  1.00  0.00     0.166 HD
HETATM    7  C   UNL     1     -40.390 -49.344  11.890  1.00  0.00     0.125 A 
ENDROOT
BRANCH   1   8
HETATM    8  N   UNL     1     -41.290 -51.641  11.600  1.00  0.00    -0.207 NA
HETATM    9  C   UNL     1     -42.300 -51.918  12.509  1.00  0.00     0.298 C 
HETATM   10  N   UNL     1     -43.256 -52.730  11.938  1.00  0.00    -0.345 N 
HETATM   11  O   UNL     1     -42.415 -51.445  13.630  1.00  0.00    -0.254 OA
HETATM   12  H   UNL     1     -42.862 -53.475  11.378  1.00  0.00     0.163 HD
HETATM   13  H   UNL     1     -41.705 -51.419  10.707  1.00  0.00     0.138 HD
BRANCH  10  14
HETATM   14  C   UNL     1     -44.422 -53.087  12.723  1.00  0.00     0.155 C 
BRANCH  14  15
HETATM   15  C   UNL     1     -44.389 -54.546  13.189  1.00  0.00     0.132 C 
HETATM   16  C   UNL     1     -43.674 -54.681  14.528  1.00  0.00     0.041 C 
BRANCH  15  17
HETATM   17  O   UNL     1     -45.735 -55.024  13.323  1.00  0.00    -0.394 OA
HETATM   18  H   UNL     1     -46.126 -55.055  12.433  1.00  0.00     0.210 HD
ENDBRANCH  15  17
ENDBRANCH  14  15
ENDBRANCH  10  14
ENDBRANCH   1   8
BRANCH   7  19
HETATM   19  N   UNL     1     -41.576 -48.728  11.538  1.00  0.00    -0.366 N 
HETATM   20  C   UNL     1     -42.479 -48.145  12.519  1.00  0.00     0.124 C 
HETATM   21  C   UNL     1     -43.289 -47.099  11.750  1.00  0.00     0.021 C 
HETATM   22  C   UNL     1     -42.528 -46.868  10.456  1.00  0.00     0.021 C 
HETATM   23  C   UNL     1     -41.765 -48.164  10.214  1.00  0.00     0.124 C 
ENDBRANCH   7  19
TORSDOF 5
ENDMDL
