MODEL 1
REMARK VINA RESULT:      -6.3      0.000      0.000
REMARK  5 active torsions:
REMARK  status: ('A' for Active; 'I' for Inactive)
REMARK       I    between atoms: N_1  and  C_2 
REMARK    1  A    between atoms: C_2  and  C_4 
REMARK    2  A    between atoms: C_4  and  N_5 
REMARK    3  A    between atoms: C_7  and  N_8 
REMARK       I    between atoms: N_8  and  C_9 
REMARK       I    between atoms: C_9  and  N_11 
REMARK    4  A    between atoms: N_11  and  C_12 
REMARK    5  A    between atoms: C_15  and  O_16 
ROOT
HETATM    1  N   UNL     1     -40.097 -49.900  10.707  1.00  0.00    -0.208 NA
HETATM    2  C   UNL     1     -40.878 -48.788  10.988  1.00  0.00     0.299 C 
HETATM    3  O   UNL     1     -40.845 -48.129  12.018  1.00  0.00    -0.254 OA
HETATM    4  N   UNL     1     -41.736 -48.516   9.933  1.00  0.00    -0.343 N 
HETATM    5  H   UNL     1     -40.611 -50.555  10.144  1.00  0.00     0.138 HD
HETATM    6  H   UNL     1     -41.604 -49.032   9.076  1.00  0.00     0.164 HD
ENDROOT
BRANCH   1   7
HETATM    7  C   UNL     1     -39.403 -50.503  11.744  1.00  0.00     0.050 A 
HETATM    8  C   UNL     1     -39.950 -51.451  12.572  1.00  0.00     0.136 A 
HETATM    9  N   UNL     1     -38.980 -51.764  13.483  1.00  0.00    -0.293 N 
HETATM   10  N   UNL     1     -37.794 -51.164  13.220  1.00  0.00    -0.308 N 
HETATM   11  C   UNL     1     -38.071 -50.360  12.183  1.00  0.00     0.132 A 
ATOM     12  HN  UNL     1     -36.903 -51.294  13.698  1.00  0.00     0.186 HD
BRANCH   9  13
HETATM   13  C   UNL     1     -39.116 -52.687  14.598  1.00  0.00     0.250 C 
BRANCH  13  14
HETATM   14  C   UNL     1     -39.652 -54.047  14.208  1.00  0.00     0.235 C 
HETATM   15  N   UNL     1     -38.780 -54.936  13.652  1.00  0.00    -0.369 N 
HETATM   16  H   UNL     1     -39.108 -55.868  13.449  1.00  0.00     0.159 HD
HETATM   17  H   UNL     1     -37.776 -54.774  13.738  1.00  0.00     0.159 HD
HETATM   18  O   UNL     1     -40.848 -54.326  14.297  1.00  0.00    -0.272 OA
ENDBRANCH  13  14
ENDBRANCH   9  13
ENDBRANCH   1   7
BRANCH   4  19
HETATM   19  C   UNL     1     -42.501 -47.274   9.881  1.00  0.00     0.085 C 
HETATM   20  C   UNL     1     -43.712 -47.278  10.834  1.00  0.00     0.028 C 
HETATM   21  C   UNL     1     -45.018 -47.848  10.264  1.00  0.00     0.034 C 
HETATM   22  C   UNL     1     -45.305 -47.431   8.825  1.00  0.00     0.118 C 
HETATM   23  C   UNL     1     -44.095 -47.687   7.931  1.00  0.00     0.034 C 
HETATM   24  C   UNL     1     -42.865 -46.937   8.424  1.00  0.00     0.028 C 
BRANCH  22  25
HETATM   25  O   UNL     1     -45.689 -46.060   8.757  1.00  0.00    -0.396 OA
HETATM   26  H   UNL     1     -45.373 -45.596   9.548  1.00  0.00     0.210 HD
ENDBRANCH  22  25
ENDBRANCH   4  19
TORSDOF 5
ENDMDL
MODEL 2
REMARK VINA RESULT:      -6.2      3.696      7.284
REMARK  5 active torsions:
REMARK  status: ('A' for Active; 'I' for Inactive)
REMARK       I    between atoms: N_1  and  C_2 
REMARK    1  A    between atoms: C_2  and  C_4 
REMARK    2  A    between atoms: C_4  and  N_5 
REMARK    3  A    between atoms: C_7  and  N_8 
REMARK       I    between atoms: N_8  and  C_9 
REMARK       I    between atoms: C_9  and  N_11 
REMARK    4  A    between atoms: N_11  and  C_12 
REMARK    5  A    between atoms: C_15  and  O_16 
ROOT
HETATM    1  N   UNL     1     -42.041 -50.082  11.600  1.00  0.00    -0.208 NA
HETATM    2  C   UNL     1     -42.771 -50.226  12.771  1.00  0.00     0.299 C 
HETATM    3  O   UNL     1     -43.356 -49.331  13.366  1.00  0.00    -0.254 OA
HETATM    4  N   UNL     1     -42.743 -51.543  13.206  1.00  0.00    -0.343 N 
HETATM    5  H   UNL     1     -41.263 -50.720  11.593  1.00  0.00     0.138 HD
HETATM    6  H   UNL     1     -42.346 -52.232  12.586  1.00  0.00     0.164 HD
ENDROOT
BRANCH   1   7
HETATM    7  C   UNL     1     -41.702 -48.806  11.181  1.00  0.00     0.050 A 
HETATM    8  C   UNL     1     -40.587 -48.137  11.617  1.00  0.00     0.136 A 
HETATM    9  N   UNL     1     -40.625 -46.908  11.019  1.00  0.00    -0.293 N 
HETATM   10  N   UNL     1     -41.634 -46.785  10.125  1.00  0.00    -0.308 N 
HETATM   11  C   UNL     1     -42.316 -47.932  10.261  1.00  0.00     0.132 A 
ATOM     12  HN  UNL     1     -41.830 -46.006   9.497  1.00  0.00     0.186 HD
BRANCH   9  13
HETATM   13  C   UNL     1     -39.675 -45.825  11.222  1.00  0.00     0.250 C 
BRANCH  13  14
HETATM   14  C   UNL     1     -39.716 -44.763  10.146  1.00  0.00     0.235 C 
HETATM   15  N   UNL     1     -38.841 -44.880   9.106  1.00  0.00    -0.369 N 
HETATM   16  H   UNL     1     -38.902 -44.216   8.348  1.00  0.00     0.159 HD
HETATM   17  H   UNL     1     -38.371 -45.772   8.944  1.00  0.00     0.159 HD
HETATM   18  O   UNL     1     -40.441 -43.772  10.236  1.00  0.00    -0.272 OA
ENDBRANCH  13  14
ENDBRANCH   9  13
ENDBRANCH   1   7
BRANCH   4  19
HETATM   19  C   UNL     1     -43.612 -52.002  14.285  1.00  0.00     0.085 C 
HETATM   20  C   UNL     1     -43.041 -53.222  15.033  1.00  0.00     0.028 C 
HETATM   21  C   UNL     1     -43.401 -54.597  14.456  1.00  0.00     0.034 C 
HETATM   22  C   UNL     1     -44.849 -54.719  13.990  1.00  0.00     0.118 C 
HETATM   23  C   UNL     1     -45.226 -53.561  13.071  1.00  0.00     0.034 C 
HETATM   24  C   UNL     1     -45.042 -52.215  13.759  1.00  0.00     0.028 C 
BRANCH  22  25
HETATM   25  O   UNL     1     -45.739 -54.777  15.102  1.00  0.00    -0.396 OA
HETATM   26  H   UNL     1     -46.561 -54.309  14.883  1.00  0.00     0.210 HD
ENDBRANCH  22  25
ENDBRANCH   4  19
TORSDOF 5
ENDMDL
MODEL 3
REMARK VINA RESULT:      -6.1      2.010      2.552
REMARK  5 active torsions:
REMARK  status: ('A' for Active; 'I' for Inactive)
REMARK       I    between atoms: N_1  and  C_2 
REMARK    1  A    between atoms: C_2  and  C_4 
REMARK    2  A    between atoms: C_4  and  N_5 
REMARK    3  A    between atoms: C_7  and  N_8 
REMARK       I    between atoms: N_8  and  C_9 
REMARK       I    between atoms: C_9  and  N_11 
REMARK    4  A    between atoms: N_11  and  C_12 
REMARK    5  A    between atoms: C_15  and  O_16 
ROOT
HETATM    1  N   UNL     1     -41.622 -50.652  11.791  1.00  0.00    -0.208 NA
HETATM    2  C   UNL     1     -42.589 -49.700  12.082  1.00  0.00     0.299 C 
HETATM    3  O   UNL     1     -43.205 -49.601  13.134  1.00  0.00    -0.254 OA
HETATM    4  N   UNL     1     -42.789 -48.860  10.996  1.00  0.00    -0.343 N 
HETATM    5  H   UNL     1     -41.656 -50.898  10.816  1.00  0.00     0.138 HD
HETATM    6  H   UNL     1     -42.148 -48.935  10.221  1.00  0.00     0.164 HD
ENDROOT
BRANCH   1   7
HETATM    7  C   UNL     1     -41.502 -51.752  12.625  1.00  0.00     0.050 A 
HETATM    8  C   UNL     1     -40.572 -51.844  13.629  1.00  0.00     0.136 A 
HETATM    9  N   UNL     1     -40.739 -53.080  14.188  1.00  0.00    -0.293 N 
HETATM   10  N   UNL     1     -41.805 -53.748  13.686  1.00  0.00    -0.308 N 
HETATM   11  C   UNL     1     -42.240 -52.951  12.700  1.00  0.00     0.132 A 
ATOM     12  HN  UNL     1     -42.185 -54.645  13.987  1.00  0.00     0.186 HD
BRANCH   9  13
HETATM   13  C   UNL     1     -39.939 -53.652  15.260  1.00  0.00     0.250 C 
BRANCH  13  14
HETATM   14  C   UNL     1     -39.171 -54.892  14.857  1.00  0.00     0.235 C 
HETATM   15  N   UNL     1     -38.723 -54.970  13.571  1.00  0.00    -0.369 N 
HETATM   16  H   UNL     1     -38.153 -55.760  13.307  1.00  0.00     0.159 HD
HETATM   17  H   UNL     1     -38.691 -54.125  12.999  1.00  0.00     0.159 HD
HETATM   18  O   UNL     1     -39.026 -55.845  15.622  1.00  0.00    -0.272 OA
ENDBRANCH  13  14
ENDBRANCH   9  13
ENDBRANCH   1   7
BRANCH   4  19
HETATM   19  C   UNL     1     -43.586 -47.643  11.118  1.00  0.00     0.085 C 
HETATM   20  C   UNL     1     -44.690 -47.542  10.049  1.00  0.00     0.028 C 
HETATM   21  C   UNL     1     -44.288 -46.883   8.722  1.00  0.00     0.034 C 
HETATM   22  C   UNL     1     -43.401 -45.651   8.881  1.00  0.00     0.118 C 
HETATM   23  C   UNL     1     -42.214 -45.948   9.792  1.00  0.00     0.034 C 
HETATM   24  C   UNL     1     -42.665 -46.410  11.171  1.00  0.00     0.028 C 
BRANCH  22  25
HETATM   25  O   UNL     1     -44.147 -44.547   9.387  1.00  0.00    -0.396 OA
HETATM   26  H   UNL     1     -45.049 -44.836   9.601  1.00  0.00     0.210 HD
ENDBRANCH  22  25
ENDBRANCH   4  19
TORSDOF 5
ENDMDL
MODEL 4
REMARK VINA RESULT:      -6.0      4.137      7.645
REMARK  5 active torsions:
REMARK  status: ('A' for Active; 'I' for Inactive)
REMARK       I    between atoms: N_1  and  C_2 
REMARK    1  A    between atoms: C_2  and  C_4 
REMARK    2  A    between atoms: C_4  and  N_5 
REMARK    3  A    between atoms: C_7  and  N_8 
REMARK       I    between atoms: N_8  and  C_9 
REMARK       I    between atoms: C_9  and  N_11 
REMARK    4  A    between atoms: N_11  and  C_12 
REMARK    5  A    between atoms: C_15  and  O_16 
ROOT
HETATM    1  N   UNL     1     -43.636 -49.021  11.786  1.00  0.00    -0.208 NA
HETATM    2  C   UNL     1     -43.288 -49.817  12.868  1.00  0.00     0.299 C 
HETATM    3  O   UNL     1     -42.353 -49.621  13.632  1.00  0.00    -0.254 OA
HETATM    4  N   UNL     1     -44.147 -50.902  12.971  1.00  0.00    -0.343 N 
HETATM    5  H   UNL     1     -44.011 -49.586  11.043  1.00  0.00     0.138 HD
HETATM    6  H   UNL     1     -44.962 -50.912  12.378  1.00  0.00     0.164 HD
ENDROOT
BRANCH   1   7
HETATM    7  C   UNL     1     -42.729 -48.072  11.342  1.00  0.00     0.050 A 
HETATM    8  C   UNL     1     -42.771 -46.752  11.711  1.00  0.00     0.136 A 
HETATM    9  N   UNL     1     -41.752 -46.137  11.039  1.00  0.00    -0.293 N 
HETATM   10  N   UNL     1     -40.974 -47.005  10.349  1.00  0.00    -0.308 N 
HETATM   11  C   UNL     1     -41.603 -48.180  10.501  1.00  0.00     0.132 A 
ATOM     12  HN  UNL     1     -40.115 -46.810   9.835  1.00  0.00     0.186 HD
BRANCH   9  13
HETATM   13  C   UNL     1     -41.436 -44.718  11.071  1.00  0.00     0.250 C 
BRANCH  13  14
HETATM   14  C   UNL     1     -42.650 -43.817  11.012  1.00  0.00     0.235 C 
HETATM   15  N   UNL     1     -43.053 -43.220  12.171  1.00  0.00    -0.369 N 
HETATM   16  H   UNL     1     -43.819 -42.565  12.134  1.00  0.00     0.159 HD
HETATM   17  H   UNL     1     -42.413 -43.187  12.967  1.00  0.00     0.159 HD
HETATM   18  O   UNL     1     -43.317 -43.689   9.986  1.00  0.00    -0.272 OA
ENDBRANCH  13  14
ENDBRANCH   9  13
ENDBRANCH   1   7
BRANCH   4  19
HETATM   19  C   UNL     1     -44.137 -51.765  14.148  1.00  0.00     0.085 C 
HETATM   20  C   UNL     1     -43.734 -53.215  13.823  1.00  0.00     0.028 C 
HETATM   21  C   UNL     1     -44.874 -54.158  13.414  1.00  0.00     0.034 C 
HETATM   22  C   UNL     1     -46.148 -53.990  14.237  1.00  0.00     0.118 C 
HETATM   23  C   UNL     1     -46.569 -52.524  14.297  1.00  0.00     0.034 C 
HETATM   24  C   UNL     1     -45.476 -51.651  14.899  1.00  0.00     0.028 C 
BRANCH  22  25
HETATM   25  O   UNL     1     -45.978 -54.510  15.553  1.00  0.00    -0.396 OA
HETATM   26  H   UNL     1     -45.211 -55.105  15.569  1.00  0.00     0.210 HD
ENDBRANCH  22  25
ENDBRANCH   4  19
TORSDOF 5
ENDMDL
MODEL 5
REMARK VINA RESULT:      -5.9      2.616      7.606
REMARK  5 active torsions:
REMARK  status: ('A' for Active; 'I' for Inactive)
REMARK       I    between atoms: N_1  and  C_2 
REMARK    1  A    between atoms: C_2  and  C_4 
REMARK    2  A    between atoms: C_4  and  N_5 
REMARK    3  A    between atoms: C_7  and  N_8 
REMARK       I    between atoms: N_8  and  C_9 
REMARK       I    between atoms: C_9  and  N_11 
REMARK    4  A    between atoms: N_11  and  C_12 
REMARK    5  A    between atoms: C_15  and  O_16 
ROOT
HETATM    1  N   UNL     1     -41.899 -49.515  12.974  1.00  0.00    -0.208 NA
HETATM    2  C   UNL     1     -41.661 -50.862  12.739  1.00  0.00     0.299 C 
HETATM    3  O   UNL     1     -41.130 -51.334  11.742  1.00  0.00    -0.254 OA
HETATM    4  N   UNL     1     -42.125 -51.632  13.795  1.00  0.00    -0.343 N 
HETATM    5  H   UNL     1     -42.749 -49.397  13.498  1.00  0.00     0.138 HD
HETATM    6  H   UNL     1     -42.430 -51.150  14.627  1.00  0.00     0.164 HD
ENDROOT
BRANCH   1   7
HETATM    7  C   UNL     1     -41.784 -48.627  11.917  1.00  0.00     0.050 A 
HETATM    8  C   UNL     1     -42.848 -48.214  11.156  1.00  0.00     0.136 A 
HETATM    9  N   UNL     1     -42.330 -47.386  10.199  1.00  0.00    -0.293 N 
HETATM   10  N   UNL     1     -41.010 -47.140  10.369  1.00  0.00    -0.308 N 
HETATM   11  C   UNL     1     -40.672 -47.937  11.394  1.00  0.00     0.132 A 
ATOM     12  HN  UNL     1     -40.414 -46.502   9.843  1.00  0.00     0.186 HD
BRANCH   9  13
HETATM   13  C   UNL     1     -43.073 -46.747   9.124  1.00  0.00     0.250 C 
BRANCH  13  14
HETATM   14  C   UNL     1     -43.746 -47.718   8.179  1.00  0.00     0.235 C 
HETATM   15  N   UNL     1     -42.988 -48.261   7.184  1.00  0.00    -0.369 N 
HETATM   16  H   UNL     1     -43.406 -48.960   6.588  1.00  0.00     0.159 HD
HETATM   17  H   UNL     1     -41.970 -48.206   7.240  1.00  0.00     0.159 HD
HETATM   18  O   UNL     1     -44.954 -47.951   8.236  1.00  0.00    -0.272 OA
ENDBRANCH  13  14
ENDBRANCH   9  13
ENDBRANCH   1   7
BRANCH   4  19
HETATM   19  C   UNL     1     -41.799 -53.050  13.898  1.00  0.00     0.085 C 
HETATM   20  C   UNL     1     -42.866 -53.957  13.257  1.00  0.00     0.028 C 
HETATM   21  C   UNL     1     -44.025 -54.384  14.168  1.00  0.00     0.034 C 
HETATM   22  C   UNL     1     -43.601 -54.755  15.586  1.00  0.00     0.118 C 
HETATM   23  C   UNL     1     -42.724 -53.665  16.195  1.00  0.00     0.034 C 
HETATM   24  C   UNL     1     -41.477 -53.415  15.358  1.00  0.00     0.028 C 
BRANCH  22  25
HETATM   25  O   UNL     1     -42.918 -56.006  15.603  1.00  0.00    -0.396 OA
HETATM   26  H   UNL     1     -41.969 -55.858  15.465  1.00  0.00     0.210 HD
ENDBRANCH  22  25
ENDBRANCH   4  19
TORSDOF 5
ENDMDL
MODEL 6
REMARK VINA RESULT:      -5.8      3.620      7.133
REMARK  5 active torsions:
REMARK  status: ('A' for Active; 'I' for Inactive)
REMARK       I    between atoms: N_1  and  C_2 
REMARK    1  A    between atoms: C_2  and  C_4 
REMARK    2  A    between atoms: C_4  and  N_5 
REMARK    3  A    between atoms: C_7  and  N_8 
REMARK       I    between atoms: N_8  and  C_9 
REMARK       I    between atoms: C_9  and  N_11 
REMARK    4  A    between atoms: N_11  and  C_12 
REMARK    5  A    between atoms: C_15  and  O_16 
ROOT
HETATM    1  N   UNL     1     -41.135 -50.459  13.405  1.00  0.00    -0.208 NA
HETATM    2  C   UNL     1     -41.663 -51.571  12.766  1.00  0.00     0.299 C 
HETATM    3  O   UNL     1     -41.520 -51.855  11.584  1.00  0.00    -0.254 OA
HETATM    4  N   UNL     1     -42.407 -52.336  13.652  1.00  0.00    -0.343 N 
HETATM    5  H   UNL     1     -41.762 -50.139  14.124  1.00  0.00     0.138 HD
HETATM    6  H   UNL     1     -42.363 -52.095  14.630  1.00  0.00     0.164 HD
ENDROOT
BRANCH   1   7
HETATM    7  C   UNL     1     -40.623 -49.429  12.632  1.00  0.00     0.050 A 
HETATM    8  C   UNL     1     -41.380 -48.385  12.163  1.00  0.00     0.136 A 
HETATM    9  N   UNL     1     -40.537 -47.613  11.414  1.00  0.00    -0.293 N 
HETATM   10  N   UNL     1     -39.249 -48.027  11.471  1.00  0.00    -0.308 N 
HETATM   11  C   UNL     1     -39.315 -49.163  12.179  1.00  0.00     0.132 A 
ATOM     12  HN  UNL     1     -38.425 -47.581  11.069  1.00  0.00     0.186 HD
BRANCH   9  13
HETATM   13  C   UNL     1     -40.903 -46.419  10.668  1.00  0.00     0.250 C 
BRANCH  13  14
HETATM   14  C   UNL     1     -39.811 -45.373  10.610  1.00  0.00     0.235 C 
HETATM   15  N   UNL     1     -39.214 -45.146   9.405  1.00  0.00    -0.369 N 
HETATM   16  H   UNL     1     -38.532 -44.406   9.338  1.00  0.00     0.159 HD
HETATM   17  H   UNL     1     -39.662 -45.483   8.552  1.00  0.00     0.159 HD
HETATM   18  O   UNL     1     -39.400 -44.803  11.622  1.00  0.00    -0.272 OA
ENDBRANCH  13  14
ENDBRANCH   9  13
ENDBRANCH   1   7
BRANCH   4  19
HETATM   19  C   UNL     1     -42.881 -53.668  13.288  1.00  0.00     0.085 C 
HETATM   20  C   UNL     1     -44.154 -53.634  12.423  1.00  0.00     0.028 C 
HETATM   21  C   UNL     1     -45.487 -53.609  13.183  1.00  0.00     0.034 C 
HETATM   22  C   UNL     1     -45.531 -54.533  14.396  1.00  0.00     0.118 C 
HETATM   23  C   UNL     1     -44.319 -54.311  15.296  1.00  0.00     0.034 C 
HETATM   24  C   UNL     1     -43.014 -54.544  14.547  1.00  0.00     0.028 C 
BRANCH  22  25
HETATM   25  O   UNL     1     -45.605 -55.899  13.995  1.00  0.00    -0.396 OA
HETATM   26  H   UNL     1     -44.971 -56.422  14.511  1.00  0.00     0.210 HD
ENDBRANCH  22  25
ENDBRANCH   4  19
TORSDOF 5
ENDMDL
MODEL 7
REMARK VINA RESULT:      -5.6      3.111      8.121
REMARK  5 active torsions:
REMARK  status: ('A' for Active; 'I' for Inactive)
REMARK       I    between atoms: N_1  and  C_2 
REMARK    1  A    between atoms: C_2  and  C_4 
REMARK    2  A    between atoms: C_4  and  N_5 
REMARK    3  A    between atoms: C_7  and  N_8 
REMARK       I    between atoms: N_8  and  C_9 
REMARK       I    between atoms: C_9  and  N_11 
REMARK    4  A    between atoms: N_11  and  C_12 
REMARK    5  A    between atoms: C_15  and  O_16 
ROOT
HETATM    1  N   UNL     1     -41.429 -47.746  12.712  1.00  0.00    -0.208 NA
HETATM    2  C   UNL     1     -40.075 -47.909  12.455  1.00  0.00     0.299 C 
HETATM    3  O   UNL     1     -39.465 -47.447  11.501  1.00  0.00    -0.254 OA
HETATM    4  N   UNL     1     -39.484 -48.696  13.433  1.00  0.00    -0.343 N 
HETATM    5  H   UNL     1     -41.803 -48.569  13.153  1.00  0.00     0.138 HD
HETATM    6  H   UNL     1     -40.035 -48.924  14.246  1.00  0.00     0.164 HD
ENDROOT
BRANCH   1   7
HETATM    7  C   UNL     1     -42.241 -47.254  11.703  1.00  0.00     0.050 A 
HETATM    8  C   UNL     1     -42.851 -48.049  10.766  1.00  0.00     0.136 A 
HETATM    9  N   UNL     1     -43.520 -47.201   9.927  1.00  0.00    -0.293 N 
HETATM   10  N   UNL     1     -43.480 -45.911  10.337  1.00  0.00    -0.308 N 
HETATM   11  C   UNL     1     -42.660 -45.943  11.398  1.00  0.00     0.132 A 
ATOM     12  HN  UNL     1     -43.960 -45.106   9.935  1.00  0.00     0.186 HD
BRANCH   9  13
HETATM   13  C   UNL     1     -44.273 -47.583   8.743  1.00  0.00     0.250 C 
BRANCH  13  14
HETATM   14  C   UNL     1     -45.772 -47.602   8.947  1.00  0.00     0.235 C 
HETATM   15  N   UNL     1     -46.383 -48.817   9.044  1.00  0.00    -0.369 N 
HETATM   16  H   UNL     1     -47.371 -48.845   9.247  1.00  0.00     0.159 HD
HETATM   17  H   UNL     1     -45.819 -49.649   9.224  1.00  0.00     0.159 HD
HETATM   18  O   UNL     1     -46.444 -46.570   8.937  1.00  0.00    -0.272 OA
ENDBRANCH  13  14
ENDBRANCH   9  13
ENDBRANCH   1   7
BRANCH   4  19
HETATM   19  C   UNL     1     -38.034 -48.833  13.519  1.00  0.00     0.085 C 
HETATM   20  C   UNL     1     -37.595 -50.209  14.054  1.00  0.00     0.028 C 
HETATM   21  C   UNL     1     -37.476 -50.334  15.580  1.00  0.00     0.034 C 
HETATM   22  C   UNL     1     -36.842 -49.123  16.257  1.00  0.00     0.118 C 
HETATM   23  C   UNL     1     -37.518 -47.831  15.808  1.00  0.00     0.034 C 
HETATM   24  C   UNL     1     -37.435 -47.649  14.299  1.00  0.00     0.028 C 
BRANCH  22  25
HETATM   25  O   UNL     1     -35.442 -49.065  15.994  1.00  0.00    -0.396 OA
HETATM   26  H   UNL     1     -34.954 -49.080  16.833  1.00  0.00     0.210 HD
ENDBRANCH  22  25
ENDBRANCH   4  19
TORSDOF 5
ENDMDL
MODEL 8
REMARK VINA RESULT:      -5.5      3.228      8.105
REMARK  5 active torsions:
REMARK  status: ('A' for Active; 'I' for Inactive)
REMARK       I    between atoms: N_1  and  C_2 
REMARK    1  A    between atoms: C_2  and  C_4 
REMARK    2  A    between atoms: C_4  and  N_5 
REMARK    3  A    between atoms: C_7  and  N_8 
REMARK       I    between atoms: N_8  and  C_9 
REMARK       I    between atoms: C_9  and  N_11 
REMARK    4  A    between atoms: N_11  and  C_12 
REMARK    5  A    between atoms: C_15  and  O_16 
ROOT
HETATM    1  N   UNL     1     -41.715 -48.359  13.224  1.00  0.00    -0.208 NA
HETATM    2  C   UNL     1     -40.950 -49.217  12.447  1.00  0.00     0.299 C 
HETATM    3  O   UNL     1     -40.284 -48.899  11.471  1.00  0.00    -0.254 OA
HETATM    4  N   UNL     1     -41.047 -50.519  12.915  1.00  0.00    -0.343 N 
HETATM    5  H   UNL     1     -42.533 -48.834  13.566  1.00  0.00     0.138 HD
HETATM    6  H   UNL     1     -41.514 -50.665  13.797  1.00  0.00     0.164 HD
ENDROOT
BRANCH   1   7
HETATM    7  C   UNL     1     -41.985 -47.089  12.742  1.00  0.00     0.050 A 
HETATM    8  C   UNL     1     -41.298 -45.967  13.132  1.00  0.00     0.136 A 
HETATM    9  N   UNL     1     -41.882 -44.919  12.477  1.00  0.00    -0.293 N 
HETATM   10  N   UNL     1     -42.828 -45.309  11.590  1.00  0.00    -0.308 N 
HETATM   11  C   UNL     1     -42.919 -46.632  11.789  1.00  0.00     0.132 A 
ATOM     12  HN  UNL     1     -43.348 -44.733  10.928  1.00  0.00     0.186 HD
BRANCH   9  13
HETATM   13  C   UNL     1     -41.527 -43.515  12.616  1.00  0.00     0.250 C 
BRANCH  13  14
HETATM   14  C   UNL     1     -40.860 -42.926  11.393  1.00  0.00     0.235 C 
HETATM   15  N   UNL     1     -40.768 -41.567  11.313  1.00  0.00    -0.369 N 
HETATM   16  H   UNL     1     -40.268 -41.163  10.536  1.00  0.00     0.159 HD
HETATM   17  H   UNL     1     -40.912 -41.005  12.153  1.00  0.00     0.159 HD
HETATM   18  O   UNL     1     -40.492 -43.627  10.450  1.00  0.00    -0.272 OA
ENDBRANCH  13  14
ENDBRANCH   9  13
ENDBRANCH   1   7
BRANCH   4  19
HETATM   19  C   UNL     1     -40.168 -51.571  12.415  1.00  0.00     0.085 C 
HETATM   20  C   UNL     1     -40.915 -52.888  12.131  1.00  0.00     0.028 C 
HETATM   21  C   UNL     1     -41.041 -53.860  13.312  1.00  0.00     0.034 C 
HETATM   22  C   UNL     1     -39.778 -53.980  14.160  1.00  0.00     0.118 C 
HETATM   23  C   UNL     1     -39.261 -52.603  14.565  1.00  0.00     0.034 C 
HETATM   24  C   UNL     1     -38.957 -51.738  13.349  1.00  0.00     0.028 C 
BRANCH  22  25
HETATM   25  O   UNL     1     -38.765 -54.705  13.467  1.00  0.00    -0.396 OA
HETATM   26  H   UNL     1     -39.009 -55.643  13.427  1.00  0.00     0.210 HD
ENDBRANCH  22  25
ENDBRANCH   4  19
TORSDOF 5
ENDMDL
MODEL 9
REMARK VINA RESULT:      -5.5      3.859      4.496
REMARK  5 active torsions:
REMARK  status: ('A' for Active; 'I' for Inactive)
REMARK       I    between atoms: N_1  and  C_2 
REMARK    1  A    between atoms: C_2  and  C_4 
REMARK    2  A    between atoms: C_4  and  N_5 
REMARK    3  A    between atoms: C_7  and  N_8 
REMARK       I    between atoms: N_8  and  C_9 
REMARK       I    between atoms: C_9  and  N_11 
REMARK    4  A    between atoms: N_11  and  C_12 
REMARK    5  A    between atoms: C_15  and  O_16 
ROOT
HETATM    1  N   UNL     1     -41.583 -48.982  12.406  1.00  0.00    -0.208 NA
HETATM    2  C   UNL     1     -41.548 -48.194  11.264  1.00  0.00     0.299 C 
HETATM    3  O   UNL     1     -41.918 -48.531  10.148  1.00  0.00    -0.254 OA
HETATM    4  N   UNL     1     -41.015 -46.945  11.548  1.00  0.00    -0.343 N 
HETATM    5  H   UNL     1     -40.804 -48.763  13.005  1.00  0.00     0.138 HD
HETATM    6  H   UNL     1     -40.858 -46.712  12.517  1.00  0.00     0.164 HD
ENDROOT
BRANCH   1   7
HETATM    7  C   UNL     1     -41.795 -50.343  12.267  1.00  0.00     0.050 A 
HETATM    8  C   UNL     1     -42.892 -50.995  12.772  1.00  0.00     0.136 A 
HETATM    9  N   UNL     1     -42.718 -52.317  12.471  1.00  0.00    -0.293 N 
HETATM   10  N   UNL     1     -41.634 -52.546  11.693  1.00  0.00    -0.308 N 
HETATM   11  C   UNL     1     -41.049 -51.342  11.609  1.00  0.00     0.132 A 
ATOM     12  HN  UNL     1     -41.333 -53.424  11.271  1.00  0.00     0.186 HD
BRANCH   9  13
HETATM   13  C   UNL     1     -43.602 -53.408  12.854  1.00  0.00     0.250 C 
BRANCH  13  14
HETATM   14  C   UNL     1     -45.055 -53.006  12.975  1.00  0.00     0.235 C 
HETATM   15  N   UNL     1     -45.568 -52.853  14.230  1.00  0.00    -0.369 N 
HETATM   16  H   UNL     1     -46.516 -52.522  14.325  1.00  0.00     0.159 HD
HETATM   17  H   UNL     1     -44.933 -52.766  15.024  1.00  0.00     0.159 HD
HETATM   18  O   UNL     1     -45.788 -52.908  11.990  1.00  0.00    -0.272 OA
ENDBRANCH  13  14
ENDBRANCH   9  13
ENDBRANCH   1   7
BRANCH   4  19
HETATM   19  C   UNL     1     -41.075 -45.858  10.577  1.00  0.00     0.085 C 
HETATM   20  C   UNL     1     -39.826 -44.958  10.609  1.00  0.00     0.028 C 
HETATM   21  C   UNL     1     -39.865 -43.783  11.596  1.00  0.00     0.034 C 
HETATM   22  C   UNL     1     -41.207 -43.060  11.653  1.00  0.00     0.118 C 
HETATM   23  C   UNL     1     -42.352 -44.051  11.847  1.00  0.00     0.034 C 
HETATM   24  C   UNL     1     -42.396 -45.084  10.730  1.00  0.00     0.028 C 
BRANCH  22  25
HETATM   25  O   UNL     1     -41.420 -42.285  10.476  1.00  0.00    -0.396 OA
HETATM   26  H   UNL     1     -42.152 -42.666   9.965  1.00  0.00     0.210 HD
ENDBRANCH  22  25
ENDBRANCH   4  19
TORSDOF 5
ENDMDL
