MODEL 1
REMARK VINA RESULT:      -5.7      0.000      0.000
REMARK  6 active torsions:
REMARK  status: ('A' for Active; 'I' for Inactive)
REMARK    1  A    between atoms: C_6  and  O_7 
REMARK    2  A    between atoms: O_7  and  C_8 
REMARK    3  A    between atoms: C_8  and  C_9 
REMARK    4  A    between atoms: C_9  and  O_10 
REMARK    5  A    between atoms: C_9  and  C_11 
REMARK    6  A    between atoms: C_11  and  N_12 
ROOT
HETATM    1  C   UNL     1     -41.096 -50.880  12.021  1.00  0.00     0.160 C 
ENDROOT
BRANCH   1   2
HETATM    2  C   UNL     1     -41.490 -52.350  11.780  1.00  0.00     0.209 C 
BRANCH   2   3
HETATM    3  O   UNL     1     -41.052 -53.142  12.887  1.00  0.00    -0.349 OA
BRANCH   3   4
HETATM    4  C   UNL     1     -42.022 -53.642  13.714  1.00  0.00     0.069 A 
HETATM    5  C   UNL     1     -41.702 -53.615  15.073  1.00  0.00     0.037 A 
HETATM    6  C   UNL     1     -42.604 -54.093  16.025  1.00  0.00     0.003 A 
HETATM    7  C   UNL     1     -43.838 -54.600  15.624  1.00  0.00     0.007 A 
HETATM    8  C   UNL     1     -44.179 -54.629  14.267  1.00  0.00    -0.059 A 
HETATM    9  C   UNL     1     -45.507 -55.165  13.819  1.00  0.00     0.048 C 
HETATM   10  C   UNL     1     -43.260 -54.155  13.317  1.00  0.00     0.043 A 
ENDBRANCH   3   4
ENDBRANCH   2   3
ENDBRANCH   1   2
BRANCH   1  11
HETATM   11  O   UNL     1     -40.409 -50.345  10.881  1.00  0.00    -0.392 OA
HETATM   12  H   UNL     1     -39.709 -49.740  11.178  1.00  0.00     0.210 HD
ENDBRANCH   1  11
BRANCH   1  13
HETATM   13  C   UNL     1     -42.354 -50.046  12.286  1.00  0.00     0.164 C 
BRANCH  13  14
HETATM   14  N   UNL     1     -42.933 -50.282  13.594  1.00  0.00    -0.339 N 
HETATM   15  C   UNL     1     -42.306 -50.026  14.782  1.00  0.00     0.184 A 
HETATM   16  N   UNL     1     -43.092 -50.251  15.808  1.00  0.00    -0.350 N 
HETATM   17  C   UNL     1     -44.274 -50.694  15.261  1.00  0.00     0.060 A 
ATOM     18  HN  UNL     1     -42.875 -50.124  16.796  1.00  0.00     0.166 HD
HETATM   19  C   UNL     1     -45.454 -51.089  15.906  1.00  0.00     0.032 A 
HETATM   20  C   UNL     1     -44.202 -50.724  13.868  1.00  0.00     0.062 A 
HETATM   21  C   UNL     1     -46.536 -51.509  15.126  1.00  0.00     0.002 A 
HETATM   22  C   UNL     1     -46.448 -51.532  13.733  1.00  0.00     0.002 A 
HETATM   23  C   UNL     1     -45.275 -51.140  13.072  1.00  0.00     0.032 A 
ENDBRANCH  13  14
ENDBRANCH   1  13
TORSDOF 6
ENDMDL
MODEL 2
REMARK VINA RESULT:      -5.4      2.040      4.135
REMARK  6 active torsions:
REMARK  status: ('A' for Active; 'I' for Inactive)
REMARK    1  A    between atoms: C_6  and  O_7 
REMARK    2  A    between atoms: O_7  and  C_8 
REMARK    3  A    between atoms: C_8  and  C_9 
REMARK    4  A    between atoms: C_9  and  O_10 
REMARK    5  A    between atoms: C_9  and  C_11 
REMARK    6  A    between atoms: C_11  and  N_12 
ROOT
HETATM    1  C   UNL     1     -40.961 -53.415  12.875  1.00  0.00     0.160 C 
ENDROOT
BRANCH   1   2
HETATM    2  C   UNL     1     -42.441 -53.797  13.066  1.00  0.00     0.209 C 
BRANCH   2   3
HETATM    3  O   UNL     1     -42.963 -53.107  14.203  1.00  0.00    -0.349 OA
BRANCH   3   4
HETATM    4  C   UNL     1     -44.207 -52.549  14.073  1.00  0.00     0.069 A 
HETATM    5  C   UNL     1     -44.722 -51.991  15.245  1.00  0.00     0.037 A 
HETATM    6  C   UNL     1     -45.980 -51.386  15.251  1.00  0.00     0.003 A 
HETATM    7  C   UNL     1     -46.733 -51.332  14.080  1.00  0.00     0.007 A 
HETATM    8  C   UNL     1     -46.231 -51.879  12.895  1.00  0.00    -0.059 A 
HETATM    9  C   UNL     1     -47.026 -51.822  11.623  1.00  0.00     0.048 C 
HETATM   10  C   UNL     1     -44.968 -52.494  12.902  1.00  0.00     0.043 A 
ENDBRANCH   3   4
ENDBRANCH   2   3
ENDBRANCH   1   2
BRANCH   1  11
HETATM   11  O   UNL     1     -40.636 -53.324  11.480  1.00  0.00    -0.392 OA
HETATM   12  H   UNL     1     -41.452 -53.228  10.962  1.00  0.00     0.210 HD
ENDBRANCH   1  11
BRANCH   1  13
HETATM   13  C   UNL     1     -40.688 -52.064  13.542  1.00  0.00     0.164 C 
BRANCH  13  14
HETATM   14  N   UNL     1     -40.506 -50.982  12.594  1.00  0.00    -0.339 N 
HETATM   15  C   UNL     1     -39.382 -50.788  11.838  1.00  0.00     0.184 A 
HETATM   16  N   UNL     1     -39.522 -49.787  11.003  1.00  0.00    -0.350 N 
HETATM   17  C   UNL     1     -40.784 -49.295  11.243  1.00  0.00     0.060 A 
ATOM     18  HN  UNL     1     -38.843 -49.447  10.322  1.00  0.00     0.166 HD
HETATM   19  C   UNL     1     -41.444 -48.217  10.638  1.00  0.00     0.032 A 
HETATM   20  C   UNL     1     -41.427 -50.028  12.240  1.00  0.00     0.062 A 
HETATM   21  C   UNL     1     -42.740 -47.902  11.058  1.00  0.00     0.002 A 
HETATM   22  C   UNL     1     -43.369 -48.647  12.057  1.00  0.00     0.002 A 
HETATM   23  C   UNL     1     -42.724 -49.729  12.673  1.00  0.00     0.032 A 
ENDBRANCH  13  14
ENDBRANCH   1  13
TORSDOF 6
ENDMDL
MODEL 3
REMARK VINA RESULT:      -5.4      2.484      4.469
REMARK  6 active torsions:
REMARK  status: ('A' for Active; 'I' for Inactive)
REMARK    1  A    between atoms: C_6  and  O_7 
REMARK    2  A    between atoms: O_7  and  C_8 
REMARK    3  A    between atoms: C_8  and  C_9 
REMARK    4  A    between atoms: C_9  and  O_10 
REMARK    5  A    between atoms: C_9  and  C_11 
REMARK    6  A    between atoms: C_11  and  N_12 
ROOT
HETATM    1  C   UNL     1     -42.936 -54.948  15.311  1.00  0.00     0.160 C 
ENDROOT
BRANCH   1   2
HETATM    2  C   UNL     1     -43.968 -55.315  14.229  1.00  0.00     0.209 C 
BRANCH   2   3
HETATM    3  O   UNL     1     -45.285 -55.126  14.749  1.00  0.00    -0.349 OA
BRANCH   3   4
HETATM    4  C   UNL     1     -45.810 -53.864  14.668  1.00  0.00     0.069 A 
HETATM    5  C   UNL     1     -45.765 -53.293  13.394  1.00  0.00     0.037 A 
HETATM    6  C   UNL     1     -46.270 -52.011  13.172  1.00  0.00     0.003 A 
HETATM    7  C   UNL     1     -46.828 -51.289  14.224  1.00  0.00     0.007 A 
HETATM    8  C   UNL     1     -46.887 -51.846  15.506  1.00  0.00    -0.059 A 
HETATM    9  C   UNL     1     -47.492 -51.085  16.649  1.00  0.00     0.048 C 
HETATM   10  C   UNL     1     -46.367 -53.133  15.721  1.00  0.00     0.043 A 
ENDBRANCH   3   4
ENDBRANCH   2   3
ENDBRANCH   1   2
BRANCH   1  11
HETATM   11  O   UNL     1     -42.568 -56.105  16.076  1.00  0.00    -0.392 OA
HETATM   12  H   UNL     1     -41.947 -56.649  15.564  1.00  0.00     0.210 HD
ENDBRANCH   1  11
BRANCH   1  13
HETATM   13  C   UNL     1     -41.683 -54.364  14.652  1.00  0.00     0.164 C 
BRANCH  13  14
HETATM   14  N   UNL     1     -41.953 -53.189  13.847  1.00  0.00    -0.339 N 
HETATM   15  C   UNL     1     -41.759 -53.109  12.495  1.00  0.00     0.184 A 
HETATM   16  N   UNL     1     -42.167 -51.961  12.010  1.00  0.00    -0.350 N 
HETATM   17  C   UNL     1     -42.626 -51.257  13.098  1.00  0.00     0.060 A 
ATOM     18  HN  UNL     1     -42.149 -51.657  11.036  1.00  0.00     0.166 HD
HETATM   19  C   UNL     1     -43.163 -49.963  13.153  1.00  0.00     0.032 A 
HETATM   20  C   UNL     1     -42.502 -52.005  14.269  1.00  0.00     0.062 A 
HETATM   21  C   UNL     1     -43.562 -49.455  14.393  1.00  0.00     0.002 A 
HETATM   22  C   UNL     1     -43.433 -50.218  15.554  1.00  0.00     0.002 A 
HETATM   23  C   UNL     1     -42.897 -51.513  15.518  1.00  0.00     0.032 A 
ENDBRANCH  13  14
ENDBRANCH   1  13
TORSDOF 6
ENDMDL
MODEL 4
REMARK VINA RESULT:      -5.4      1.616      3.486
REMARK  6 active torsions:
REMARK  status: ('A' for Active; 'I' for Inactive)
REMARK    1  A    between atoms: C_6  and  O_7 
REMARK    2  A    between atoms: O_7  and  C_8 
REMARK    3  A    between atoms: C_8  and  C_9 
REMARK    4  A    between atoms: C_9  and  O_10 
REMARK    5  A    between atoms: C_9  and  C_11 
REMARK    6  A    between atoms: C_11  and  N_12 
ROOT
HETATM    1  C   UNL     1     -41.246 -53.038  12.517  1.00  0.00     0.160 C 
ENDROOT
BRANCH   1   2
HETATM    2  C   UNL     1     -40.895 -51.602  12.948  1.00  0.00     0.209 C 
BRANCH   2   3
HETATM    3  O   UNL     1     -42.002 -50.743  12.672  1.00  0.00    -0.349 OA
BRANCH   3   4
HETATM    4  C   UNL     1     -43.024 -50.734  13.583  1.00  0.00     0.069 A 
HETATM    5  C   UNL     1     -42.653 -50.355  14.875  1.00  0.00     0.037 A 
HETATM    6  C   UNL     1     -43.599 -50.302  15.900  1.00  0.00     0.003 A 
HETATM    7  C   UNL     1     -44.929 -50.624  15.639  1.00  0.00     0.007 A 
HETATM    8  C   UNL     1     -45.321 -51.000  14.350  1.00  0.00    -0.059 A 
HETATM    9  C   UNL     1     -46.751 -51.343  14.050  1.00  0.00     0.048 C 
HETATM   10  C   UNL     1     -44.359 -51.060  13.328  1.00  0.00     0.043 A 
ENDBRANCH   3   4
ENDBRANCH   2   3
ENDBRANCH   1   2
BRANCH   1  11
HETATM   11  O   UNL     1     -40.518 -53.407  11.336  1.00  0.00    -0.392 OA
HETATM   12  H   UNL     1     -40.577 -52.691  10.682  1.00  0.00     0.210 HD
ENDBRANCH   1  11
BRANCH   1  13
HETATM   13  C   UNL     1     -40.899 -54.015  13.644  1.00  0.00     0.164 C 
BRANCH  13  14
HETATM   14  N   UNL     1     -41.877 -54.026  14.715  1.00  0.00    -0.339 N 
HETATM   15  C   UNL     1     -41.607 -53.718  16.020  1.00  0.00     0.184 A 
HETATM   16  N   UNL     1     -42.692 -53.724  16.757  1.00  0.00    -0.350 N 
HETATM   17  C   UNL     1     -43.706 -54.073  15.897  1.00  0.00     0.060 A 
ATOM     18  HN  UNL     1     -42.767 -53.515  17.753  1.00  0.00     0.166 HD
HETATM   19  C   UNL     1     -45.073 -54.239  16.160  1.00  0.00     0.032 A 
HETATM   20  C   UNL     1     -43.222 -54.270  14.604  1.00  0.00     0.062 A 
HETATM   21  C   UNL     1     -45.919 -54.604  15.109  1.00  0.00     0.002 A 
HETATM   22  C   UNL     1     -45.418 -54.796  13.821  1.00  0.00     0.002 A 
HETATM   23  C   UNL     1     -44.054 -54.634  13.539  1.00  0.00     0.032 A 
ENDBRANCH  13  14
ENDBRANCH   1  13
TORSDOF 6
ENDMDL
MODEL 5
REMARK VINA RESULT:      -5.3      3.141      4.417
REMARK  6 active torsions:
REMARK  status: ('A' for Active; 'I' for Inactive)
REMARK    1  A    between atoms: C_6  and  O_7 
REMARK    2  A    between atoms: O_7  and  C_8 
REMARK    3  A    between atoms: C_8  and  C_9 
REMARK    4  A    between atoms: C_9  and  O_10 
REMARK    5  A    between atoms: C_9  and  C_11 
REMARK    6  A    between atoms: C_11  and  N_12 
ROOT
HETATM    1  C   UNL     1     -40.230 -49.699  11.547  1.00  0.00     0.160 C 
ENDROOT
BRANCH   1   2
HETATM    2  C   UNL     1     -40.239 -51.004  12.364  1.00  0.00     0.209 C 
BRANCH   2   3
HETATM    3  O   UNL     1     -41.075 -51.963  11.712  1.00  0.00    -0.349 OA
BRANCH   3   4
HETATM    4  C   UNL     1     -41.819 -52.786  12.515  1.00  0.00     0.069 A 
HETATM    5  C   UNL     1     -41.077 -53.539  13.427  1.00  0.00     0.037 A 
HETATM    6  C   UNL     1     -41.713 -54.417  14.307  1.00  0.00     0.003 A 
HETATM    7  C   UNL     1     -43.100 -54.545  14.284  1.00  0.00     0.007 A 
HETATM    8  C   UNL     1     -43.860 -53.794  13.381  1.00  0.00    -0.059 A 
HETATM    9  C   UNL     1     -45.356 -53.914  13.347  1.00  0.00     0.048 C 
HETATM   10  C   UNL     1     -43.210 -52.921  12.493  1.00  0.00     0.043 A 
ENDBRANCH   3   4
ENDBRANCH   2   3
ENDBRANCH   1   2
BRANCH   1  11
HETATM   11  O   UNL     1     -40.544 -49.959  10.171  1.00  0.00    -0.392 OA
HETATM   12  H   UNL     1     -41.139 -49.267   9.837  1.00  0.00     0.210 HD
ENDBRANCH   1  11
BRANCH   1  13
HETATM   13  C   UNL     1     -41.263 -48.724  12.120  1.00  0.00     0.164 C 
BRANCH  13  14
HETATM   14  N   UNL     1     -41.559 -47.616  11.234  1.00  0.00    -0.339 N 
HETATM   15  C   UNL     1     -40.662 -46.650  10.866  1.00  0.00     0.184 A 
HETATM   16  N   UNL     1     -41.171 -45.820   9.988  1.00  0.00    -0.350 N 
HETATM   17  C   UNL     1     -42.463 -46.251   9.796  1.00  0.00     0.060 A 
ATOM     18  HN  UNL     1     -40.710 -45.026   9.544  1.00  0.00     0.166 HD
HETATM   19  C   UNL     1     -43.461 -45.718   8.969  1.00  0.00     0.032 A 
HETATM   20  C   UNL     1     -42.735 -47.381  10.568  1.00  0.00     0.062 A 
HETATM   21  C   UNL     1     -44.713 -46.338   8.943  1.00  0.00     0.002 A 
HETATM   22  C   UNL     1     -44.968 -47.468   9.721  1.00  0.00     0.002 A 
HETATM   23  C   UNL     1     -43.982 -48.015  10.555  1.00  0.00     0.032 A 
ENDBRANCH  13  14
ENDBRANCH   1  13
TORSDOF 6
ENDMDL
MODEL 6
REMARK VINA RESULT:      -5.1      2.371      5.230
REMARK  6 active torsions:
REMARK  status: ('A' for Active; 'I' for Inactive)
REMARK    1  A    between atoms: C_6  and  O_7 
REMARK    2  A    between atoms: O_7  and  C_8 
REMARK    3  A    between atoms: C_8  and  C_9 
REMARK    4  A    between atoms: C_9  and  O_10 
REMARK    5  A    between atoms: C_9  and  C_11 
REMARK    6  A    between atoms: C_11  and  N_12 
ROOT
HETATM    1  C   UNL     1     -41.546 -53.406  14.975  1.00  0.00     0.160 C 
ENDROOT
BRANCH   1   2
HETATM    2  C   UNL     1     -42.880 -54.174  15.023  1.00  0.00     0.209 C 
BRANCH   2   3
HETATM    3  O   UNL     1     -43.538 -54.055  13.760  1.00  0.00    -0.349 OA
BRANCH   3   4
HETATM    4  C   UNL     1     -44.607 -53.202  13.695  1.00  0.00     0.069 A 
HETATM    5  C   UNL     1     -44.944 -52.593  14.906  1.00  0.00     0.037 A 
HETATM    6  C   UNL     1     -46.013 -51.699  14.979  1.00  0.00     0.003 A 
HETATM    7  C   UNL     1     -46.754 -51.403  13.837  1.00  0.00     0.007 A 
HETATM    8  C   UNL     1     -46.427 -51.998  12.614  1.00  0.00    -0.059 A 
HETATM    9  C   UNL     1     -47.210 -51.684  11.372  1.00  0.00     0.048 C 
HETATM   10  C   UNL     1     -45.356 -52.904  12.554  1.00  0.00     0.043 A 
ENDBRANCH   3   4
ENDBRANCH   2   3
ENDBRANCH   1   2
BRANCH   1  11
HETATM   11  O   UNL     1     -40.718 -53.754  16.094  1.00  0.00    -0.392 OA
HETATM   12  H   UNL     1     -40.177 -52.988  16.348  1.00  0.00     0.210 HD
ENDBRANCH   1  11
BRANCH   1  13
HETATM   13  C   UNL     1     -40.802 -53.744  13.679  1.00  0.00     0.164 C 
BRANCH  13  14
HETATM   14  N   UNL     1     -40.534 -52.583  12.853  1.00  0.00    -0.339 N 
HETATM   15  C   UNL     1     -41.295 -52.193  11.785  1.00  0.00     0.184 A 
HETATM   16  N   UNL     1     -40.875 -51.061  11.272  1.00  0.00    -0.350 N 
HETATM   17  C   UNL     1     -39.779 -50.714  12.027  1.00  0.00     0.060 A 
ATOM     18  HN  UNL     1     -41.274 -50.550  10.485  1.00  0.00     0.166 HD
HETATM   19  C   UNL     1     -38.938 -49.599  11.905  1.00  0.00     0.032 A 
HETATM   20  C   UNL     1     -39.540 -51.654  13.029  1.00  0.00     0.062 A 
HETATM   21  C   UNL     1     -37.873 -49.461  12.800  1.00  0.00     0.002 A 
HETATM   22  C   UNL     1     -37.649 -50.411  13.798  1.00  0.00     0.002 A 
HETATM   23  C   UNL     1     -38.480 -51.533  13.934  1.00  0.00     0.032 A 
ENDBRANCH  13  14
ENDBRANCH   1  13
TORSDOF 6
ENDMDL
MODEL 7
REMARK VINA RESULT:      -5.1      3.216      5.155
REMARK  6 active torsions:
REMARK  status: ('A' for Active; 'I' for Inactive)
REMARK    1  A    between atoms: C_6  and  O_7 
REMARK    2  A    between atoms: O_7  and  C_8 
REMARK    3  A    between atoms: C_8  and  C_9 
REMARK    4  A    between atoms: C_9  and  O_10 
REMARK    5  A    between atoms: C_9  and  C_11 
REMARK    6  A    between atoms: C_11  and  N_12 
ROOT
HETATM    1  C   UNL     1     -40.645 -50.253  11.672  1.00  0.00     0.160 C 
ENDROOT
BRANCH   1   2
HETATM    2  C   UNL     1     -41.008 -51.690  12.093  1.00  0.00     0.209 C 
BRANCH   2   3
HETATM    3  O   UNL     1     -42.430 -51.820  12.147  1.00  0.00    -0.349 OA
BRANCH   3   4
HETATM    4  C   UNL     1     -42.931 -52.856  12.888  1.00  0.00     0.069 A 
HETATM    5  C   UNL     1     -44.207 -53.282  12.510  1.00  0.00     0.037 A 
HETATM    6  C   UNL     1     -44.833 -54.333  13.182  1.00  0.00     0.003 A 
HETATM    7  C   UNL     1     -44.186 -54.971  14.237  1.00  0.00     0.007 A 
HETATM    8  C   UNL     1     -42.905 -54.563  14.626  1.00  0.00    -0.059 A 
HETATM    9  C   UNL     1     -42.190 -55.244  15.756  1.00  0.00     0.048 C 
HETATM   10  C   UNL     1     -42.288 -53.498  13.950  1.00  0.00     0.043 A 
ENDBRANCH   3   4
ENDBRANCH   2   3
ENDBRANCH   1   2
BRANCH   1  11
HETATM   11  O   UNL     1     -40.166 -50.226  10.320  1.00  0.00    -0.392 OA
HETATM   12  H   UNL     1     -39.981 -49.308  10.060  1.00  0.00     0.210 HD
ENDBRANCH   1  11
BRANCH   1  13
HETATM   13  C   UNL     1     -41.880 -49.355  11.784  1.00  0.00     0.164 C 
BRANCH  13  14
HETATM   14  N   UNL     1     -41.715 -48.069  11.136  1.00  0.00    -0.339 N 
HETATM   15  C   UNL     1     -42.364 -47.681   9.996  1.00  0.00     0.184 A 
HETATM   16  N   UNL     1     -42.093 -46.438   9.679  1.00  0.00    -0.350 N 
HETATM   17  C   UNL     1     -41.211 -46.007  10.642  1.00  0.00     0.060 A 
ATOM     18  HN  UNL     1     -42.457 -45.905   8.889  1.00  0.00     0.166 HD
HETATM   19  C   UNL     1     -40.589 -44.759  10.779  1.00  0.00     0.032 A 
HETATM   20  C   UNL     1     -40.954 -47.014  11.573  1.00  0.00     0.062 A 
HETATM   21  C   UNL     1     -39.719 -44.557  11.855  1.00  0.00     0.002 A 
HETATM   22  C   UNL     1     -39.474 -45.575  12.778  1.00  0.00     0.002 A 
HETATM   23  C   UNL     1     -40.087 -46.831  12.656  1.00  0.00     0.032 A 
ENDBRANCH  13  14
ENDBRANCH   1  13
TORSDOF 6
ENDMDL
MODEL 8
REMARK VINA RESULT:      -4.9      2.201      4.953
REMARK  6 active torsions:
REMARK  status: ('A' for Active; 'I' for Inactive)
REMARK    1  A    between atoms: C_6  and  O_7 
REMARK    2  A    between atoms: O_7  and  C_8 
REMARK    3  A    between atoms: C_8  and  C_9 
REMARK    4  A    between atoms: C_9  and  O_10 
REMARK    5  A    between atoms: C_9  and  C_11 
REMARK    6  A    between atoms: C_11  and  N_12 
ROOT
HETATM    1  C   UNL     1     -41.575 -52.626  12.163  1.00  0.00     0.160 C 
ENDROOT
BRANCH   1   2
HETATM    2  C   UNL     1     -40.930 -51.303  12.617  1.00  0.00     0.209 C 
BRANCH   2   3
HETATM    3  O   UNL     1     -40.916 -50.386  11.522  1.00  0.00    -0.349 OA
BRANCH   3   4
HETATM    4  C   UNL     1     -41.611 -49.217  11.682  1.00  0.00     0.069 A 
HETATM    5  C   UNL     1     -42.133 -49.018  12.961  1.00  0.00     0.037 A 
HETATM    6  C   UNL     1     -42.862 -47.865  13.260  1.00  0.00     0.003 A 
HETATM    7  C   UNL     1     -43.070 -46.898  12.280  1.00  0.00     0.007 A 
HETATM    8  C   UNL     1     -42.549 -47.077  10.994  1.00  0.00    -0.059 A 
HETATM    9  C   UNL     1     -42.758 -46.042   9.928  1.00  0.00     0.048 C 
HETATM   10  C   UNL     1     -41.827 -48.245  10.701  1.00  0.00     0.043 A 
ENDBRANCH   3   4
ENDBRANCH   2   3
ENDBRANCH   1   2
BRANCH   1  11
HETATM   11  O   UNL     1     -40.616 -53.455  11.490  1.00  0.00    -0.392 OA
HETATM   12  H   UNL     1     -40.345 -53.029  10.659  1.00  0.00     0.210 HD
ENDBRANCH   1  11
BRANCH   1  13
HETATM   13  C   UNL     1     -42.120 -53.379  13.381  1.00  0.00     0.164 C 
BRANCH  13  14
HETATM   14  N   UNL     1     -43.563 -53.313  13.497  1.00  0.00    -0.339 N 
HETATM   15  C   UNL     1     -44.436 -54.153  12.861  1.00  0.00     0.184 A 
HETATM   16  N   UNL     1     -45.679 -53.923  13.212  1.00  0.00    -0.350 N 
HETATM   17  C   UNL     1     -45.611 -52.873  14.098  1.00  0.00     0.060 A 
ATOM     18  HN  UNL     1     -46.514 -54.416  12.898  1.00  0.00     0.166 HD
HETATM   19  C   UNL     1     -46.648 -52.215  14.772  1.00  0.00     0.032 A 
HETATM   20  C   UNL     1     -44.291 -52.467  14.296  1.00  0.00     0.062 A 
HETATM   21  C   UNL     1     -46.328 -51.159  15.631  1.00  0.00     0.002 A 
HETATM   22  C   UNL     1     -45.001 -50.767  15.818  1.00  0.00     0.002 A 
HETATM   23  C   UNL     1     -43.950 -51.414  15.151  1.00  0.00     0.032 A 
ENDBRANCH  13  14
ENDBRANCH   1  13
TORSDOF 6
ENDMDL
MODEL 9
REMARK VINA RESULT:      -4.8      2.719      5.276
REMARK  6 active torsions:
REMARK  status: ('A' for Active; 'I' for Inactive)
REMARK    1  A    between atoms: C_6  and  O_7 
REMARK    2  A    between atoms: O_7  and  C_8 
REMARK    3  A    between atoms: C_8  and  C_9 
REMARK    4  A    between atoms: C_9  and  O_10 
REMARK    5  A    between atoms: C_9  and  C_11 
REMARK    6  A    between atoms: C_11  and  N_12 
ROOT
HETATM    1  C   UNL     1     -46.439 -54.347  14.759  1.00  0.00     0.160 C 
ENDROOT
BRANCH   1   2
HETATM    2  C   UNL     1     -45.717 -53.692  15.952  1.00  0.00     0.209 C 
BRANCH   2   3
HETATM    3  O   UNL     1     -45.841 -52.271  15.854  1.00  0.00    -0.349 OA
BRANCH   3   4
HETATM    4  C   UNL     1     -44.690 -51.561  15.640  1.00  0.00     0.069 A 
HETATM    5  C   UNL     1     -43.668 -51.812  16.559  1.00  0.00     0.037 A 
HETATM    6  C   UNL     1     -42.441 -51.155  16.454  1.00  0.00     0.003 A 
HETATM    7  C   UNL     1     -42.224 -50.243  15.424  1.00  0.00     0.007 A 
HETATM    8  C   UNL     1     -43.233 -49.984  14.490  1.00  0.00    -0.059 A 
HETATM    9  C   UNL     1     -43.013 -49.010  13.370  1.00  0.00     0.048 C 
HETATM   10  C   UNL     1     -44.468 -50.642  14.611  1.00  0.00     0.043 A 
ENDBRANCH   3   4
ENDBRANCH   2   3
ENDBRANCH   1   2
BRANCH   1  11
HETATM   11  O   UNL     1     -47.025 -53.350  13.910  1.00  0.00    -0.392 OA
HETATM   12  H   UNL     1     -47.012 -53.660  12.989  1.00  0.00     0.210 HD
ENDBRANCH   1  11
BRANCH   1  13
HETATM   13  C   UNL     1     -45.441 -55.176  13.945  1.00  0.00     0.164 C 
BRANCH  13  14
HETATM   14  N   UNL     1     -44.360 -54.386  13.387  1.00  0.00    -0.339 N 
HETATM   15  C   UNL     1     -44.478 -53.557  12.305  1.00  0.00     0.184 A 
HETATM   16  N   UNL     1     -43.367 -52.900  12.070  1.00  0.00    -0.350 N 
HETATM   17  C   UNL     1     -42.484 -53.338  13.028  1.00  0.00     0.060 A 
ATOM     18  HN  UNL     1     -43.196 -52.212  11.337  1.00  0.00     0.166 HD
HETATM   19  C   UNL     1     -41.146 -52.972  13.233  1.00  0.00     0.032 A 
HETATM   20  C   UNL     1     -43.081 -54.275  13.871  1.00  0.00     0.062 A 
HETATM   21  C   UNL     1     -40.442 -53.564  14.286  1.00  0.00     0.002 A 
HETATM   22  C   UNL     1     -41.056 -54.499  15.121  1.00  0.00     0.002 A 
HETATM   23  C   UNL     1     -42.393 -54.878  14.930  1.00  0.00     0.032 A 
ENDBRANCH  13  14
ENDBRANCH   1  13
TORSDOF 6
ENDMDL
