MODEL 1
REMARK VINA RESULT:      -5.7      0.000      0.000
REMARK  4 active torsions:
REMARK  status: ('A' for Active; 'I' for Inactive)
REMARK    1  A    between atoms: C_2  and  N_4 
REMARK       I    between atoms: N_7  and  C_10 
REMARK       I    between atoms: C_10  and  N_12 
REMARK    2  A    between atoms: N_12  and  C_13 
REMARK    3  A    between atoms: N_17  and  C_18 
REMARK    4  A    between atoms: C_18  and  C_19 
REMARK       I    between atoms: C_19  and  N_21 
ROOT
HETATM    1  N   UNL     1     -41.585 -54.300  13.810  1.00  0.00     0.095 N 
HETATM    2  C   UNL     1     -40.985 -53.891  12.519  1.00  0.00     0.292 C 
HETATM    3  C   UNL     1     -40.789 -52.369  12.327  1.00  0.00     0.158 C 
HETATM    4  N   UNL     1     -41.971 -51.569  12.681  1.00  0.00    -0.331 N 
HETATM    5  C   UNL     1     -42.731 -52.041  13.846  1.00  0.00     0.158 C 
HETATM    6  C   UNL     1     -42.872 -53.571  13.907  1.00  0.00     0.292 C 
HETATM    7  C   UNL     1     -42.151 -50.221  12.362  1.00  0.00     0.323 C 
HETATM    8  O   UNL     1     -42.995 -49.543  12.947  1.00  0.00    -0.247 OA
HETATM    9  N   UNL     1     -41.347 -49.724  11.364  1.00  0.00    -0.306 N 
HETATM   10  H   UNL     1     -40.772 -50.346  10.824  1.00  0.00     0.171 HD
ENDROOT
BRANCH   9  11
HETATM   11  C   UNL     1     -41.416 -48.415  10.911  1.00  0.00     0.070 A 
HETATM   12  C   UNL     1     -42.282 -47.788   9.988  1.00  0.00     0.138 A 
HETATM   13  N   UNL     1     -41.995 -46.493   9.812  1.00  0.00    -0.307 N 
HETATM   14  N   UNL     1     -40.919 -46.301  10.600  1.00  0.00    -0.293 N 
ATOM     15  HN  UNL     1     -42.476 -45.813   9.223  1.00  0.00     0.186 HD
HETATM   16  C   UNL     1     -40.561 -47.415  11.311  1.00  0.00     0.141 A 
BRANCH  14  17
HETATM   17  C   UNL     1     -40.222 -45.032  10.548  1.00  0.00     0.250 C 
BRANCH  17  18
HETATM   18  C   UNL     1     -41.076 -43.911  11.078  1.00  0.00     0.235 C 
HETATM   19  O   UNL     1     -42.179 -44.084  11.586  1.00  0.00    -0.272 OA
HETATM   20  N   UNL     1     -40.548 -42.652  10.974  1.00  0.00    -0.369 N 
HETATM   21  H   UNL     1     -39.781 -42.448  10.343  1.00  0.00     0.159 HD
HETATM   22  H   UNL     1     -41.144 -41.881  11.249  1.00  0.00     0.159 HD
ENDBRANCH  17  18
ENDBRANCH  14  17
ENDBRANCH   9  11
BRANCH   1  23
HETATM   23  C   UNL     1     -40.703 -54.080  14.984  1.00  0.00     0.215 C 
HETATM   24  C   UNL     1     -41.330 -54.639  16.276  1.00  0.00     0.042 C 
HETATM   25  C   UNL     1     -39.328 -54.753  14.835  1.00  0.00     0.042 C 
ENDBRANCH   1  23
TORSDOF 4
ENDMDL
MODEL 2
REMARK VINA RESULT:      -5.6      2.268      8.296
REMARK  4 active torsions:
REMARK  status: ('A' for Active; 'I' for Inactive)
REMARK    1  A    between atoms: C_2  and  N_4 
REMARK       I    between atoms: N_7  and  C_10 
REMARK       I    between atoms: C_10  and  N_12 
REMARK    2  A    between atoms: N_12  and  C_13 
REMARK    3  A    between atoms: N_17  and  C_18 
REMARK    4  A    between atoms: C_18  and  C_19 
REMARK       I    between atoms: C_19  and  N_21 
ROOT
HETATM    1  N   UNL     1     -41.073 -45.177  10.560  1.00  0.00     0.095 N 
HETATM    2  C   UNL     1     -42.093 -46.145  10.095  1.00  0.00     0.292 C 
HETATM    3  C   UNL     1     -42.272 -47.401  10.979  1.00  0.00     0.158 C 
HETATM    4  N   UNL     1     -41.007 -48.049  11.352  1.00  0.00    -0.331 N 
HETATM    5  C   UNL     1     -39.888 -47.140  11.637  1.00  0.00     0.158 C 
HETATM    6  C   UNL     1     -39.809 -45.945  10.673  1.00  0.00     0.292 C 
HETATM    7  C   UNL     1     -40.894 -49.322  11.915  1.00  0.00     0.323 C 
HETATM    8  O   UNL     1     -39.860 -49.670  12.484  1.00  0.00    -0.247 OA
HETATM    9  N   UNL     1     -41.989 -50.143  11.779  1.00  0.00    -0.306 N 
HETATM   10  H   UNL     1     -42.755 -49.866  11.191  1.00  0.00     0.171 HD
ENDROOT
BRANCH   9  11
HETATM   11  C   UNL     1     -42.032 -51.443  12.259  1.00  0.00     0.070 A 
HETATM   12  C   UNL     1     -41.351 -52.613  11.854  1.00  0.00     0.138 A 
HETATM   13  N   UNL     1     -41.697 -53.684  12.577  1.00  0.00    -0.307 N 
HETATM   14  N   UNL     1     -42.629 -53.204  13.423  1.00  0.00    -0.293 N 
ATOM     15  HN  UNL     1     -41.340 -54.637  12.505  1.00  0.00     0.186 HD
HETATM   16  C   UNL     1     -42.832 -51.856  13.298  1.00  0.00     0.141 A 
BRANCH  14  17
HETATM   17  C   UNL     1     -43.357 -54.126  14.271  1.00  0.00     0.250 C 
BRANCH  17  18
HETATM   18  C   UNL     1     -44.724 -54.424  13.716  1.00  0.00     0.235 C 
HETATM   19  O   UNL     1     -44.955 -54.541  12.517  1.00  0.00    -0.272 OA
HETATM   20  N   UNL     1     -45.727 -54.572  14.636  1.00  0.00    -0.369 N 
HETATM   21  H   UNL     1     -45.632 -54.234  15.586  1.00  0.00     0.159 HD
HETATM   22  H   UNL     1     -46.667 -54.690  14.274  1.00  0.00     0.159 HD
ENDBRANCH  17  18
ENDBRANCH  14  17
ENDBRANCH   9  11
BRANCH   1  23
HETATM   23  C   UNL     1     -41.436 -44.469  11.813  1.00  0.00     0.215 C 
HETATM   24  C   UNL     1     -40.286 -43.573  12.312  1.00  0.00     0.042 C 
HETATM   25  C   UNL     1     -42.664 -43.558  11.652  1.00  0.00     0.042 C 
ENDBRANCH   1  23
TORSDOF 4
ENDMDL
MODEL 3
REMARK VINA RESULT:      -5.6      2.198      2.747
REMARK  4 active torsions:
REMARK  status: ('A' for Active; 'I' for Inactive)
REMARK    1  A    between atoms: C_2  and  N_4 
REMARK       I    between atoms: N_7  and  C_10 
REMARK       I    between atoms: C_10  and  N_12 
REMARK    2  A    between atoms: N_12  and  C_13 
REMARK    3  A    between atoms: N_17  and  C_18 
REMARK    4  A    between atoms: C_18  and  C_19 
REMARK       I    between atoms: C_19  and  N_21 
ROOT
HETATM    1  N   UNL     1     -44.507 -53.136  15.152  1.00  0.00     0.095 N 
HETATM    2  C   UNL     1     -45.369 -52.129  14.491  1.00  0.00     0.292 C 
HETATM    3  C   UNL     1     -44.687 -51.292  13.385  1.00  0.00     0.158 C 
HETATM    4  N   UNL     1     -43.378 -50.747  13.775  1.00  0.00    -0.331 N 
HETATM    5  C   UNL     1     -42.546 -51.629  14.605  1.00  0.00     0.158 C 
HETATM    6  C   UNL     1     -43.342 -52.387  15.681  1.00  0.00     0.292 C 
HETATM    7  C   UNL     1     -42.680 -49.760  13.075  1.00  0.00     0.323 C 
HETATM    8  O   UNL     1     -41.479 -49.581  13.270  1.00  0.00    -0.247 OA
HETATM    9  N   UNL     1     -43.418 -49.014  12.186  1.00  0.00    -0.306 N 
HETATM   10  H   UNL     1     -44.418 -49.104  12.162  1.00  0.00     0.171 HD
ENDROOT
BRANCH   9  11
HETATM   11  C   UNL     1     -42.884 -47.980  11.432  1.00  0.00     0.070 A 
HETATM   12  C   UNL     1     -42.330 -47.958  10.132  1.00  0.00     0.138 A 
HETATM   13  N   UNL     1     -41.902 -46.742   9.777  1.00  0.00    -0.307 N 
HETATM   14  N   UNL     1     -42.150 -45.991  10.868  1.00  0.00    -0.293 N 
ATOM     15  HN  UNL     1     -41.487 -46.451   8.892  1.00  0.00     0.186 HD
HETATM   16  C   UNL     1     -42.777 -46.681  11.871  1.00  0.00     0.141 A 
BRANCH  14  17
HETATM   17  C   UNL     1     -41.668 -44.625  10.912  1.00  0.00     0.250 C 
BRANCH  17  18
HETATM   18  C   UNL     1     -40.179 -44.558  10.706  1.00  0.00     0.235 C 
HETATM   19  O   UNL     1     -39.651 -44.521   9.599  1.00  0.00    -0.272 OA
HETATM   20  N   UNL     1     -39.415 -44.530  11.842  1.00  0.00    -0.369 N 
HETATM   21  H   UNL     1     -39.788 -44.815  12.741  1.00  0.00     0.159 HD
HETATM   22  H   UNL     1     -38.410 -44.569  11.720  1.00  0.00     0.159 HD
ENDBRANCH  17  18
ENDBRANCH  14  17
ENDBRANCH   9  11
BRANCH   1  23
HETATM   23  C   UNL     1     -44.120 -54.271  14.276  1.00  0.00     0.215 C 
HETATM   24  C   UNL     1     -43.170 -55.246  14.998  1.00  0.00     0.042 C 
HETATM   25  C   UNL     1     -45.325 -55.100  13.802  1.00  0.00     0.042 C 
ENDBRANCH   1  23
TORSDOF 4
ENDMDL
MODEL 4
REMARK VINA RESULT:      -5.3      2.546      3.260
REMARK  4 active torsions:
REMARK  status: ('A' for Active; 'I' for Inactive)
REMARK    1  A    between atoms: C_2  and  N_4 
REMARK       I    between atoms: N_7  and  C_10 
REMARK       I    between atoms: C_10  and  N_12 
REMARK    2  A    between atoms: N_12  and  C_13 
REMARK    3  A    between atoms: N_17  and  C_18 
REMARK    4  A    between atoms: C_18  and  C_19 
REMARK       I    between atoms: C_19  and  N_21 
ROOT
HETATM    1  N   UNL     1     -39.667 -54.360  15.958  1.00  0.00     0.095 N 
HETATM    2  C   UNL     1     -39.354 -52.912  15.991  1.00  0.00     0.292 C 
HETATM    3  C   UNL     1     -40.234 -52.020  15.086  1.00  0.00     0.158 C 
HETATM    4  N   UNL     1     -40.391 -52.535  13.717  1.00  0.00    -0.331 N 
HETATM    5  C   UNL     1     -40.509 -53.994  13.597  1.00  0.00     0.158 C 
HETATM    6  C   UNL     1     -39.564 -54.764  14.535  1.00  0.00     0.292 C 
HETATM    7  C   UNL     1     -40.908 -51.808  12.642  1.00  0.00     0.323 C 
HETATM    8  O   UNL     1     -41.300 -52.380  11.626  1.00  0.00    -0.247 OA
HETATM    9  N   UNL     1     -40.935 -50.441  12.794  1.00  0.00    -0.306 N 
HETATM   10  H   UNL     1     -40.480 -50.013  13.580  1.00  0.00     0.171 HD
ENDROOT
BRANCH   9  11
HETATM   11  C   UNL     1     -41.394 -49.575  11.813  1.00  0.00     0.070 A 
HETATM   12  C   UNL     1     -40.777 -49.070  10.647  1.00  0.00     0.138 A 
HETATM   13  N   UNL     1     -41.568 -48.230   9.970  1.00  0.00    -0.307 N 
HETATM   14  N   UNL     1     -42.682 -48.171  10.726  1.00  0.00    -0.293 N 
ATOM     15  HN  UNL     1     -41.375 -47.749   9.091  1.00  0.00     0.186 HD
HETATM   16  C   UNL     1     -42.640 -48.994  11.819  1.00  0.00     0.141 A 
BRANCH  14  17
HETATM   17  C   UNL     1     -43.722 -47.222  10.382  1.00  0.00     0.250 C 
BRANCH  17  18
HETATM   18  C   UNL     1     -43.738 -46.933   8.905  1.00  0.00     0.235 C 
HETATM   19  O   UNL     1     -43.055 -46.060   8.380  1.00  0.00    -0.272 OA
HETATM   20  N   UNL     1     -44.567 -47.717   8.148  1.00  0.00    -0.369 N 
HETATM   21  H   UNL     1     -45.318 -48.255   8.565  1.00  0.00     0.159 HD
HETATM   22  H   UNL     1     -44.651 -47.480   7.166  1.00  0.00     0.159 HD
ENDBRANCH  17  18
ENDBRANCH  14  17
ENDBRANCH   9  11
BRANCH   1  23
HETATM   23  C   UNL     1     -40.973 -54.712  16.570  1.00  0.00     0.215 C 
HETATM   24  C   UNL     1     -41.112 -56.233  16.775  1.00  0.00     0.042 C 
HETATM   25  C   UNL     1     -41.185 -54.061  17.947  1.00  0.00     0.042 C 
ENDBRANCH   1  23
TORSDOF 4
ENDMDL
MODEL 5
REMARK VINA RESULT:      -5.3      4.110      5.865
REMARK  4 active torsions:
REMARK  status: ('A' for Active; 'I' for Inactive)
REMARK    1  A    between atoms: C_2  and  N_4 
REMARK       I    between atoms: N_7  and  C_10 
REMARK       I    between atoms: C_10  and  N_12 
REMARK    2  A    between atoms: N_12  and  C_13 
REMARK    3  A    between atoms: N_17  and  C_18 
REMARK    4  A    between atoms: C_18  and  C_19 
REMARK       I    between atoms: C_19  and  N_21 
ROOT
HETATM    1  N   UNL     1     -46.833 -52.253  17.349  1.00  0.00     0.095 N 
HETATM    2  C   UNL     1     -45.533 -52.958  17.266  1.00  0.00     0.292 C 
HETATM    3  C   UNL     1     -44.441 -52.247  16.435  1.00  0.00     0.158 C 
HETATM    4  N   UNL     1     -44.909 -51.768  15.126  1.00  0.00    -0.331 N 
HETATM    5  C   UNL     1     -46.277 -51.233  15.098  1.00  0.00     0.158 C 
HETATM    6  C   UNL     1     -47.269 -52.044  15.948  1.00  0.00     0.292 C 
HETATM    7  C   UNL     1     -44.081 -51.333  14.089  1.00  0.00     0.323 C 
HETATM    8  O   UNL     1     -44.533 -50.663  13.161  1.00  0.00    -0.247 OA
HETATM    9  N   UNL     1     -42.761 -51.709  14.171  1.00  0.00    -0.306 N 
HETATM   10  H   UNL     1     -42.468 -52.368  14.870  1.00  0.00     0.171 HD
ENDROOT
BRANCH   9  11
HETATM   11  C   UNL     1     -41.814 -51.381  13.213  1.00  0.00     0.070 A 
HETATM   12  C   UNL     1     -41.442 -52.017  12.007  1.00  0.00     0.138 A 
HETATM   13  N   UNL     1     -40.454 -51.377  11.373  1.00  0.00    -0.307 N 
HETATM   14  N   UNL     1     -40.169 -50.348  12.194  1.00  0.00    -0.293 N 
ATOM     15  HN  UNL     1     -40.019 -51.612  10.480  1.00  0.00     0.186 HD
HETATM   16  C   UNL     1     -40.987 -50.285  13.289  1.00  0.00     0.141 A 
BRANCH  14  17
HETATM   17  C   UNL     1     -39.023 -49.508  11.906  1.00  0.00     0.250 C 
BRANCH  17  18
HETATM   18  C   UNL     1     -37.825 -50.328  11.508  1.00  0.00     0.235 C 
HETATM   19  O   UNL     1     -37.384 -51.252  12.184  1.00  0.00    -0.272 OA
HETATM   20  N   UNL     1     -37.234 -49.993  10.319  1.00  0.00    -0.369 N 
HETATM   21  H   UNL     1     -37.403 -49.097   9.876  1.00  0.00     0.159 HD
HETATM   22  H   UNL     1     -36.379 -50.480  10.079  1.00  0.00     0.159 HD
ENDBRANCH  17  18
ENDBRANCH  14  17
ENDBRANCH   9  11
BRANCH   1  23
HETATM   23  C   UNL     1     -46.792 -50.997  18.138  1.00  0.00     0.215 C 
HETATM   24  C   UNL     1     -48.170 -50.308  18.182  1.00  0.00     0.042 C 
HETATM   25  C   UNL     1     -46.366 -51.220  19.599  1.00  0.00     0.042 C 
ENDBRANCH   1  23
TORSDOF 4
ENDMDL
MODEL 6
REMARK VINA RESULT:      -5.1      1.945      2.343
REMARK  4 active torsions:
REMARK  status: ('A' for Active; 'I' for Inactive)
REMARK    1  A    between atoms: C_2  and  N_4 
REMARK       I    between atoms: N_7  and  C_10 
REMARK       I    between atoms: C_10  and  N_12 
REMARK    2  A    between atoms: N_12  and  C_13 
REMARK    3  A    between atoms: N_17  and  C_18 
REMARK    4  A    between atoms: C_18  and  C_19 
REMARK       I    between atoms: C_19  and  N_21 
ROOT
HETATM    1  N   UNL     1     -44.961 -53.534  13.898  1.00  0.00     0.095 N 
HETATM    2  C   UNL     1     -44.185 -53.473  12.637  1.00  0.00     0.292 C 
HETATM    3  C   UNL     1     -43.130 -52.347  12.557  1.00  0.00     0.158 C 
HETATM    4  N   UNL     1     -43.634 -51.030  12.975  1.00  0.00    -0.331 N 
HETATM    5  C   UNL     1     -44.571 -51.039  14.106  1.00  0.00     0.158 C 
HETATM    6  C   UNL     1     -45.582 -52.197  14.055  1.00  0.00     0.292 C 
HETATM    7  C   UNL     1     -42.980 -49.815  12.757  1.00  0.00     0.323 C 
HETATM    8  O   UNL     1     -43.291 -48.810  13.394  1.00  0.00    -0.247 OA
HETATM    9  N   UNL     1     -41.999 -49.822  11.793  1.00  0.00    -0.306 N 
HETATM   10  H   UNL     1     -41.875 -50.627  11.206  1.00  0.00     0.171 HD
ENDROOT
BRANCH   9  11
HETATM   11  C   UNL     1     -41.273 -48.696  11.438  1.00  0.00     0.070 A 
HETATM   12  C   UNL     1     -39.915 -48.357  11.633  1.00  0.00     0.138 A 
HETATM   13  N   UNL     1     -39.613 -47.147  11.149  1.00  0.00    -0.307 N 
HETATM   14  N   UNL     1     -40.791 -46.695  10.676  1.00  0.00    -0.293 N 
ATOM     15  HN  UNL     1     -38.707 -46.677  11.141  1.00  0.00     0.186 HD
HETATM   16  C   UNL     1     -41.806 -47.607  10.789  1.00  0.00     0.141 A 
BRANCH  14  17
HETATM   17  C   UNL     1     -40.888 -45.328  10.208  1.00  0.00     0.250 C 
BRANCH  17  18
HETATM   18  C   UNL     1     -40.582 -44.345  11.306  1.00  0.00     0.235 C 
HETATM   19  O   UNL     1     -40.451 -44.666  12.483  1.00  0.00    -0.272 OA
HETATM   20  N   UNL     1     -40.441 -43.038  10.922  1.00  0.00    -0.369 N 
HETATM   21  H   UNL     1     -40.789 -42.706  10.030  1.00  0.00     0.159 HD
HETATM   22  H   UNL     1     -40.317 -42.355  11.660  1.00  0.00     0.159 HD
ENDBRANCH  17  18
ENDBRANCH  14  17
ENDBRANCH   9  11
BRANCH   1  23
HETATM   23  C   UNL     1     -44.163 -53.946  15.081  1.00  0.00     0.215 C 
HETATM   24  C   UNL     1     -45.039 -54.061  16.343  1.00  0.00     0.042 C 
HETATM   25  C   UNL     1     -43.478 -55.310  14.895  1.00  0.00     0.042 C 
ENDBRANCH   1  23
TORSDOF 4
ENDMDL
MODEL 7
REMARK VINA RESULT:      -5.1      2.694      9.338
REMARK  4 active torsions:
REMARK  status: ('A' for Active; 'I' for Inactive)
REMARK    1  A    between atoms: C_2  and  N_4 
REMARK       I    between atoms: N_7  and  C_10 
REMARK       I    between atoms: C_10  and  N_12 
REMARK    2  A    between atoms: N_12  and  C_13 
REMARK    3  A    between atoms: N_17  and  C_18 
REMARK    4  A    between atoms: C_18  and  C_19 
REMARK       I    between atoms: C_19  and  N_21 
ROOT
HETATM    1  N   UNL     1     -41.961 -40.395  12.743  1.00  0.00     0.095 N 
HETATM    2  C   UNL     1     -41.920 -41.500  13.729  1.00  0.00     0.292 C 
HETATM    3  C   UNL     1     -41.534 -42.885  13.162  1.00  0.00     0.158 C 
HETATM    4  N   UNL     1     -42.261 -43.248  11.937  1.00  0.00    -0.331 N 
HETATM    5  C   UNL     1     -42.510 -42.146  10.997  1.00  0.00     0.158 C 
HETATM    6  C   UNL     1     -42.907 -40.830  11.688  1.00  0.00     0.292 C 
HETATM    7  C   UNL     1     -42.295 -44.526  11.374  1.00  0.00     0.323 C 
HETATM    8  O   UNL     1     -42.648 -44.690  10.207  1.00  0.00    -0.247 OA
HETATM    9  N   UNL     1     -41.928 -45.561  12.202  1.00  0.00    -0.306 N 
HETATM   10  H   UNL     1     -41.782 -45.394  13.181  1.00  0.00     0.171 HD
ENDROOT
BRANCH   9  11
HETATM   11  C   UNL     1     -41.932 -46.890  11.807  1.00  0.00     0.070 A 
HETATM   12  C   UNL     1     -42.992 -47.786  11.543  1.00  0.00     0.138 A 
HETATM   13  N   UNL     1     -42.560 -49.005  11.202  1.00  0.00    -0.307 N 
HETATM   14  N   UNL     1     -41.219 -48.898  11.284  1.00  0.00    -0.293 N 
ATOM     15  HN  UNL     1     -43.114 -49.822  10.943  1.00  0.00     0.186 HD
HETATM   16  C   UNL     1     -40.795 -47.636  11.602  1.00  0.00     0.141 A 
BRANCH  14  17
HETATM   17  C   UNL     1     -40.404 -50.085  11.131  1.00  0.00     0.250 C 
BRANCH  17  18
HETATM   18  C   UNL     1     -40.922 -51.223  11.971  1.00  0.00     0.235 C 
HETATM   19  O   UNL     1     -41.069 -51.152  13.186  1.00  0.00    -0.272 OA
HETATM   20  N   UNL     1     -41.240 -52.371  11.297  1.00  0.00    -0.369 N 
HETATM   21  H   UNL     1     -40.896 -52.551  10.360  1.00  0.00     0.159 HD
HETATM   22  H   UNL     1     -41.511 -53.171  11.857  1.00  0.00     0.159 HD
ENDBRANCH  17  18
ENDBRANCH  14  17
ENDBRANCH   9  11
BRANCH   1  23
HETATM   23  C   UNL     1     -40.631 -40.010  12.209  1.00  0.00     0.215 C 
HETATM   24  C   UNL     1     -40.716 -38.747  11.330  1.00  0.00     0.042 C 
HETATM   25  C   UNL     1     -39.605 -39.707  13.314  1.00  0.00     0.042 C 
ENDBRANCH   1  23
TORSDOF 4
ENDMDL
MODEL 8
REMARK VINA RESULT:      -5.0      4.552      5.525
REMARK  4 active torsions:
REMARK  status: ('A' for Active; 'I' for Inactive)
REMARK    1  A    between atoms: C_2  and  N_4 
REMARK       I    between atoms: N_7  and  C_10 
REMARK       I    between atoms: C_10  and  N_12 
REMARK    2  A    between atoms: N_12  and  C_13 
REMARK    3  A    between atoms: N_17  and  C_18 
REMARK    4  A    between atoms: C_18  and  C_19 
REMARK       I    between atoms: C_19  and  N_21 
ROOT
HETATM    1  N   UNL     1     -36.673 -48.503  17.503  1.00  0.00     0.095 N 
HETATM    2  C   UNL     1     -37.426 -47.275  17.157  1.00  0.00     0.292 C 
HETATM    3  C   UNL     1     -38.467 -47.429  16.025  1.00  0.00     0.158 C 
HETATM    4  N   UNL     1     -37.956 -48.132  14.839  1.00  0.00    -0.331 N 
HETATM    5  C   UNL     1     -37.038 -49.247  15.110  1.00  0.00     0.158 C 
HETATM    6  C   UNL     1     -36.040 -48.957  16.242  1.00  0.00     0.292 C 
HETATM    7  C   UNL     1     -38.593 -48.176  13.597  1.00  0.00     0.323 C 
HETATM    8  O   UNL     1     -38.282 -49.022  12.760  1.00  0.00    -0.247 OA
HETATM    9  N   UNL     1     -39.558 -47.220  13.378  1.00  0.00    -0.306 N 
HETATM   10  H   UNL     1     -39.679 -46.470  14.034  1.00  0.00     0.171 HD
ENDROOT
BRANCH   9  11
HETATM   11  C   UNL     1     -40.265 -47.111  12.191  1.00  0.00     0.070 A 
HETATM   12  C   UNL     1     -40.020 -46.359  11.021  1.00  0.00     0.138 A 
HETATM   13  N   UNL     1     -40.974 -46.521  10.097  1.00  0.00    -0.307 N 
HETATM   14  N   UNL     1     -41.850 -47.352  10.694  1.00  0.00    -0.293 N 
ATOM     15  HN  UNL     1     -41.026 -46.112   9.163  1.00  0.00     0.186 HD
HETATM   16  C   UNL     1     -41.447 -47.766  11.934  1.00  0.00     0.141 A 
BRANCH  14  17
HETATM   17  C   UNL     1     -43.113 -47.635  10.042  1.00  0.00     0.250 C 
BRANCH  17  18
HETATM   18  C   UNL     1     -43.221 -46.928   8.717  1.00  0.00     0.235 C 
HETATM   19  O   UNL     1     -43.353 -45.714   8.608  1.00  0.00    -0.272 OA
HETATM   20  N   UNL     1     -43.154 -47.724   7.604  1.00  0.00    -0.369 N 
HETATM   21  H   UNL     1     -43.305 -48.725   7.657  1.00  0.00     0.159 HD
HETATM   22  H   UNL     1     -43.309 -47.274   6.710  1.00  0.00     0.159 HD
ENDBRANCH  17  18
ENDBRANCH  14  17
ENDBRANCH   9  11
BRANCH   1  23
HETATM   23  C   UNL     1     -37.495 -49.554  18.153  1.00  0.00     0.215 C 
HETATM   24  C   UNL     1     -36.655 -50.800  18.495  1.00  0.00     0.042 C 
HETATM   25  C   UNL     1     -38.140 -49.084  19.467  1.00  0.00     0.042 C 
ENDBRANCH   1  23
TORSDOF 4
ENDMDL
MODEL 9
REMARK VINA RESULT:      -4.9      1.670      2.236
REMARK  4 active torsions:
REMARK  status: ('A' for Active; 'I' for Inactive)
REMARK    1  A    between atoms: C_2  and  N_4 
REMARK       I    between atoms: N_7  and  C_10 
REMARK       I    between atoms: C_10  and  N_12 
REMARK    2  A    between atoms: N_12  and  C_13 
REMARK    3  A    between atoms: N_17  and  C_18 
REMARK    4  A    between atoms: C_18  and  C_19 
REMARK       I    between atoms: C_19  and  N_21 
ROOT
HETATM    1  N   UNL     1     -40.379 -53.018  13.559  1.00  0.00     0.095 N 
HETATM    2  C   UNL     1     -39.364 -51.958  13.766  1.00  0.00     0.292 C 
HETATM    3  C   UNL     1     -39.869 -50.508  13.589  1.00  0.00     0.158 C 
HETATM    4  N   UNL     1     -40.663 -50.301  12.368  1.00  0.00    -0.331 N 
HETATM    5  C   UNL     1     -41.553 -51.408  11.995  1.00  0.00     0.158 C 
HETATM    6  C   UNL     1     -40.923 -52.796  12.198  1.00  0.00     0.292 C 
HETATM    7  C   UNL     1     -41.013 -49.056  11.842  1.00  0.00     0.323 C 
HETATM    8  O   UNL     1     -41.922 -48.953  11.019  1.00  0.00    -0.247 OA
HETATM    9  N   UNL     1     -40.277 -47.982  12.288  1.00  0.00    -0.306 N 
HETATM   10  H   UNL     1     -39.460 -48.133  12.851  1.00  0.00     0.171 HD
ENDROOT
BRANCH   9  11
HETATM   11  C   UNL     1     -40.480 -46.684  11.846  1.00  0.00     0.070 A 
HETATM   12  C   UNL     1     -40.039 -46.009  10.686  1.00  0.00     0.138 A 
HETATM   13  N   UNL     1     -40.444 -44.735  10.648  1.00  0.00    -0.307 N 
HETATM   14  N   UNL     1     -41.117 -44.585  11.805  1.00  0.00    -0.293 N 
ATOM     15  HN  UNL     1     -40.282 -44.042   9.917  1.00  0.00     0.186 HD
HETATM   16  C   UNL     1     -41.201 -45.739  12.537  1.00  0.00     0.141 A 
BRANCH  14  17
HETATM   17  C   UNL     1     -41.578 -43.266  12.190  1.00  0.00     0.250 C 
BRANCH  17  18
HETATM   18  C   UNL     1     -42.126 -42.507  11.012  1.00  0.00     0.235 C 
HETATM   19  O   UNL     1     -43.014 -42.940  10.283  1.00  0.00    -0.272 OA
HETATM   20  N   UNL     1     -41.582 -41.271  10.786  1.00  0.00    -0.369 N 
HETATM   21  H   UNL     1     -40.694 -40.999  11.193  1.00  0.00     0.159 HD
HETATM   22  H   UNL     1     -41.882 -40.785   9.949  1.00  0.00     0.159 HD
ENDBRANCH  17  18
ENDBRANCH  14  17
ENDBRANCH   9  11
BRANCH   1  23
HETATM   23  C   UNL     1     -41.431 -53.061  14.606  1.00  0.00     0.215 C 
HETATM   24  C   UNL     1     -42.414 -54.224  14.374  1.00  0.00     0.042 C 
HETATM   25  C   UNL     1     -40.860 -53.245  16.022  1.00  0.00     0.042 C 
ENDBRANCH   1  23
TORSDOF 4
ENDMDL
