MODEL 1
REMARK VINA RESULT:      -7.0      0.000      0.000
REMARK  9 active torsions:
REMARK  status: ('A' for Active; 'I' for Inactive)
REMARK    1  A    between atoms: N_2  and  C_13 
REMARK    2  A    between atoms: C_6  and  N_8 
REMARK    3  A    between atoms: N_8  and  C_16 
REMARK    4  A    between atoms: N_8  and  C_22 
REMARK    5  A    between atoms: C_13  and  C_14 
REMARK    6  A    between atoms: C_14  and  O_19 
REMARK    7  A    between atoms: C_16  and  C_21 
REMARK    8  A    between atoms: C_22  and  C_25 
REMARK    9  A    between atoms: O_23  and  C_25 
ROOT
HETATM    1  C   UNL     1     -41.391 -50.793  12.437  1.00  0.00     0.122 C 
HETATM    2  N   UNL     1     -40.962 -48.745  11.783  1.00  0.00    -0.324 N 
HETATM    3  C   UNL     1     -41.508 -49.461  12.814  1.00  0.00     0.140 C 
HETATM    4  N   UNL     1     -40.651 -50.876  11.265  1.00  0.00    -0.346 N 
ATOM      5  HN  UNL     1     -40.390 -51.724  10.761  1.00  0.00     0.167 HD
HETATM    6  C   UNL     1     -42.021 -51.773  13.264  1.00  0.00     0.135 C 
HETATM    7  C   UNL     1     -40.357 -49.637  10.942  1.00  0.00     0.185 C 
HETATM    8  N   UNL     1     -42.088 -48.971  13.919  1.00  0.00    -0.336 N 
ATOM      9  HN  UNL     1     -42.177 -47.979  14.137  1.00  0.00     0.168 HD
HETATM   10  N   UNL     1     -42.539 -51.295  14.438  1.00  0.00    -0.337 N 
ATOM     11  HN  UNL     1     -42.932 -51.943  15.119  1.00  0.00     0.168 HD
HETATM   12  C   UNL     1     -42.534 -49.970  14.699  1.00  0.00     0.183 C 
ENDROOT
BRANCH   6  13
HETATM   13  N   UNL     1     -42.175 -53.136  12.930  1.00  0.00    -0.363 N 
BRANCH  13  14
HETATM   14  C   UNL     1     -43.162 -53.933  13.688  1.00  0.00     0.129 C 
BRANCH  14  15
HETATM   15  C   UNL     1     -44.601 -54.094  13.110  1.00  0.00     0.004 C 
HETATM   16  C   UNL     1     -45.350 -52.806  12.707  1.00  0.00     0.006 C 
HETATM   17  C   UNL     1     -46.114 -52.140  13.846  1.00  0.00     0.000 C 
HETATM   18  C   UNL     1     -47.036 -53.117  14.568  1.00  0.00     0.000 C 
HETATM   19  C   UNL     1     -46.299 -54.371  15.011  1.00  0.00     0.000 C 
HETATM   20  C   UNL     1     -45.548 -55.033  13.860  1.00  0.00     0.006 C 
ENDBRANCH  14  15
ENDBRANCH  13  14
BRANCH  13  21
HETATM   21  C   UNL     1     -40.911 -53.842  12.608  1.00  0.00     0.150 C 
BRANCH  21  22
HETATM   22  C   UNL     1     -39.953 -54.008  13.811  1.00  0.00     0.183 C 
BRANCH  22  23
HETATM   23  O   UNL     1     -38.717 -54.621  13.429  1.00  0.00    -0.399 OA
HETATM   24  H   UNL     1     -38.197 -54.738  14.239  1.00  0.00     0.209 HD
ENDBRANCH  22  23
ENDBRANCH  21  22
ENDBRANCH  13  21
ENDBRANCH   6  13
BRANCH   2  25
HETATM   25  C   UNL     1     -41.086 -47.317  11.551  1.00  0.00     0.171 C 
BRANCH  25  26
HETATM   26  C   UNL     1     -42.413 -46.932  10.865  1.00  0.00     0.097 C 
HETATM   27  C   UNL     1     -42.778 -47.752   9.638  1.00  0.00     0.068 C 
HETATM   28  C   UNL     1     -43.643 -46.810   8.824  1.00  0.00     0.170 C 
HETATM   29  O   UNL     1     -43.275 -45.472   9.173  1.00  0.00    -0.388 OA
HETATM   30  C   UNL     1     -42.347 -45.523  10.271  1.00  0.00     0.207 C 
BRANCH  26  31
HETATM   31  O   UNL     1     -43.502 -46.970  11.798  1.00  0.00    -0.386 OA
HETATM   32  H   UNL     1     -43.695 -47.894  12.042  1.00  0.00     0.210 HD
ENDBRANCH  26  31
ENDBRANCH  25  26
ENDBRANCH   2  25
TORSDOF 9
ENDMDL
MODEL 2
REMARK VINA RESULT:      -6.8      1.762      2.357
REMARK  9 active torsions:
REMARK  status: ('A' for Active; 'I' for Inactive)
REMARK    1  A    between atoms: N_2  and  C_13 
REMARK    2  A    between atoms: C_6  and  N_8 
REMARK    3  A    between atoms: N_8  and  C_16 
REMARK    4  A    between atoms: N_8  and  C_22 
REMARK    5  A    between atoms: C_13  and  C_14 
REMARK    6  A    between atoms: C_14  and  O_19 
REMARK    7  A    between atoms: C_16  and  C_21 
REMARK    8  A    between atoms: C_22  and  C_25 
REMARK    9  A    between atoms: O_23  and  C_25 
ROOT
HETATM    1  C   UNL     1     -42.096 -49.214  12.339  1.00  0.00     0.122 C 
HETATM    2  N   UNL     1     -42.278 -47.512  10.970  1.00  0.00    -0.324 N 
HETATM    3  C   UNL     1     -42.453 -47.873  12.278  1.00  0.00     0.140 C 
HETATM    4  N   UNL     1     -41.573 -49.607  11.114  1.00  0.00    -0.346 N 
ATOM      5  HN  UNL     1     -41.214 -50.528  10.864  1.00  0.00     0.167 HD
HETATM    6  C   UNL     1     -42.324 -49.906  13.568  1.00  0.00     0.135 C 
HETATM    7  C   UNL     1     -41.639 -48.545  10.343  1.00  0.00     0.185 C 
HETATM    8  N   UNL     1     -42.928 -47.108  13.271  1.00  0.00    -0.336 N 
ATOM      9  HN  UNL     1     -43.208 -46.132  13.169  1.00  0.00     0.168 HD
HETATM   10  N   UNL     1     -42.726 -49.116  14.611  1.00  0.00    -0.337 N 
ATOM     11  HN  UNL     1     -42.831 -49.520  15.542  1.00  0.00     0.168 HD
HETATM   12  C   UNL     1     -42.985 -47.805  14.417  1.00  0.00     0.183 C 
ENDROOT
BRANCH   6  13
HETATM   13  N   UNL     1     -42.211 -51.302  13.744  1.00  0.00    -0.363 N 
BRANCH  13  14
HETATM   14  C   UNL     1     -42.888 -51.915  14.906  1.00  0.00     0.129 C 
BRANCH  14  15
HETATM   15  C   UNL     1     -44.199 -52.726  14.671  1.00  0.00     0.004 C 
HETATM   16  C   UNL     1     -44.816 -52.679  13.256  1.00  0.00     0.006 C 
HETATM   17  C   UNL     1     -45.756 -51.502  13.019  1.00  0.00     0.000 C 
HETATM   18  C   UNL     1     -46.828 -51.397  14.098  1.00  0.00     0.000 C 
HETATM   19  C   UNL     1     -46.229 -51.396  15.496  1.00  0.00     0.000 C 
HETATM   20  C   UNL     1     -45.300 -52.584  15.723  1.00  0.00     0.006 C 
ENDBRANCH  14  15
ENDBRANCH  13  14
BRANCH  13  21
HETATM   21  C   UNL     1     -40.874 -51.861  13.428  1.00  0.00     0.150 C 
BRANCH  21  22
HETATM   22  C   UNL     1     -40.898 -53.021  12.404  1.00  0.00     0.183 C 
BRANCH  22  23
HETATM   23  O   UNL     1     -41.281 -52.575  11.100  1.00  0.00    -0.399 OA
HETATM   24  H   UNL     1     -40.491 -52.621  10.541  1.00  0.00     0.209 HD
ENDBRANCH  22  23
ENDBRANCH  21  22
ENDBRANCH  13  21
ENDBRANCH   6  13
BRANCH   2  25
HETATM   25  C   UNL     1     -42.771 -46.308  10.324  1.00  0.00     0.171 C 
BRANCH  25  26
HETATM   26  C   UNL     1     -43.975 -46.574   9.396  1.00  0.00     0.097 C 
HETATM   27  C   UNL     1     -45.042 -47.499   9.957  1.00  0.00     0.068 C 
HETATM   28  C   UNL     1     -45.675 -48.107   8.721  1.00  0.00     0.170 C 
HETATM   29  O   UNL     1     -44.699 -48.074   7.675  1.00  0.00    -0.388 OA
HETATM   30  C   UNL     1     -43.553 -47.336   8.138  1.00  0.00     0.207 C 
BRANCH  26  31
HETATM   31  O   UNL     1     -44.587 -45.343   8.985  1.00  0.00    -0.386 OA
HETATM   32  H   UNL     1     -44.185 -45.036   8.152  1.00  0.00     0.210 HD
ENDBRANCH  26  31
ENDBRANCH  25  26
ENDBRANCH   2  25
TORSDOF 9
ENDMDL
MODEL 3
REMARK VINA RESULT:      -6.6      2.036      3.104
REMARK  9 active torsions:
REMARK  status: ('A' for Active; 'I' for Inactive)
REMARK    1  A    between atoms: N_2  and  C_13 
REMARK    2  A    between atoms: C_6  and  N_8 
REMARK    3  A    between atoms: N_8  and  C_16 
REMARK    4  A    between atoms: N_8  and  C_22 
REMARK    5  A    between atoms: C_13  and  C_14 
REMARK    6  A    between atoms: C_14  and  O_19 
REMARK    7  A    between atoms: C_16  and  C_21 
REMARK    8  A    between atoms: C_22  and  C_25 
REMARK    9  A    between atoms: O_23  and  C_25 
ROOT
HETATM    1  C   UNL     1     -41.404 -48.700  11.649  1.00  0.00     0.122 C 
HETATM    2  N   UNL     1     -41.264 -46.736  10.686  1.00  0.00    -0.324 N 
HETATM    3  C   UNL     1     -40.635 -47.545  11.593  1.00  0.00     0.140 C 
HETATM    4  N   UNL     1     -42.395 -48.641  10.678  1.00  0.00    -0.346 N 
ATOM      5  HN  UNL     1     -43.098 -49.350  10.471  1.00  0.00     0.167 HD
HETATM    6  C   UNL     1     -41.066 -49.675  12.638  1.00  0.00     0.135 C 
HETATM    7  C   UNL     1     -42.237 -47.481  10.080  1.00  0.00     0.185 C 
HETATM    8  N   UNL     1     -39.545 -47.252  12.317  1.00  0.00    -0.336 N 
ATOM      9  HN  UNL     1     -39.031 -46.373  12.263  1.00  0.00     0.168 HD
HETATM   10  N   UNL     1     -39.906 -49.427  13.322  1.00  0.00    -0.337 N 
ATOM     11  HN  UNL     1     -39.553 -50.116  13.986  1.00  0.00     0.168 HD
HETATM   12  C   UNL     1     -39.226 -48.277  13.124  1.00  0.00     0.183 C 
ENDROOT
BRANCH   6  13
HETATM   13  N   UNL     1     -41.852 -50.800  12.967  1.00  0.00    -0.363 N 
BRANCH  13  14
HETATM   14  C   UNL     1     -43.128 -50.576  13.679  1.00  0.00     0.129 C 
BRANCH  14  15
HETATM   15  C   UNL     1     -43.994 -51.811  14.075  1.00  0.00     0.004 C 
HETATM   16  C   UNL     1     -45.087 -52.256  13.080  1.00  0.00     0.006 C 
HETATM   17  C   UNL     1     -46.421 -51.536  13.248  1.00  0.00     0.000 C 
HETATM   18  C   UNL     1     -46.924 -51.586  14.687  1.00  0.00     0.000 C 
HETATM   19  C   UNL     1     -45.870 -51.105  15.674  1.00  0.00     0.000 C 
HETATM   20  C   UNL     1     -44.545 -51.841  15.502  1.00  0.00     0.006 C 
ENDBRANCH  14  15
ENDBRANCH  13  14
BRANCH  13  21
HETATM   21  C   UNL     1     -41.081 -51.985  13.416  1.00  0.00     0.150 C 
BRANCH  21  22
HETATM   22  C   UNL     1     -40.998 -53.121  12.369  1.00  0.00     0.183 C 
BRANCH  22  23
HETATM   23  O   UNL     1     -41.305 -52.656  11.051  1.00  0.00    -0.399 OA
HETATM   24  H   UNL     1     -42.167 -52.215  11.100  1.00  0.00     0.209 HD
ENDBRANCH  22  23
ENDBRANCH  21  22
ENDBRANCH  13  21
ENDBRANCH   6  13
BRANCH   2  25
HETATM   25  C   UNL     1     -41.030 -45.319  10.470  1.00  0.00     0.171 C 
BRANCH  25  26
HETATM   26  C   UNL     1     -42.127 -44.428  11.089  1.00  0.00     0.097 C 
HETATM   27  C   UNL     1     -41.711 -42.999  11.400  1.00  0.00     0.068 C 
HETATM   28  C   UNL     1     -42.632 -42.599  12.536  1.00  0.00     0.170 C 
HETATM   29  O   UNL     1     -43.026 -43.794  13.216  1.00  0.00    -0.388 OA
HETATM   30  C   UNL     1     -42.536 -44.927  12.477  1.00  0.00     0.207 C 
BRANCH  26  31
HETATM   31  O   UNL     1     -43.298 -44.408  10.261  1.00  0.00    -0.386 OA
HETATM   32  H   UNL     1     -43.734 -43.538  10.326  1.00  0.00     0.210 HD
ENDBRANCH  26  31
ENDBRANCH  25  26
ENDBRANCH   2  25
TORSDOF 9
ENDMDL
MODEL 4
REMARK VINA RESULT:      -6.6      2.179      3.310
REMARK  9 active torsions:
REMARK  status: ('A' for Active; 'I' for Inactive)
REMARK    1  A    between atoms: N_2  and  C_13 
REMARK    2  A    between atoms: C_6  and  N_8 
REMARK    3  A    between atoms: N_8  and  C_16 
REMARK    4  A    between atoms: N_8  and  C_22 
REMARK    5  A    between atoms: C_13  and  C_14 
REMARK    6  A    between atoms: C_14  and  O_19 
REMARK    7  A    between atoms: C_16  and  C_21 
REMARK    8  A    between atoms: C_22  and  C_25 
REMARK    9  A    between atoms: O_23  and  C_25 
ROOT
HETATM    1  C   UNL     1     -41.040 -49.829  11.790  1.00  0.00     0.122 C 
HETATM    2  N   UNL     1     -40.873 -47.723  11.206  1.00  0.00    -0.324 N 
HETATM    3  C   UNL     1     -40.123 -48.839  11.459  1.00  0.00     0.140 C 
HETATM    4  N   UNL     1     -42.328 -49.349  11.591  1.00  0.00    -0.346 N 
ATOM      5  HN  UNL     1     -43.202 -49.853  11.735  1.00  0.00     0.167 HD
HETATM    6  C   UNL     1     -40.527 -51.079  12.255  1.00  0.00     0.135 C 
HETATM    7  C   UNL     1     -42.184 -48.109  11.180  1.00  0.00     0.185 C 
HETATM    8  N   UNL     1     -38.786 -48.933  11.451  1.00  0.00    -0.336 N 
ATOM      9  HN  UNL     1     -38.152 -48.165  11.231  1.00  0.00     0.168 HD
HETATM   10  N   UNL     1     -39.168 -51.216  12.167  1.00  0.00    -0.337 N 
ATOM     11  HN  UNL     1     -38.732 -52.108  12.401  1.00  0.00     0.168 HD
HETATM   12  C   UNL     1     -38.399 -50.178  11.773  1.00  0.00     0.183 C 
ENDROOT
BRANCH   6  13
HETATM   13  N   UNL     1     -41.304 -52.114  12.818  1.00  0.00    -0.363 N 
BRANCH  13  14
HETATM   14  C   UNL     1     -41.792 -51.945  14.203  1.00  0.00     0.129 C 
BRANCH  14  15
HETATM   15  C   UNL     1     -43.302 -52.192  14.505  1.00  0.00     0.004 C 
HETATM   16  C   UNL     1     -43.663 -53.454  15.317  1.00  0.00     0.006 C 
HETATM   17  C   UNL     1     -43.846 -54.712  14.475  1.00  0.00     0.000 C 
HETATM   18  C   UNL     1     -44.819 -54.495  13.321  1.00  0.00     0.000 C 
HETATM   19  C   UNL     1     -44.446 -53.280  12.485  1.00  0.00     0.000 C 
HETATM   20  C   UNL     1     -44.278 -52.027  13.338  1.00  0.00     0.006 C 
ENDBRANCH  14  15
ENDBRANCH  13  14
BRANCH  13  21
HETATM   21  C   UNL     1     -40.857 -53.485  12.472  1.00  0.00     0.150 C 
BRANCH  21  22
HETATM   22  C   UNL     1     -40.104 -54.212  13.611  1.00  0.00     0.183 C 
BRANCH  22  23
HETATM   23  O   UNL     1     -38.688 -54.206  13.404  1.00  0.00    -0.399 OA
HETATM   24  H   UNL     1     -38.273 -54.302  14.276  1.00  0.00     0.209 HD
ENDBRANCH  22  23
ENDBRANCH  21  22
ENDBRANCH  13  21
ENDBRANCH   6  13
BRANCH   2  25
HETATM   25  C   UNL     1     -40.394 -46.357  11.093  1.00  0.00     0.171 C 
BRANCH  25  26
HETATM   26  C   UNL     1     -40.089 -45.711  12.461  1.00  0.00     0.097 C 
HETATM   27  C   UNL     1     -41.289 -45.139  13.197  1.00  0.00     0.068 C 
HETATM   28  C   UNL     1     -40.690 -44.047  14.061  1.00  0.00     0.170 C 
HETATM   29  O   UNL     1     -39.485 -43.605  13.428  1.00  0.00    -0.388 OA
HETATM   30  C   UNL     1     -39.213 -44.466  12.308  1.00  0.00     0.207 C 
BRANCH  26  31
HETATM   31  O   UNL     1     -39.404 -46.633  13.321  1.00  0.00    -0.386 OA
HETATM   32  H   UNL     1     -39.982 -46.881  14.066  1.00  0.00     0.210 HD
ENDBRANCH  26  31
ENDBRANCH  25  26
ENDBRANCH   2  25
TORSDOF 9
ENDMDL
MODEL 5
REMARK VINA RESULT:      -6.6      1.752      2.245
REMARK  9 active torsions:
REMARK  status: ('A' for Active; 'I' for Inactive)
REMARK    1  A    between atoms: N_2  and  C_13 
REMARK    2  A    between atoms: C_6  and  N_8 
REMARK    3  A    between atoms: N_8  and  C_16 
REMARK    4  A    between atoms: N_8  and  C_22 
REMARK    5  A    between atoms: C_13  and  C_14 
REMARK    6  A    between atoms: C_14  and  O_19 
REMARK    7  A    between atoms: C_16  and  C_21 
REMARK    8  A    between atoms: C_22  and  C_25 
REMARK    9  A    between atoms: O_23  and  C_25 
ROOT
HETATM    1  C   UNL     1     -41.816 -49.600  12.723  1.00  0.00     0.122 C 
HETATM    2  N   UNL     1     -42.068 -47.537  12.030  1.00  0.00    -0.324 N 
HETATM    3  C   UNL     1     -41.363 -48.302  12.918  1.00  0.00     0.140 C 
HETATM    4  N   UNL     1     -42.672 -49.630  11.630  1.00  0.00    -0.346 N 
ATOM      5  HN  UNL     1     -43.145 -50.445  11.239  1.00  0.00     0.167 HD
HETATM    6  C   UNL     1     -41.359 -50.606  13.629  1.00  0.00     0.135 C 
HETATM    7  C   UNL     1     -42.745 -48.389  11.203  1.00  0.00     0.185 C 
HETATM    8  N   UNL     1     -40.473 -47.874  13.824  1.00  0.00    -0.336 N 
ATOM      9  HN  UNL     1     -40.195 -46.901  13.951  1.00  0.00     0.168 HD
HETATM   10  N   UNL     1     -40.385 -50.199  14.501  1.00  0.00    -0.337 N 
ATOM     11  HN  UNL     1     -39.947 -50.877  15.125  1.00  0.00     0.168 HD
HETATM   12  C   UNL     1     -39.999 -48.905  14.543  1.00  0.00     0.183 C 
ENDROOT
BRANCH   6  13
HETATM   13  N   UNL     1     -41.866 -51.921  13.703  1.00  0.00    -0.363 N 
BRANCH  13  14
HETATM   14  C   UNL     1     -43.162 -52.131  14.383  1.00  0.00     0.129 C 
BRANCH  14  15
HETATM   15  C   UNL     1     -44.433 -52.387  13.517  1.00  0.00     0.004 C 
HETATM   16  C   UNL     1     -45.542 -51.314  13.555  1.00  0.00     0.006 C 
HETATM   17  C   UNL     1     -46.545 -51.487  14.691  1.00  0.00     0.000 C 
HETATM   18  C   UNL     1     -47.129 -52.894  14.733  1.00  0.00     0.000 C 
HETATM   19  C   UNL     1     -46.044 -53.960  14.743  1.00  0.00     0.000 C 
HETATM   20  C   UNL     1     -45.055 -53.782  13.595  1.00  0.00     0.006 C 
ENDBRANCH  14  15
ENDBRANCH  13  14
BRANCH  13  21
HETATM   21  C   UNL     1     -40.845 -52.967  13.958  1.00  0.00     0.150 C 
BRANCH  21  22
HETATM   22  C   UNL     1     -40.825 -54.101  12.906  1.00  0.00     0.183 C 
BRANCH  22  23
HETATM   23  O   UNL     1     -40.529 -53.609  11.596  1.00  0.00    -0.399 OA
HETATM   24  H   UNL     1     -40.379 -52.654  11.678  1.00  0.00     0.209 HD
ENDBRANCH  22  23
ENDBRANCH  21  22
ENDBRANCH  13  21
ENDBRANCH   6  13
BRANCH   2  25
HETATM   25  C   UNL     1     -42.177 -46.088  12.019  1.00  0.00     0.171 C 
BRANCH  25  26
HETATM   26  C   UNL     1     -41.434 -45.438  10.834  1.00  0.00     0.097 C 
HETATM   27  C   UNL     1     -39.988 -45.872  10.650  1.00  0.00     0.068 C 
HETATM   28  C   UNL     1     -39.345 -44.687   9.958  1.00  0.00     0.170 C 
HETATM   29  O   UNL     1     -40.098 -43.521  10.305  1.00  0.00    -0.388 OA
HETATM   30  C   UNL     1     -41.266 -43.930  11.039  1.00  0.00     0.207 C 
BRANCH  26  31
HETATM   31  O   UNL     1     -42.147 -45.643   9.607  1.00  0.00    -0.386 OA
HETATM   32  H   UNL     1     -41.534 -45.957   8.917  1.00  0.00     0.210 HD
ENDBRANCH  26  31
ENDBRANCH  25  26
ENDBRANCH   2  25
TORSDOF 9
ENDMDL
MODEL 6
REMARK VINA RESULT:      -6.4      1.763      2.840
REMARK  9 active torsions:
REMARK  status: ('A' for Active; 'I' for Inactive)
REMARK    1  A    between atoms: N_2  and  C_13 
REMARK    2  A    between atoms: C_6  and  N_8 
REMARK    3  A    between atoms: N_8  and  C_16 
REMARK    4  A    between atoms: N_8  and  C_22 
REMARK    5  A    between atoms: C_13  and  C_14 
REMARK    6  A    between atoms: C_14  and  O_19 
REMARK    7  A    between atoms: C_16  and  C_21 
REMARK    8  A    between atoms: C_22  and  C_25 
REMARK    9  A    between atoms: O_23  and  C_25 
ROOT
HETATM    1  C   UNL     1     -41.736 -49.305  12.867  1.00  0.00     0.122 C 
HETATM    2  N   UNL     1     -41.086 -47.226  13.110  1.00  0.00    -0.324 N 
HETATM    3  C   UNL     1     -40.927 -48.324  12.309  1.00  0.00     0.140 C 
HETATM    4  N   UNL     1     -42.482 -48.753  13.900  1.00  0.00    -0.346 N 
ATOM      5  HN  UNL     1     -43.173 -49.227  14.483  1.00  0.00     0.167 HD
HETATM    6  C   UNL     1     -41.654 -50.623  12.320  1.00  0.00     0.135 C 
HETATM    7  C   UNL     1     -42.113 -47.494  13.971  1.00  0.00     0.185 C 
HETATM    8  N   UNL     1     -40.113 -48.440  11.250  1.00  0.00    -0.336 N 
ATOM      9  HN  UNL     1     -39.511 -47.697  10.896  1.00  0.00     0.168 HD
HETATM   10  N   UNL     1     -40.895 -50.733  11.187  1.00  0.00    -0.337 N 
ATOM     11  HN  UNL     1     -40.853 -51.622  10.690  1.00  0.00     0.168 HD
HETATM   12  C   UNL     1     -40.200 -49.672  10.722  1.00  0.00     0.183 C 
ENDROOT
BRANCH   6  13
HETATM   13  N   UNL     1     -42.246 -51.772  12.886  1.00  0.00    -0.363 N 
BRANCH  13  14
HETATM   14  C   UNL     1     -43.651 -51.683  13.338  1.00  0.00     0.129 C 
BRANCH  14  15
HETATM   15  C   UNL     1     -44.698 -52.671  12.738  1.00  0.00     0.004 C 
HETATM   16  C   UNL     1     -46.177 -52.455  13.122  1.00  0.00     0.006 C 
HETATM   17  C   UNL     1     -46.595 -53.138  14.420  1.00  0.00     0.000 C 
HETATM   18  C   UNL     1     -46.227 -54.617  14.435  1.00  0.00     0.000 C 
HETATM   19  C   UNL     1     -44.759 -54.840  14.103  1.00  0.00     0.000 C 
HETATM   20  C   UNL     1     -44.357 -54.162  12.797  1.00  0.00     0.006 C 
ENDBRANCH  14  15
ENDBRANCH  13  14
BRANCH  13  21
HETATM   21  C   UNL     1     -41.351 -52.561  13.767  1.00  0.00     0.150 C 
BRANCH  21  22
HETATM   22  C   UNL     1     -40.723 -53.800  13.087  1.00  0.00     0.183 C 
BRANCH  22  23
HETATM   23  O   UNL     1     -40.575 -53.617  11.676  1.00  0.00    -0.399 OA
HETATM   24  H   UNL     1     -40.883 -52.720  11.473  1.00  0.00     0.209 HD
ENDBRANCH  22  23
ENDBRANCH  21  22
ENDBRANCH  13  21
ENDBRANCH   6  13
BRANCH   2  25
HETATM   25  C   UNL     1     -40.258 -46.033  13.131  1.00  0.00     0.171 C 
BRANCH  25  26
HETATM   26  C   UNL     1     -40.476 -45.129  11.900  1.00  0.00     0.097 C 
HETATM   27  C   UNL     1     -40.124 -43.663  12.094  1.00  0.00     0.068 C 
HETATM   28  C   UNL     1     -41.013 -42.947  11.096  1.00  0.00     0.170 C 
HETATM   29  O   UNL     1     -42.157 -43.774  10.865  1.00  0.00    -0.388 OA
HETATM   30  C   UNL     1     -41.958 -45.032  11.533  1.00  0.00     0.207 C 
BRANCH  26  31
HETATM   31  O   UNL     1     -39.768 -45.635  10.760  1.00  0.00    -0.386 OA
HETATM   32  H   UNL     1     -39.785 -44.977  10.041  1.00  0.00     0.210 HD
ENDBRANCH  26  31
ENDBRANCH  25  26
ENDBRANCH   2  25
TORSDOF 9
ENDMDL
MODEL 7
REMARK VINA RESULT:      -6.3      3.039      4.732
REMARK  9 active torsions:
REMARK  status: ('A' for Active; 'I' for Inactive)
REMARK    1  A    between atoms: N_2  and  C_13 
REMARK    2  A    between atoms: C_6  and  N_8 
REMARK    3  A    between atoms: N_8  and  C_16 
REMARK    4  A    between atoms: N_8  and  C_22 
REMARK    5  A    between atoms: C_13  and  C_14 
REMARK    6  A    between atoms: C_14  and  O_19 
REMARK    7  A    between atoms: C_16  and  C_21 
REMARK    8  A    between atoms: C_22  and  C_25 
REMARK    9  A    between atoms: O_23  and  C_25 
ROOT
HETATM    1  C   UNL     1     -42.531 -51.997  13.041  1.00  0.00     0.122 C 
HETATM    2  N   UNL     1     -41.049 -50.793  11.964  1.00  0.00    -0.324 N 
HETATM    3  C   UNL     1     -41.291 -52.060  12.420  1.00  0.00     0.140 C 
HETATM    4  N   UNL     1     -43.089 -50.743  12.827  1.00  0.00    -0.346 N 
ATOM      5  HN  UNL     1     -43.998 -50.410  13.149  1.00  0.00     0.167 HD
HETATM    6  C   UNL     1     -42.978 -53.153  13.751  1.00  0.00     0.135 C 
HETATM    7  C   UNL     1     -42.202 -50.075  12.125  1.00  0.00     0.185 C 
HETATM    8  N   UNL     1     -40.471 -53.117  12.338  1.00  0.00    -0.336 N 
ATOM      9  HN  UNL     1     -39.551 -53.106  11.897  1.00  0.00     0.168 HD
HETATM   10  N   UNL     1     -42.192 -54.264  13.600  1.00  0.00    -0.337 N 
ATOM     11  HN  UNL     1     -42.486 -55.152  14.007  1.00  0.00     0.168 HD
HETATM   12  C   UNL     1     -41.029 -54.193  12.917  1.00  0.00     0.183 C 
ENDROOT
BRANCH   6  13
HETATM   13  N   UNL     1     -44.106 -53.198  14.598  1.00  0.00    -0.363 N 
BRANCH  13  14
HETATM   14  C   UNL     1     -44.159 -52.260  15.738  1.00  0.00     0.129 C 
BRANCH  14  15
HETATM   15  C   UNL     1     -45.134 -51.044  15.667  1.00  0.00     0.004 C 
HETATM   16  C   UNL     1     -45.373 -50.252  16.971  1.00  0.00     0.006 C 
HETATM   17  C   UNL     1     -46.483 -50.815  17.852  1.00  0.00     0.000 C 
HETATM   18  C   UNL     1     -47.781 -51.023  17.080  1.00  0.00     0.000 C 
HETATM   19  C   UNL     1     -47.565 -51.842  15.816  1.00  0.00     0.000 C 
HETATM   20  C   UNL     1     -46.461 -51.261  14.938  1.00  0.00     0.006 C 
ENDBRANCH  14  15
ENDBRANCH  13  14
BRANCH  13  21
HETATM   21  C   UNL     1     -44.616 -54.562  14.881  1.00  0.00     0.150 C 
BRANCH  21  22
HETATM   22  C   UNL     1     -45.653 -55.077  13.855  1.00  0.00     0.183 C 
BRANCH  22  23
HETATM   23  O   UNL     1     -46.082 -54.043  12.965  1.00  0.00    -0.399 OA
HETATM   24  H   UNL     1     -46.830 -54.396  12.459  1.00  0.00     0.209 HD
ENDBRANCH  22  23
ENDBRANCH  21  22
ENDBRANCH  13  21
ENDBRANCH   6  13
BRANCH   2  25
HETATM   25  C   UNL     1     -39.782 -50.260  11.496  1.00  0.00     0.171 C 
BRANCH  25  26
HETATM   26  C   UNL     1     -38.711 -50.195  12.605  1.00  0.00     0.097 C 
HETATM   27  C   UNL     1     -39.241 -50.012  14.018  1.00  0.00     0.068 C 
HETATM   28  C   UNL     1     -38.101 -49.326  14.742  1.00  0.00     0.170 C 
HETATM   29  O   UNL     1     -37.331 -48.618  13.765  1.00  0.00    -0.388 OA
HETATM   30  C   UNL     1     -37.829 -48.953  12.457  1.00  0.00     0.207 C 
BRANCH  26  31
HETATM   31  O   UNL     1     -37.862 -51.350  12.566  1.00  0.00    -0.386 OA
HETATM   32  H   UNL     1     -37.004 -51.143  12.979  1.00  0.00     0.210 HD
ENDBRANCH  26  31
ENDBRANCH  25  26
ENDBRANCH   2  25
TORSDOF 9
ENDMDL
MODEL 8
REMARK VINA RESULT:      -6.2      2.437      4.280
REMARK  9 active torsions:
REMARK  status: ('A' for Active; 'I' for Inactive)
REMARK    1  A    between atoms: N_2  and  C_13 
REMARK    2  A    between atoms: C_6  and  N_8 
REMARK    3  A    between atoms: N_8  and  C_16 
REMARK    4  A    between atoms: N_8  and  C_22 
REMARK    5  A    between atoms: C_13  and  C_14 
REMARK    6  A    between atoms: C_14  and  O_19 
REMARK    7  A    between atoms: C_16  and  C_21 
REMARK    8  A    between atoms: C_22  and  C_25 
REMARK    9  A    between atoms: O_23  and  C_25 
ROOT
HETATM    1  C   UNL     1     -40.347 -47.713  12.013  1.00  0.00     0.122 C 
HETATM    2  N   UNL     1     -40.567 -45.537  11.868  1.00  0.00    -0.324 N 
HETATM    3  C   UNL     1     -40.969 -46.707  11.284  1.00  0.00     0.140 C 
HETATM    4  N   UNL     1     -39.702 -47.155  13.109  1.00  0.00    -0.346 N 
ATOM      5  HN  UNL     1     -39.175 -47.647  13.831  1.00  0.00     0.167 HD
HETATM    6  C   UNL     1     -40.465 -49.052  11.530  1.00  0.00     0.135 C 
HETATM    7  C   UNL     1     -39.912 -45.860  13.024  1.00  0.00     0.185 C 
HETATM    8  N   UNL     1     -41.745 -46.844  10.200  1.00  0.00    -0.336 N 
ATOM      9  HN  UNL     1     -42.155 -46.069   9.678  1.00  0.00     0.168 HD
HETATM   10  N   UNL     1     -41.325 -49.214  10.478  1.00  0.00    -0.337 N 
ATOM     11  HN  UNL     1     -41.528 -50.151  10.128  1.00  0.00     0.168 HD
HETATM   12  C   UNL     1     -41.908 -48.142   9.898  1.00  0.00     0.183 C 
ENDROOT
BRANCH   6  13
HETATM   13  N   UNL     1     -39.741 -50.158  12.024  1.00  0.00    -0.363 N 
BRANCH  13  14
HETATM   14  C   UNL     1     -40.420 -51.073  12.965  1.00  0.00     0.129 C 
BRANCH  14  15
HETATM   15  C   UNL     1     -41.044 -52.392  12.413  1.00  0.00     0.004 C 
HETATM   16  C   UNL     1     -42.581 -52.441  12.269  1.00  0.00     0.006 C 
HETATM   17  C   UNL     1     -43.316 -52.876  13.533  1.00  0.00     0.000 C 
HETATM   18  C   UNL     1     -42.767 -54.181  14.097  1.00  0.00     0.000 C 
HETATM   19  C   UNL     1     -41.259 -54.128  14.287  1.00  0.00     0.000 C 
HETATM   20  C   UNL     1     -40.535 -53.704  13.013  1.00  0.00     0.006 C 
ENDBRANCH  14  15
ENDBRANCH  13  14
BRANCH  13  21
HETATM   21  C   UNL     1     -38.318 -49.879  12.337  1.00  0.00     0.150 C 
BRANCH  21  22
HETATM   22  C   UNL     1     -37.360 -50.042  11.132  1.00  0.00     0.183 C 
BRANCH  22  23
HETATM   23  O   UNL     1     -37.046 -51.415  10.883  1.00  0.00    -0.399 OA
HETATM   24  H   UNL     1     -36.102 -51.529  11.073  1.00  0.00     0.209 HD
ENDBRANCH  22  23
ENDBRANCH  21  22
ENDBRANCH  13  21
ENDBRANCH   6  13
BRANCH   2  25
HETATM   25  C   UNL     1     -40.704 -44.197  11.324  1.00  0.00     0.171 C 
BRANCH  25  26
HETATM   26  C   UNL     1     -42.112 -43.602  11.539  1.00  0.00     0.097 C 
HETATM   27  C   UNL     1     -42.250 -42.120  11.234  1.00  0.00     0.068 C 
HETATM   28  C   UNL     1     -43.398 -41.678  12.119  1.00  0.00     0.170 C 
HETATM   29  O   UNL     1     -43.454 -42.573  13.234  1.00  0.00    -0.388 OA
HETATM   30  C   UNL     1     -42.515 -43.640  13.015  1.00  0.00     0.207 C 
BRANCH  26  31
HETATM   31  O   UNL     1     -43.095 -44.330  10.791  1.00  0.00    -0.386 OA
HETATM   32  H   UNL     1     -42.869 -44.314   9.843  1.00  0.00     0.210 HD
ENDBRANCH  26  31
ENDBRANCH  25  26
ENDBRANCH   2  25
TORSDOF 9
ENDMDL
MODEL 9
REMARK VINA RESULT:      -6.2      2.887      8.038
REMARK  9 active torsions:
REMARK  status: ('A' for Active; 'I' for Inactive)
REMARK    1  A    between atoms: N_2  and  C_13 
REMARK    2  A    between atoms: C_6  and  N_8 
REMARK    3  A    between atoms: N_8  and  C_16 
REMARK    4  A    between atoms: N_8  and  C_22 
REMARK    5  A    between atoms: C_13  and  C_14 
REMARK    6  A    between atoms: C_14  and  O_19 
REMARK    7  A    between atoms: C_16  and  C_21 
REMARK    8  A    between atoms: C_22  and  C_25 
REMARK    9  A    between atoms: O_23  and  C_25 
ROOT
HETATM    1  C   UNL     1     -39.636 -49.451  12.959  1.00  0.00     0.122 C 
HETATM    2  N   UNL     1     -39.263 -51.169  14.266  1.00  0.00    -0.324 N 
HETATM    3  C   UNL     1     -38.767 -50.512  13.173  1.00  0.00     0.140 C 
HETATM    4  N   UNL     1     -40.553 -49.389  14.000  1.00  0.00    -0.346 N 
ATOM      5  HN  UNL     1     -41.301 -48.706  14.122  1.00  0.00     0.167 HD
HETATM    6  C   UNL     1     -39.450 -48.669  11.777  1.00  0.00     0.135 C 
HETATM    7  C   UNL     1     -40.256 -50.392  14.794  1.00  0.00     0.185 C 
HETATM    8  N   UNL     1     -37.705 -50.862  12.434  1.00  0.00    -0.336 N 
ATOM      9  HN  UNL     1     -37.114 -51.674  12.614  1.00  0.00     0.168 HD
HETATM   10  N   UNL     1     -38.319 -48.961  11.062  1.00  0.00    -0.337 N 
ATOM     11  HN  UNL     1     -38.071 -48.394  10.252  1.00  0.00     0.168 HD
HETATM   12  C   UNL     1     -37.530 -49.996  11.422  1.00  0.00     0.183 C 
ENDROOT
BRANCH   6  13
HETATM   13  N   UNL     1     -40.350 -47.691  11.302  1.00  0.00    -0.363 N 
BRANCH  13  14
HETATM   14  C   UNL     1     -40.541 -46.469  12.110  1.00  0.00     0.129 C 
BRANCH  14  15
HETATM   15  C   UNL     1     -39.580 -45.261  11.885  1.00  0.00     0.004 C 
HETATM   16  C   UNL     1     -39.140 -44.465  13.133  1.00  0.00     0.006 C 
HETATM   17  C   UNL     1     -40.099 -43.351  13.538  1.00  0.00     0.000 C 
HETATM   18  C   UNL     1     -40.426 -42.423  12.373  1.00  0.00     0.000 C 
HETATM   19  C   UNL     1     -40.906 -43.193  11.152  1.00  0.00     0.000 C 
HETATM   20  C   UNL     1     -39.932 -44.297  10.751  1.00  0.00     0.006 C 
ENDBRANCH  14  15
ENDBRANCH  13  14
BRANCH  13  21
HETATM   21  C   UNL     1     -41.582 -48.233  10.679  1.00  0.00     0.150 C 
BRANCH  21  22
HETATM   22  C   UNL     1     -42.840 -48.139  11.576  1.00  0.00     0.183 C 
BRANCH  22  23
HETATM   23  O   UNL     1     -43.147 -49.391  12.197  1.00  0.00    -0.399 OA
HETATM   24  H   UNL     1     -43.847 -49.222  12.846  1.00  0.00     0.209 HD
ENDBRANCH  22  23
ENDBRANCH  21  22
ENDBRANCH  13  21
ENDBRANCH   6  13
BRANCH   2  25
HETATM   25  C   UNL     1     -38.893 -52.495  14.731  1.00  0.00     0.171 C 
BRANCH  25  26
HETATM   26  C   UNL     1     -39.754 -53.612  14.108  1.00  0.00     0.097 C 
HETATM   27  C   UNL     1     -40.788 -53.154  13.092  1.00  0.00     0.068 C 
HETATM   28  C   UNL     1     -41.863 -54.219  13.170  1.00  0.00     0.170 C 
HETATM   29  O   UNL     1     -41.800 -54.803  14.474  1.00  0.00    -0.388 OA
HETATM   30  C   UNL     1     -40.647 -54.280  15.157  1.00  0.00     0.207 C 
BRANCH  26  31
HETATM   31  O   UNL     1     -38.930 -54.626  13.517  1.00  0.00    -0.386 OA
HETATM   32  H   UNL     1     -39.228 -55.507  13.810  1.00  0.00     0.210 HD
ENDBRANCH  26  31
ENDBRANCH  25  26
ENDBRANCH   2  25
TORSDOF 9
ENDMDL
