MODEL 1
REMARK VINA RESULT:      -5.4      0.000      0.000
REMARK  2 active torsions:
REMARK  status: ('A' for Active; 'I' for Inactive)
REMARK    1  A    between atoms: C_7  and  N_8 
REMARK    2  A    between atoms: C_14  and  C_15 
ROOT
HETATM    1  N   UNL     3     -44.348 -47.666   9.053  1.00  0.00    -0.325 N 
HETATM    2  C   UNL     3     -44.143 -48.009   7.762  1.00  0.00     0.201 A 
HETATM    3  N   UNL     3     -42.856 -48.323   7.545  1.00  0.00    -0.295 N 
ATOM      4  HN  UNL     3     -42.445 -48.616   6.658  1.00  0.00     0.187 HD
HETATM    5  N   UNL     3     -42.220 -48.180   8.699  1.00  0.00    -0.287 N 
ATOM      6  HN  UNL     3     -41.225 -48.336   8.860  1.00  0.00     0.188 HD
HETATM    7  C   UNL     3     -43.125 -47.790   9.624  1.00  0.00     0.105 A 
ENDROOT
BRANCH   7   8
HETATM    8  C   UNL     3     -42.682 -47.507  11.059  1.00  0.00     0.083 C 
HETATM    9  C   UNL     3     -42.533 -45.988  11.263  1.00  0.00     0.016 C 
HETATM   10  C   UNL     3     -41.263 -45.479  10.576  1.00  0.00     0.031 C 
HETATM   11  C   UNL     3     -40.056 -46.208  11.171  1.00  0.00     0.269 C 
HETATM   12  N   UNL     3     -40.183 -47.656  10.956  1.00  0.00     0.084 N 
HETATM   13  C   UNL     3     -41.399 -48.191  11.594  1.00  0.00     0.281 C 
HETATM   14  H   UNL     3     -39.349 -48.121  11.388  1.00  0.00     0.315 HD
ENDBRANCH   7   8
BRANCH   1  15
HETATM   15  C   UNL     3     -45.605 -47.224   9.666  1.00  0.00     0.092 A 
HETATM   16  C   UNL     3     -46.847 -47.815   9.006  1.00  0.00     0.028 A 
HETATM   17  C   UNL     3     -46.473 -46.352   8.780  1.00  0.00     0.028 A 
ENDBRANCH   1  15
TORSDOF 2
ENDMDL
MODEL 2
REMARK VINA RESULT:      -5.2      2.233      4.246
REMARK  2 active torsions:
REMARK  status: ('A' for Active; 'I' for Inactive)
REMARK    1  A    between atoms: C_7  and  N_8 
REMARK    2  A    between atoms: C_14  and  C_15 
ROOT
HETATM    1  N   UNL     3     -41.823 -49.530  12.089  1.00  0.00    -0.325 N 
HETATM    2  C   UNL     3     -40.909 -50.343  11.514  1.00  0.00     0.201 A 
HETATM    3  N   UNL     3     -40.547 -49.883  10.306  1.00  0.00    -0.295 N 
ATOM      4  HN  UNL     3     -39.873 -50.311   9.672  1.00  0.00     0.187 HD
HETATM    5  N   UNL     3     -41.231 -48.768  10.093  1.00  0.00    -0.287 N 
ATOM      6  HN  UNL     3     -41.184 -48.184   9.258  1.00  0.00     0.188 HD
HETATM    7  C   UNL     3     -42.002 -48.542  11.179  1.00  0.00     0.105 A 
ENDROOT
BRANCH   7   8
HETATM    8  C   UNL     3     -42.941 -47.336  11.218  1.00  0.00     0.083 C 
HETATM    9  C   UNL     3     -44.223 -47.654  10.427  1.00  0.00     0.016 C 
HETATM   10  C   UNL     3     -43.945 -47.622   8.922  1.00  0.00     0.031 C 
HETATM   11  C   UNL     3     -43.431 -46.230   8.547  1.00  0.00     0.269 C 
HETATM   12  N   UNL     3     -42.193 -45.933   9.281  1.00  0.00     0.084 N 
HETATM   13  C   UNL     3     -42.410 -45.961  10.738  1.00  0.00     0.281 C 
HETATM   14  H   UNL     3     -41.881 -44.970   9.010  1.00  0.00     0.315 HD
ENDBRANCH   7   8
BRANCH   1  15
HETATM   15  C   UNL     3     -42.486 -49.716  13.384  1.00  0.00     0.092 A 
HETATM   16  C   UNL     3     -42.664 -51.179  13.775  1.00  0.00     0.028 A 
HETATM   17  C   UNL     3     -43.859 -50.352  13.310  1.00  0.00     0.028 A 
ENDBRANCH   1  15
TORSDOF 2
ENDMDL
MODEL 3
REMARK VINA RESULT:      -5.0      2.186      5.350
REMARK  2 active torsions:
REMARK  status: ('A' for Active; 'I' for Inactive)
REMARK    1  A    between atoms: C_7  and  N_8 
REMARK    2  A    between atoms: C_14  and  C_15 
ROOT
HETATM    1  N   UNL     3     -39.845 -48.663  12.105  1.00  0.00    -0.325 N 
HETATM    2  C   UNL     3     -39.575 -49.853  11.524  1.00  0.00     0.201 A 
HETATM    3  N   UNL     3     -40.343 -50.046  10.440  1.00  0.00    -0.295 N 
ATOM      4  HN  UNL     3     -40.331 -50.861   9.826  1.00  0.00     0.187 HD
HETATM    5  N   UNL     3     -41.120 -48.979  10.318  1.00  0.00    -0.287 N 
ATOM      6  HN  UNL     3     -41.822 -48.827   9.595  1.00  0.00     0.188 HD
HETATM    7  C   UNL     3     -40.815 -48.128  11.323  1.00  0.00     0.105 A 
ENDROOT
BRANCH   7   8
HETATM    8  C   UNL     3     -41.575 -46.811  11.472  1.00  0.00     0.083 C 
HETATM    9  C   UNL     3     -43.032 -47.098  11.877  1.00  0.00     0.016 C 
HETATM   10  C   UNL     3     -43.824 -47.633  10.681  1.00  0.00     0.031 C 
HETATM   11  C   UNL     3     -43.788 -46.590   9.562  1.00  0.00     0.269 C 
HETATM   12  N   UNL     3     -42.400 -46.332   9.155  1.00  0.00     0.084 N 
HETATM   13  C   UNL     3     -41.595 -45.822  10.278  1.00  0.00     0.281 C 
HETATM   14  H   UNL     3     -42.415 -45.604   8.400  1.00  0.00     0.315 HD
ENDBRANCH   7   8
BRANCH   1  15
HETATM   15  C   UNL     3     -39.245 -48.115  13.326  1.00  0.00     0.092 A 
HETATM   16  C   UNL     3     -37.853 -48.662  13.621  1.00  0.00     0.028 A 
HETATM   17  C   UNL     3     -39.054 -49.116  14.447  1.00  0.00     0.028 A 
ENDBRANCH   1  15
TORSDOF 2
ENDMDL
MODEL 4
REMARK VINA RESULT:      -5.0      6.612      8.248
REMARK  2 active torsions:
REMARK  status: ('A' for Active; 'I' for Inactive)
REMARK    1  A    between atoms: C_7  and  N_8 
REMARK    2  A    between atoms: C_14  and  C_15 
ROOT
HETATM    1  N   UNL     3     -42.527 -53.813  13.488  1.00  0.00    -0.325 N 
HETATM    2  C   UNL     3     -41.498 -53.303  12.776  1.00  0.00     0.201 A 
HETATM    3  N   UNL     3     -41.940 -52.641  11.696  1.00  0.00    -0.295 N 
ATOM      4  HN  UNL     3     -41.366 -52.164  11.000  1.00  0.00     0.187 HD
HETATM    5  N   UNL     3     -43.263 -52.724  11.702  1.00  0.00    -0.287 N 
ATOM      6  HN  UNL     3     -43.893 -52.328  11.005  1.00  0.00     0.188 HD
HETATM    7  C   UNL     3     -43.628 -53.429  12.796  1.00  0.00     0.105 A 
ENDROOT
BRANCH   7   8
HETATM    8  C   UNL     3     -45.103 -53.726  13.062  1.00  0.00     0.083 C 
HETATM    9  C   UNL     3     -45.972 -52.611  12.450  1.00  0.00     0.016 C 
HETATM   10  C   UNL     3     -45.885 -51.340  13.298  1.00  0.00     0.031 C 
HETATM   11  C   UNL     3     -46.366 -51.659  14.715  1.00  0.00     0.269 C 
HETATM   12  N   UNL     3     -45.523 -52.705  15.311  1.00  0.00     0.084 N 
HETATM   13  C   UNL     3     -45.568 -53.949  14.523  1.00  0.00     0.281 C 
HETATM   14  H   UNL     3     -45.890 -52.907  16.272  1.00  0.00     0.315 HD
ENDBRANCH   7   8
BRANCH   1  15
HETATM   15  C   UNL     3     -42.448 -54.630  14.704  1.00  0.00     0.092 A 
HETATM   16  C   UNL     3     -42.123 -53.826  15.959  1.00  0.00     0.028 A 
HETATM   17  C   UNL     3     -41.066 -54.723  15.319  1.00  0.00     0.028 A 
ENDBRANCH   1  15
TORSDOF 2
ENDMDL
MODEL 5
REMARK VINA RESULT:      -5.0      3.431      4.725
REMARK  2 active torsions:
REMARK  status: ('A' for Active; 'I' for Inactive)
REMARK    1  A    between atoms: C_7  and  N_8 
REMARK    2  A    between atoms: C_14  and  C_15 
ROOT
HETATM    1  N   UNL     3     -42.480 -51.304  12.841  1.00  0.00    -0.325 N 
HETATM    2  C   UNL     3     -42.275 -52.469  12.187  1.00  0.00     0.201 A 
HETATM    3  N   UNL     3     -41.321 -52.335  11.252  1.00  0.00    -0.295 N 
ATOM      4  HN  UNL     3     -40.979 -53.064  10.626  1.00  0.00     0.187 HD
HETATM    5  N   UNL     3     -40.908 -51.076  11.295  1.00  0.00    -0.287 N 
ATOM      6  HN  UNL     3     -40.192 -50.658  10.700  1.00  0.00     0.188 HD
HETATM    7  C   UNL     3     -41.603 -50.445  12.267  1.00  0.00     0.105 A 
ENDROOT
BRANCH   7   8
HETATM    8  C   UNL     3     -41.372 -48.959  12.535  1.00  0.00     0.083 C 
HETATM    9  C   UNL     3     -42.727 -48.237  12.647  1.00  0.00     0.016 C 
HETATM   10  C   UNL     3     -43.363 -48.077  11.263  1.00  0.00     0.031 C 
HETATM   11  C   UNL     3     -42.413 -47.270  10.375  1.00  0.00     0.269 C 
HETATM   12  N   UNL     3     -41.126 -47.969  10.246  1.00  0.00     0.084 N 
HETATM   13  C   UNL     3     -40.479 -48.153  11.557  1.00  0.00     0.281 C 
HETATM   14  H   UNL     3     -40.499 -47.381   9.646  1.00  0.00     0.315 HD
ENDBRANCH   7   8
BRANCH   1  15
HETATM   15  C   UNL     3     -43.464 -51.040  13.897  1.00  0.00     0.092 A 
HETATM   16  C   UNL     3     -44.278 -52.267  14.293  1.00  0.00     0.028 A 
HETATM   17  C   UNL     3     -44.911 -51.154  13.462  1.00  0.00     0.028 A 
ENDBRANCH   1  15
TORSDOF 2
ENDMDL
MODEL 6
REMARK VINA RESULT:      -5.0      6.911      8.807
REMARK  2 active torsions:
REMARK  status: ('A' for Active; 'I' for Inactive)
REMARK    1  A    between atoms: C_7  and  N_8 
REMARK    2  A    between atoms: C_14  and  C_15 
ROOT
HETATM    1  N   UNL     3     -41.525 -53.494  13.445  1.00  0.00    -0.325 N 
HETATM    2  C   UNL     3     -41.319 -52.763  12.327  1.00  0.00     0.201 A 
HETATM    3  N   UNL     3     -42.435 -52.694  11.584  1.00  0.00    -0.295 N 
ATOM      4  HN  UNL     3     -42.543 -52.201  10.697  1.00  0.00     0.187 HD
HETATM    5  N   UNL     3     -43.370 -53.385  12.219  1.00  0.00    -0.287 N 
ATOM      6  HN  UNL     3     -44.329 -53.529  11.905  1.00  0.00     0.188 HD
HETATM    7  C   UNL     3     -42.825 -53.868  13.358  1.00  0.00     0.105 A 
ENDROOT
BRANCH   7   8
HETATM    8  C   UNL     3     -43.655 -54.744  14.296  1.00  0.00     0.083 C 
HETATM    9  C   UNL     3     -45.074 -54.914  13.722  1.00  0.00     0.016 C 
HETATM   10  C   UNL     3     -45.883 -53.628  13.909  1.00  0.00     0.031 C 
HETATM   11  C   UNL     3     -45.958 -53.306  15.403  1.00  0.00     0.269 C 
HETATM   12  N   UNL     3     -44.606 -53.119  15.948  1.00  0.00     0.084 N 
HETATM   13  C   UNL     3     -43.786 -54.331  15.784  1.00  0.00     0.281 C 
HETATM   14  H   UNL     3     -44.698 -52.916  16.973  1.00  0.00     0.315 HD
ENDBRANCH   7   8
BRANCH   1  15
HETATM   15  C   UNL     3     -40.542 -53.830  14.480  1.00  0.00     0.092 A 
HETATM   16  C   UNL     3     -39.217 -53.090  14.327  1.00  0.00     0.028 A 
HETATM   17  C   UNL     3     -39.319 -54.573  13.980  1.00  0.00     0.028 A 
ENDBRANCH   1  15
TORSDOF 2
ENDMDL
MODEL 7
REMARK VINA RESULT:      -4.9      4.602      5.396
REMARK  2 active torsions:
REMARK  status: ('A' for Active; 'I' for Inactive)
REMARK    1  A    between atoms: C_7  and  N_8 
REMARK    2  A    between atoms: C_14  and  C_15 
ROOT
HETATM    1  N   UNL     3     -44.132 -51.840  13.366  1.00  0.00    -0.325 N 
HETATM    2  C   UNL     3     -44.654 -52.867  12.659  1.00  0.00     0.201 A 
HETATM    3  N   UNL     3     -43.776 -53.323  11.752  1.00  0.00    -0.295 N 
ATOM      4  HN  UNL     3     -43.924 -54.092  11.098  1.00  0.00     0.187 HD
HETATM    5  N   UNL     3     -42.679 -52.588  11.868  1.00  0.00    -0.287 N 
ATOM      6  HN  UNL     3     -41.830 -52.683  11.311  1.00  0.00     0.188 HD
HETATM    7  C   UNL     3     -42.886 -51.689  12.855  1.00  0.00     0.105 A 
ENDROOT
BRANCH   7   8
HETATM    8  C   UNL     3     -41.804 -50.668  13.204  1.00  0.00     0.083 C 
HETATM    9  C   UNL     3     -42.386 -49.246  13.107  1.00  0.00     0.016 C 
HETATM   10  C   UNL     3     -42.558 -48.838  11.641  1.00  0.00     0.031 C 
HETATM   11  C   UNL     3     -41.193 -48.892  10.952  1.00  0.00     0.269 C 
HETATM   12  N   UNL     3     -40.646 -50.255  11.021  1.00  0.00     0.084 N 
HETATM   13  C   UNL     3     -40.470 -50.695  12.415  1.00  0.00     0.281 C 
HETATM   14  H   UNL     3     -39.708 -50.249  10.553  1.00  0.00     0.315 HD
ENDBRANCH   7   8
BRANCH   1  15
HETATM   15  C   UNL     3     -44.796 -51.055  14.413  1.00  0.00     0.092 A 
HETATM   16  C   UNL     3     -45.314 -51.899  15.573  1.00  0.00     0.028 A 
HETATM   17  C   UNL     3     -46.283 -51.309  14.552  1.00  0.00     0.028 A 
ENDBRANCH   1  15
TORSDOF 2
ENDMDL
MODEL 8
REMARK VINA RESULT:      -4.9      5.023      6.744
REMARK  2 active torsions:
REMARK  status: ('A' for Active; 'I' for Inactive)
REMARK    1  A    between atoms: C_7  and  N_8 
REMARK    2  A    between atoms: C_14  and  C_15 
ROOT
HETATM    1  N   UNL     3     -40.337 -52.520  13.075  1.00  0.00    -0.325 N 
HETATM    2  C   UNL     3     -41.364 -52.968  12.319  1.00  0.00     0.201 A 
HETATM    3  N   UNL     3     -41.550 -52.184  11.246  1.00  0.00    -0.295 N 
ATOM      4  HN  UNL     3     -42.256 -52.308  10.520  1.00  0.00     0.187 HD
HETATM    5  N   UNL     3     -40.643 -51.219  11.306  1.00  0.00    -0.287 N 
ATOM      6  HN  UNL     3     -40.529 -50.459  10.636  1.00  0.00     0.188 HD
HETATM    7  C   UNL     3     -39.895 -51.423  12.412  1.00  0.00     0.105 A 
ENDROOT
BRANCH   7   8
HETATM    8  C   UNL     3     -38.778 -50.446  12.776  1.00  0.00     0.083 C 
HETATM    9  C   UNL     3     -39.220 -49.577  13.968  1.00  0.00     0.016 C 
HETATM   10  C   UNL     3     -40.241 -48.529  13.515  1.00  0.00     0.031 C 
HETATM   11  C   UNL     3     -39.600 -47.652  12.437  1.00  0.00     0.269 C 
HETATM   12  N   UNL     3     -39.200 -48.475  11.287  1.00  0.00     0.084 N 
HETATM   13  C   UNL     3     -38.222 -49.505  11.676  1.00  0.00     0.281 C 
HETATM   14  H   UNL     3     -38.754 -47.844  10.579  1.00  0.00     0.315 HD
ENDBRANCH   7   8
BRANCH   1  15
HETATM   15  C   UNL     3     -39.856 -53.082  14.342  1.00  0.00     0.092 A 
HETATM   16  C   UNL     3     -39.196 -54.448  14.193  1.00  0.00     0.028 A 
HETATM   17  C   UNL     3     -40.589 -54.325  14.806  1.00  0.00     0.028 A 
ENDBRANCH   1  15
TORSDOF 2
ENDMDL
MODEL 9
REMARK VINA RESULT:      -4.9      5.022      7.130
REMARK  2 active torsions:
REMARK  status: ('A' for Active; 'I' for Inactive)
REMARK    1  A    between atoms: C_7  and  N_8 
REMARK    2  A    between atoms: C_14  and  C_15 
ROOT
HETATM    1  N   UNL     3     -39.840 -49.893  12.707  1.00  0.00    -0.325 N 
HETATM    2  C   UNL     3     -39.603 -49.430  11.459  1.00  0.00     0.201 A 
HETATM    3  N   UNL     3     -40.258 -50.159  10.542  1.00  0.00    -0.295 N 
ATOM      4  HN  UNL     3     -40.248 -50.014   9.532  1.00  0.00     0.187 HD
HETATM    5  N   UNL     3     -40.921 -51.103  11.195  1.00  0.00    -0.287 N 
ATOM      6  HN  UNL     3     -41.509 -51.823  10.777  1.00  0.00     0.188 HD
HETATM    7  C   UNL     3     -40.678 -50.941  12.515  1.00  0.00     0.105 A 
ENDROOT
BRANCH   7   8
HETATM    8  C   UNL     3     -41.282 -51.909  13.531  1.00  0.00     0.083 C 
HETATM    9  C   UNL     3     -40.245 -52.221  14.626  1.00  0.00     0.016 C 
HETATM   10  C   UNL     3     -39.169 -53.168  14.087  1.00  0.00     0.031 C 
HETATM   11  C   UNL     3     -39.841 -54.461  13.619  1.00  0.00     0.269 C 
HETATM   12  N   UNL     3     -40.814 -54.169  12.556  1.00  0.00     0.084 N 
HETATM   13  C   UNL     3     -41.867 -53.253  13.027  1.00  0.00     0.281 C 
HETATM   14  H   UNL     3     -41.262 -55.073  12.273  1.00  0.00     0.315 HD
ENDBRANCH   7   8
BRANCH   1  15
HETATM   15  C   UNL     3     -39.275 -49.389  13.963  1.00  0.00     0.092 A 
HETATM   16  C   UNL     3     -38.420 -48.138  13.790  1.00  0.00     0.028 A 
HETATM   17  C   UNL     3     -37.766 -49.489  14.068  1.00  0.00     0.028 A 
ENDBRANCH   1  15
TORSDOF 2
ENDMDL
