MODEL 1
REMARK VINA RESULT:      -6.1      0.000      0.000
REMARK  5 active torsions:
REMARK  status: ('A' for Active; 'I' for Inactive)
REMARK    1  A    between atoms: C_4  and  N_5 
REMARK       I    between atoms: N_5  and  C_6 
REMARK       I    between atoms: C_6  and  N_8 
REMARK    2  A    between atoms: N_8  and  C_9 
REMARK    3  A    between atoms: C_9  and  C_10 
REMARK    4  A    between atoms: C_10  and  C_11 
REMARK    5  A    between atoms: C_11  and  N_12 
ROOT
HETATM    1  N   UNL     1     -40.814 -50.556  10.937  1.00  0.00    -0.293 N 
HETATM    2  C   UNL     1     -40.810 -51.355  12.053  1.00  0.00     0.321 C 
HETATM    3  O   UNL     1     -40.639 -50.995  13.211  1.00  0.00    -0.247 OA
HETATM    4  N   UNL     1     -41.078 -52.678  11.744  1.00  0.00    -0.343 N 
HETATM    5  H   UNL     1     -41.062 -50.955  10.046  1.00  0.00     0.172 HD
HETATM    6  H   UNL     1     -40.730 -53.011  10.856  1.00  0.00     0.164 HD
ENDROOT
BRANCH   1   7
HETATM    7  C   UNL     1     -40.623 -49.187  10.994  1.00  0.00     0.132 A 
HETATM    8  C   UNL     1     -41.584 -48.223  10.600  1.00  0.00     0.084 A 
HETATM    9  C   UNL     1     -40.968 -47.013  10.814  1.00  0.00     0.076 A 
HETATM   10  C   UNL     1     -41.335 -45.603  10.615  1.00  0.00     0.079 C 
HETATM   11  O   UNL     1     -39.729 -47.229  11.318  1.00  0.00    -0.241 OA
HETATM   12  N   UNL     1     -39.512 -48.581  11.421  1.00  0.00    -0.245 N 
ATOM     13  HN  UNL     1     -38.665 -49.036  11.759  1.00  0.00     0.196 HD
ENDBRANCH   1   7
BRANCH   4  14
HETATM   14  C   UNL     1     -41.101 -53.639  12.832  1.00  0.00     0.126 C 
BRANCH  14  15
HETATM   15  C   UNL     1     -42.503 -54.106  13.196  1.00  0.00     0.050 C 
BRANCH  15  16
HETATM   16  C   UNL     1     -43.222 -53.116  14.127  1.00  0.00     0.274 C 
BRANCH  16  17
HETATM   17  N   UNL     1     -44.569 -53.564  14.531  1.00  0.00     0.088 N 
HETATM   18  C   UNL     1     -45.430 -53.814  13.360  1.00  0.00     0.272 C 
HETATM   19  C   UNL     1     -45.918 -52.548  12.643  1.00  0.00     0.030 C 
HETATM   20  C   UNL     1     -46.509 -51.521  13.607  1.00  0.00     0.003 C 
HETATM   21  C   UNL     1     -45.605 -51.305  14.814  1.00  0.00     0.030 C 
HETATM   22  C   UNL     1     -45.257 -52.647  15.455  1.00  0.00     0.272 C 
ENDBRANCH  16  17
ENDBRANCH  15  16
ENDBRANCH  14  15
ENDBRANCH   4  14
TORSDOF 5
ENDMDL
MODEL 2
REMARK VINA RESULT:      -5.6      2.386      3.026
REMARK  5 active torsions:
REMARK  status: ('A' for Active; 'I' for Inactive)
REMARK    1  A    between atoms: C_4  and  N_5 
REMARK       I    between atoms: N_5  and  C_6 
REMARK       I    between atoms: C_6  and  N_8 
REMARK    2  A    between atoms: N_8  and  C_9 
REMARK    3  A    between atoms: C_9  and  C_10 
REMARK    4  A    between atoms: C_10  and  C_11 
REMARK    5  A    between atoms: C_11  and  N_12 
ROOT
HETATM    1  N   UNL     1     -41.461 -52.686  11.958  1.00  0.00    -0.293 N 
HETATM    2  C   UNL     1     -42.768 -52.615  12.372  1.00  0.00     0.321 C 
HETATM    3  O   UNL     1     -43.354 -51.620  12.779  1.00  0.00    -0.247 OA
HETATM    4  N   UNL     1     -43.421 -53.830  12.241  1.00  0.00    -0.343 N 
HETATM    5  H   UNL     1     -41.119 -53.542  11.553  1.00  0.00     0.172 HD
HETATM    6  H   UNL     1     -42.862 -54.658  12.395  1.00  0.00     0.164 HD
ENDROOT
BRANCH   1   7
HETATM    7  C   UNL     1     -40.618 -51.590  11.944  1.00  0.00     0.132 A 
HETATM    8  C   UNL     1     -39.558 -51.377  12.859  1.00  0.00     0.084 A 
HETATM    9  C   UNL     1     -39.009 -50.176  12.481  1.00  0.00     0.076 A 
HETATM   10  C   UNL     1     -37.916 -49.323  12.972  1.00  0.00     0.079 C 
HETATM   11  O   UNL     1     -39.679 -49.702  11.402  1.00  0.00    -0.241 OA
HETATM   12  N   UNL     1     -40.685 -50.578  11.074  1.00  0.00    -0.245 N 
ATOM     13  HN  UNL     1     -41.354 -50.476  10.312  1.00  0.00     0.196 HD
ENDBRANCH   1   7
BRANCH   4  14
HETATM   14  C   UNL     1     -44.812 -53.901  12.647  1.00  0.00     0.126 C 
BRANCH  14  15
HETATM   15  C   UNL     1     -45.047 -54.820  13.838  1.00  0.00     0.050 C 
BRANCH  15  16
HETATM   16  C   UNL     1     -44.867 -54.091  15.180  1.00  0.00     0.274 C 
BRANCH  16  17
HETATM   17  N   UNL     1     -46.141 -53.814  15.872  1.00  0.00     0.088 N 
HETATM   18  C   UNL     1     -47.009 -52.930  15.072  1.00  0.00     0.272 C 
HETATM   19  C   UNL     1     -46.558 -51.463  15.025  1.00  0.00     0.030 C 
HETATM   20  C   UNL     1     -46.252 -50.901  16.412  1.00  0.00     0.003 C 
HETATM   21  C   UNL     1     -45.373 -51.850  17.216  1.00  0.00     0.030 C 
HETATM   22  C   UNL     1     -45.982 -53.251  17.222  1.00  0.00     0.272 C 
ENDBRANCH  16  17
ENDBRANCH  15  16
ENDBRANCH  14  15
ENDBRANCH   4  14
TORSDOF 5
ENDMDL
MODEL 3
REMARK VINA RESULT:      -5.5      1.520      2.177
REMARK  5 active torsions:
REMARK  status: ('A' for Active; 'I' for Inactive)
REMARK    1  A    between atoms: C_4  and  N_5 
REMARK       I    between atoms: N_5  and  C_6 
REMARK       I    between atoms: C_6  and  N_8 
REMARK    2  A    between atoms: N_8  and  C_9 
REMARK    3  A    between atoms: C_9  and  C_10 
REMARK    4  A    between atoms: C_10  and  C_11 
REMARK    5  A    between atoms: C_11  and  N_12 
ROOT
HETATM    1  N   UNL     1     -41.837 -48.109  11.126  1.00  0.00    -0.293 N 
HETATM    2  C   UNL     1     -41.255 -49.221  11.682  1.00  0.00     0.321 C 
HETATM    3  O   UNL     1     -40.114 -49.310  12.116  1.00  0.00    -0.247 OA
HETATM    4  N   UNL     1     -42.137 -50.286  11.757  1.00  0.00    -0.343 N 
HETATM    5  H   UNL     1     -42.816 -48.131  10.892  1.00  0.00     0.172 HD
HETATM    6  H   UNL     1     -42.812 -50.362  11.010  1.00  0.00     0.164 HD
ENDROOT
BRANCH   1   7
HETATM    7  C   UNL     1     -41.174 -46.903  10.991  1.00  0.00     0.132 A 
HETATM    8  C   UNL     1     -41.718 -45.641  11.338  1.00  0.00     0.084 A 
HETATM    9  C   UNL     1     -40.728 -44.740  11.028  1.00  0.00     0.076 A 
HETATM   10  C   UNL     1     -40.587 -43.278  11.090  1.00  0.00     0.079 C 
HETATM   11  O   UNL     1     -39.654 -45.410  10.544  1.00  0.00    -0.241 OA
HETATM   12  N   UNL     1     -39.936 -46.754  10.513  1.00  0.00    -0.245 N 
ATOM     13  HN  UNL     1     -39.317 -47.497  10.188  1.00  0.00     0.196 HD
ENDBRANCH   1   7
BRANCH   4  14
HETATM   14  C   UNL     1     -41.652 -51.531  12.322  1.00  0.00     0.126 C 
BRANCH  14  15
HETATM   15  C   UNL     1     -42.677 -52.656  12.274  1.00  0.00     0.050 C 
BRANCH  15  16
HETATM   16  C   UNL     1     -43.788 -52.475  13.321  1.00  0.00     0.274 C 
BRANCH  16  17
HETATM   17  N   UNL     1     -45.082 -53.055  12.909  1.00  0.00     0.088 N 
HETATM   18  C   UNL     1     -46.118 -52.015  12.765  1.00  0.00     0.272 C 
HETATM   19  C   UNL     1     -46.641 -51.447  14.091  1.00  0.00     0.030 C 
HETATM   20  C   UNL     1     -47.029 -52.540  15.085  1.00  0.00     0.003 C 
HETATM   21  C   UNL     1     -45.946 -53.607  15.190  1.00  0.00     0.030 C 
HETATM   22  C   UNL     1     -45.576 -54.118  13.799  1.00  0.00     0.272 C 
ENDBRANCH  16  17
ENDBRANCH  15  16
ENDBRANCH  14  15
ENDBRANCH   4  14
TORSDOF 5
ENDMDL
MODEL 4
REMARK VINA RESULT:      -5.5      2.068      7.528
REMARK  5 active torsions:
REMARK  status: ('A' for Active; 'I' for Inactive)
REMARK    1  A    between atoms: C_4  and  N_5 
REMARK       I    between atoms: N_5  and  C_6 
REMARK       I    between atoms: C_6  and  N_8 
REMARK    2  A    between atoms: N_8  and  C_9 
REMARK    3  A    between atoms: C_9  and  C_10 
REMARK    4  A    between atoms: C_10  and  C_11 
REMARK    5  A    between atoms: C_11  and  N_12 
ROOT
HETATM    1  N   UNL     1     -42.154 -52.592  11.721  1.00  0.00    -0.293 N 
HETATM    2  C   UNL     1     -41.684 -51.351  12.072  1.00  0.00     0.321 C 
HETATM    3  O   UNL     1     -41.845 -50.783  13.144  1.00  0.00    -0.247 OA
HETATM    4  N   UNL     1     -40.927 -50.779  11.063  1.00  0.00    -0.343 N 
HETATM    5  H   UNL     1     -41.874 -52.994  10.841  1.00  0.00     0.172 HD
HETATM    6  H   UNL     1     -41.211 -50.987  10.116  1.00  0.00     0.164 HD
ENDROOT
BRANCH   1   7
HETATM    7  C   UNL     1     -42.892 -53.385  12.581  1.00  0.00     0.132 A 
HETATM    8  C   UNL     1     -44.283 -53.625  12.461  1.00  0.00     0.084 A 
HETATM    9  C   UNL     1     -44.586 -54.444  13.522  1.00  0.00     0.076 A 
HETATM   10  C   UNL     1     -45.810 -55.068  14.047  1.00  0.00     0.079 C 
HETATM   11  O   UNL     1     -43.455 -54.698  14.224  1.00  0.00    -0.241 OA
HETATM   12  N   UNL     1     -42.403 -54.031  13.643  1.00  0.00    -0.245 N 
ATOM     13  HN  UNL     1     -41.435 -54.030  13.961  1.00  0.00     0.196 HD
ENDBRANCH   1   7
BRANCH   4  14
HETATM   14  C   UNL     1     -40.369 -49.460  11.296  1.00  0.00     0.126 C 
BRANCH  14  15
HETATM   15  C   UNL     1     -41.263 -48.330  10.804  1.00  0.00     0.050 C 
BRANCH  15  16
HETATM   16  C   UNL     1     -40.845 -46.966  11.378  1.00  0.00     0.274 C 
BRANCH  16  17
HETATM   17  N   UNL     1     -41.100 -45.839  10.459  1.00  0.00     0.088 N 
HETATM   18  C   UNL     1     -39.969 -44.892  10.439  1.00  0.00     0.272 C 
HETATM   19  C   UNL     1     -39.846 -44.017  11.694  1.00  0.00     0.030 C 
HETATM   20  C   UNL     1     -41.169 -43.358  12.079  1.00  0.00     0.003 C 
HETATM   21  C   UNL     1     -42.316 -44.360  12.068  1.00  0.00     0.030 C 
HETATM   22  C   UNL     1     -42.346 -45.107  10.735  1.00  0.00     0.272 C 
ENDBRANCH  16  17
ENDBRANCH  15  16
ENDBRANCH  14  15
ENDBRANCH   4  14
TORSDOF 5
ENDMDL
MODEL 5
REMARK VINA RESULT:      -5.3      1.335      1.405
REMARK  5 active torsions:
REMARK  status: ('A' for Active; 'I' for Inactive)
REMARK    1  A    between atoms: C_4  and  N_5 
REMARK       I    between atoms: N_5  and  C_6 
REMARK       I    between atoms: C_6  and  N_8 
REMARK    2  A    between atoms: N_8  and  C_9 
REMARK    3  A    between atoms: C_9  and  C_10 
REMARK    4  A    between atoms: C_10  and  C_11 
REMARK    5  A    between atoms: C_11  and  N_12 
ROOT
HETATM    1  N   UNL     1     -42.050 -50.909  11.761  1.00  0.00    -0.293 N 
HETATM    2  C   UNL     1     -41.442 -51.891  12.505  1.00  0.00     0.321 C 
HETATM    3  O   UNL     1     -40.423 -51.778  13.173  1.00  0.00    -0.247 OA
HETATM    4  N   UNL     1     -42.150 -53.081  12.468  1.00  0.00    -0.343 N 
HETATM    5  H   UNL     1     -42.940 -51.098  11.330  1.00  0.00     0.172 HD
HETATM    6  H   UNL     1     -42.626 -53.293  11.602  1.00  0.00     0.164 HD
ENDROOT
BRANCH   1   7
HETATM    7  C   UNL     1     -41.562 -49.617  11.684  1.00  0.00     0.132 A 
HETATM    8  C   UNL     1     -41.701 -48.641  12.701  1.00  0.00     0.084 A 
HETATM    9  C   UNL     1     -41.086 -47.522  12.194  1.00  0.00     0.076 A 
HETATM   10  C   UNL     1     -40.865 -46.146  12.664  1.00  0.00     0.079 C 
HETATM   11  O   UNL     1     -40.594 -47.805  10.964  1.00  0.00    -0.241 OA
HETATM   12  N   UNL     1     -40.898 -49.106  10.644  1.00  0.00    -0.245 N 
ATOM     13  HN  UNL     1     -40.661 -49.589   9.778  1.00  0.00     0.196 HD
ENDBRANCH   1   7
BRANCH   4  14
HETATM   14  C   UNL     1     -41.618 -54.210  13.208  1.00  0.00     0.126 C 
BRANCH  14  15
HETATM   15  C   UNL     1     -42.469 -54.600  14.409  1.00  0.00     0.050 C 
BRANCH  15  16
HETATM   16  C   UNL     1     -43.966 -54.339  14.171  1.00  0.00     0.274 C 
BRANCH  16  17
HETATM   17  N   UNL     1     -44.647 -53.731  15.330  1.00  0.00     0.088 N 
HETATM   18  C   UNL     1     -46.114 -53.804  15.194  1.00  0.00     0.272 C 
HETATM   19  C   UNL     1     -46.709 -52.835  14.164  1.00  0.00     0.030 C 
HETATM   20  C   UNL     1     -46.198 -51.406  14.341  1.00  0.00     0.003 C 
HETATM   21  C   UNL     1     -44.683 -51.372  14.501  1.00  0.00     0.030 C 
HETATM   22  C   UNL     1     -44.250 -52.340  15.600  1.00  0.00     0.272 C 
ENDBRANCH  16  17
ENDBRANCH  15  16
ENDBRANCH  14  15
ENDBRANCH   4  14
TORSDOF 5
ENDMDL
MODEL 6
REMARK VINA RESULT:      -5.2      5.305      6.923
REMARK  5 active torsions:
REMARK  status: ('A' for Active; 'I' for Inactive)
REMARK    1  A    between atoms: C_4  and  N_5 
REMARK       I    between atoms: N_5  and  C_6 
REMARK       I    between atoms: C_6  and  N_8 
REMARK    2  A    between atoms: N_8  and  C_9 
REMARK    3  A    between atoms: C_9  and  C_10 
REMARK    4  A    between atoms: C_10  and  C_11 
REMARK    5  A    between atoms: C_11  and  N_12 
ROOT
HETATM    1  N   UNL     1     -41.813 -47.215  10.292  1.00  0.00    -0.293 N 
HETATM    2  C   UNL     1     -41.259 -45.965  10.418  1.00  0.00     0.321 C 
HETATM    3  O   UNL     1     -41.674 -44.928   9.919  1.00  0.00    -0.247 OA
HETATM    4  N   UNL     1     -40.148 -45.972  11.245  1.00  0.00    -0.343 N 
HETATM    5  H   UNL     1     -41.435 -47.978  10.829  1.00  0.00     0.172 HD
HETATM    6  H   UNL     1     -39.574 -46.804  11.219  1.00  0.00     0.164 HD
ENDROOT
BRANCH   1   7
HETATM    7  C   UNL     1     -42.962 -47.456   9.560  1.00  0.00     0.132 A 
HETATM    8  C   UNL     1     -44.269 -47.511  10.105  1.00  0.00     0.084 A 
HETATM    9  C   UNL     1     -45.081 -47.783   9.031  1.00  0.00     0.076 A 
HETATM   10  C   UNL     1     -46.523 -48.003   8.839  1.00  0.00     0.079 C 
HETATM   11  O   UNL     1     -44.322 -47.870   7.912  1.00  0.00    -0.241 OA
HETATM   12  N   UNL     1     -43.004 -47.675   8.243  1.00  0.00    -0.245 N 
ATOM     13  HN  UNL     1     -42.208 -47.694   7.605  1.00  0.00     0.196 HD
ENDBRANCH   1   7
BRANCH   4  14
HETATM   14  C   UNL     1     -39.457 -44.715  11.464  1.00  0.00     0.126 C 
BRANCH  14  15
HETATM   15  C   UNL     1     -39.806 -44.057  12.792  1.00  0.00     0.050 C 
BRANCH  15  16
HETATM   16  C   UNL     1     -40.222 -45.084  13.858  1.00  0.00     0.274 C 
BRANCH  16  17
HETATM   17  N   UNL     1     -41.457 -44.716  14.577  1.00  0.00     0.088 N 
HETATM   18  C   UNL     1     -41.500 -45.321  15.922  1.00  0.00     0.272 C 
HETATM   19  C   UNL     1     -41.781 -46.830  15.935  1.00  0.00     0.030 C 
HETATM   20  C   UNL     1     -42.983 -47.209  15.072  1.00  0.00     0.003 C 
HETATM   21  C   UNL     1     -42.916 -46.548  13.701  1.00  0.00     0.030 C 
HETATM   22  C   UNL     1     -42.695 -45.045  13.854  1.00  0.00     0.272 C 
ENDBRANCH  16  17
ENDBRANCH  15  16
ENDBRANCH  14  15
ENDBRANCH   4  14
TORSDOF 5
ENDMDL
MODEL 7
REMARK VINA RESULT:      -5.1      4.585      6.551
REMARK  5 active torsions:
REMARK  status: ('A' for Active; 'I' for Inactive)
REMARK    1  A    between atoms: C_4  and  N_5 
REMARK       I    between atoms: N_5  and  C_6 
REMARK       I    between atoms: C_6  and  N_8 
REMARK    2  A    between atoms: N_8  and  C_9 
REMARK    3  A    between atoms: C_9  and  C_10 
REMARK    4  A    between atoms: C_10  and  C_11 
REMARK    5  A    between atoms: C_11  and  N_12 
ROOT
HETATM    1  N   UNL     1     -42.926 -46.078  10.505  1.00  0.00    -0.293 N 
HETATM    2  C   UNL     1     -41.667 -46.426  10.927  1.00  0.00     0.321 C 
HETATM    3  O   UNL     1     -41.024 -47.408  10.580  1.00  0.00    -0.247 OA
HETATM    4  N   UNL     1     -41.135 -45.491  11.799  1.00  0.00    -0.343 N 
HETATM    5  H   UNL     1     -43.314 -45.193  10.790  1.00  0.00     0.172 HD
HETATM    6  H   UNL     1     -41.790 -45.029  12.415  1.00  0.00     0.164 HD
ENDROOT
BRANCH   1   7
HETATM    7  C   UNL     1     -43.645 -46.826   9.590  1.00  0.00     0.132 A 
HETATM    8  C   UNL     1     -44.985 -47.250   9.772  1.00  0.00     0.084 A 
HETATM    9  C   UNL     1     -45.278 -47.965   8.636  1.00  0.00     0.076 A 
HETATM   10  C   UNL     1     -46.446 -48.710   8.140  1.00  0.00     0.079 C 
HETATM   11  O   UNL     1     -44.199 -47.959   7.816  1.00  0.00    -0.241 OA
HETATM   12  N   UNL     1     -43.181 -47.258   8.415  1.00  0.00    -0.245 N 
ATOM     13  HN  UNL     1     -42.248 -47.098   8.035  1.00  0.00     0.196 HD
ENDBRANCH   1   7
BRANCH   4  14
HETATM   14  C   UNL     1     -39.807 -45.734  12.330  1.00  0.00     0.126 C 
BRANCH  14  15
HETATM   15  C   UNL     1     -39.810 -46.175  13.787  1.00  0.00     0.050 C 
BRANCH  15  16
HETATM   16  C   UNL     1     -40.119 -47.674  13.940  1.00  0.00     0.274 C 
BRANCH  16  17
HETATM   17  N   UNL     1     -39.054 -48.424  14.635  1.00  0.00     0.088 N 
HETATM   18  C   UNL     1     -37.809 -48.452  13.844  1.00  0.00     0.272 C 
HETATM   19  C   UNL     1     -37.850 -49.377  12.620  1.00  0.00     0.030 C 
HETATM   20  C   UNL     1     -38.372 -50.772  12.958  1.00  0.00     0.003 C 
HETATM   21  C   UNL     1     -39.644 -50.704  13.793  1.00  0.00     0.030 C 
HETATM   22  C   UNL     1     -39.429 -49.798  15.004  1.00  0.00     0.272 C 
ENDBRANCH  16  17
ENDBRANCH  15  16
ENDBRANCH  14  15
ENDBRANCH   4  14
TORSDOF 5
ENDMDL
MODEL 8
REMARK VINA RESULT:      -5.1      2.742      3.948
REMARK  5 active torsions:
REMARK  status: ('A' for Active; 'I' for Inactive)
REMARK    1  A    between atoms: C_4  and  N_5 
REMARK       I    between atoms: N_5  and  C_6 
REMARK       I    between atoms: C_6  and  N_8 
REMARK    2  A    between atoms: N_8  and  C_9 
REMARK    3  A    between atoms: C_9  and  C_10 
REMARK    4  A    between atoms: C_10  and  C_11 
REMARK    5  A    between atoms: C_11  and  N_12 
ROOT
HETATM    1  N   UNL     1     -41.025 -48.668  10.544  1.00  0.00    -0.293 N 
HETATM    2  C   UNL     1     -40.016 -48.532  11.465  1.00  0.00     0.321 C 
HETATM    3  O   UNL     1     -39.685 -47.504  12.041  1.00  0.00    -0.247 OA
HETATM    4  N   UNL     1     -39.397 -49.740  11.738  1.00  0.00    -0.343 N 
HETATM    5  H   UNL     1     -41.266 -49.587  10.210  1.00  0.00     0.172 HD
HETATM    6  H   UNL     1     -39.324 -50.391  10.969  1.00  0.00     0.164 HD
ENDROOT
BRANCH   1   7
HETATM    7  C   UNL     1     -41.825 -47.612  10.147  1.00  0.00     0.132 A 
HETATM    8  C   UNL     1     -43.197 -47.724   9.809  1.00  0.00     0.084 A 
HETATM    9  C   UNL     1     -43.575 -46.448   9.469  1.00  0.00     0.076 A 
HETATM   10  C   UNL     1     -44.816 -45.814   8.998  1.00  0.00     0.079 C 
HETATM   11  O   UNL     1     -42.512 -45.618   9.607  1.00  0.00    -0.241 OA
HETATM   12  N   UNL     1     -41.422 -46.345  10.020  1.00  0.00    -0.245 N 
ATOM     13  HN  UNL     1     -40.484 -45.987  10.197  1.00  0.00     0.196 HD
ENDBRANCH   1   7
BRANCH   4  14
HETATM   14  C   UNL     1     -38.305 -49.744  12.695  1.00  0.00     0.126 C 
BRANCH  14  15
HETATM   15  C   UNL     1     -38.429 -50.836  13.748  1.00  0.00     0.050 C 
BRANCH  15  16
HETATM   16  C   UNL     1     -39.568 -51.819  13.436  1.00  0.00     0.274 C 
BRANCH  16  17
HETATM   17  N   UNL     1     -39.631 -52.960  14.370  1.00  0.00     0.088 N 
HETATM   18  C   UNL     1     -40.125 -54.179  13.702  1.00  0.00     0.272 C 
HETATM   19  C   UNL     1     -41.628 -54.174  13.394  1.00  0.00     0.030 C 
HETATM   20  C   UNL     1     -42.473 -53.774  14.602  1.00  0.00     0.003 C 
HETATM   21  C   UNL     1     -41.920 -52.526  15.279  1.00  0.00     0.030 C 
HETATM   22  C   UNL     1     -40.433 -52.706  15.578  1.00  0.00     0.272 C 
ENDBRANCH  16  17
ENDBRANCH  15  16
ENDBRANCH  14  15
ENDBRANCH   4  14
TORSDOF 5
ENDMDL
MODEL 9
REMARK VINA RESULT:      -4.9      5.545      9.070
REMARK  5 active torsions:
REMARK  status: ('A' for Active; 'I' for Inactive)
REMARK    1  A    between atoms: C_4  and  N_5 
REMARK       I    between atoms: N_5  and  C_6 
REMARK       I    between atoms: C_6  and  N_8 
REMARK    2  A    between atoms: N_8  and  C_9 
REMARK    3  A    between atoms: C_9  and  C_10 
REMARK    4  A    between atoms: C_10  and  C_11 
REMARK    5  A    between atoms: C_11  and  N_12 
ROOT
HETATM    1  N   UNL     1     -41.822 -47.270  10.346  1.00  0.00    -0.293 N 
HETATM    2  C   UNL     1     -41.201 -46.047  10.409  1.00  0.00     0.321 C 
HETATM    3  O   UNL     1     -41.540 -45.023   9.831  1.00  0.00    -0.247 OA
HETATM    4  N   UNL     1     -40.118 -46.060  11.272  1.00  0.00    -0.343 N 
HETATM    5  H   UNL     1     -41.505 -48.015  10.944  1.00  0.00     0.172 HD
HETATM    6  H   UNL     1     -39.592 -46.922  11.319  1.00  0.00     0.164 HD
ENDROOT
BRANCH   1   7
HETATM    7  C   UNL     1     -42.960 -47.495   9.592  1.00  0.00     0.132 A 
HETATM    8  C   UNL     1     -44.279 -47.514  10.111  1.00  0.00     0.084 A 
HETATM    9  C   UNL     1     -45.074 -47.782   9.023  1.00  0.00     0.076 A 
HETATM   10  C   UNL     1     -46.516 -47.973   8.802  1.00  0.00     0.079 C 
HETATM   11  O   UNL     1     -44.294 -47.900   7.921  1.00  0.00    -0.241 OA
HETATM   12  N   UNL     1     -42.979 -47.730   8.278  1.00  0.00    -0.245 N 
ATOM     13  HN  UNL     1     -42.171 -47.774   7.657  1.00  0.00     0.196 HD
ENDBRANCH   1   7
BRANCH   4  14
HETATM   14  C   UNL     1     -39.363 -44.831  11.433  1.00  0.00     0.126 C 
BRANCH  14  15
HETATM   15  C   UNL     1     -39.835 -43.981  12.604  1.00  0.00     0.050 C 
BRANCH  15  16
HETATM   16  C   UNL     1     -40.364 -42.610  12.150  1.00  0.00     0.274 C 
BRANCH  16  17
HETATM   17  N   UNL     1     -39.951 -41.501  13.033  1.00  0.00     0.088 N 
HETATM   18  C   UNL     1     -40.576 -41.610  14.365  1.00  0.00     0.272 C 
HETATM   19  C   UNL     1     -42.071 -41.262  14.401  1.00  0.00     0.030 C 
HETATM   20  C   UNL     1     -42.380 -39.939  13.705  1.00  0.00     0.003 C 
HETATM   21  C   UNL     1     -41.701 -39.852  12.343  1.00  0.00     0.030 C 
HETATM   22  C   UNL     1     -40.211 -40.162  12.480  1.00  0.00     0.272 C 
ENDBRANCH  16  17
ENDBRANCH  15  16
ENDBRANCH  14  15
ENDBRANCH   4  14
TORSDOF 5
ENDMDL
