MODEL 1
REMARK VINA RESULT:      -5.8      0.000      0.000
REMARK  7 active torsions:
REMARK  status: ('A' for Active; 'I' for Inactive)
REMARK    1  A    between atoms: N_5  and  C_6 
REMARK    2  A    between atoms: C_6  and  C_7 
REMARK    3  A    between atoms: C_7  and  O_8 
REMARK    4  A    between atoms: C_7  and  C_9 
REMARK    5  A    between atoms: C_9  and  O_10 
REMARK    6  A    between atoms: O_10  and  C_11 
REMARK    7  A    between atoms: C_11  and  C_12 
ROOT
HETATM    1  C   UNL     1     -46.278 -51.523  12.544  1.00  0.00     0.070 C 
HETATM    2  C   UNL     1     -45.039 -51.131  13.321  1.00  0.00     0.029 A 
HETATM    3  N   UNL     1     -44.076 -50.611  12.631  1.00  0.00    -0.300 N 
ATOM      4  HN  UNL     1     -44.151 -50.522  11.618  1.00  0.00     0.187 HD
HETATM    5  N   UNL     1     -42.954 -50.183  13.288  1.00  0.00    -0.254 N 
HETATM    6  C   UNL     1     -42.750 -50.354  14.655  1.00  0.00     0.283 A 
HETATM    7  O   UNL     1     -41.713 -50.028  15.231  1.00  0.00    -0.265 OA
HETATM    8  C   UNL     1     -43.875 -50.961  15.413  1.00  0.00     0.121 A 
HETATM    9  C   UNL     1     -43.698 -51.119  16.815  1.00  0.00     0.105 C 
HETATM   10  N   UNL     1     -43.618 -51.278  17.962  1.00  0.00    -0.191 NA
HETATM   11  C   UNL     1     -45.005 -51.349  14.791  1.00  0.00    -0.012 A 
HETATM   12  C   UNL     1     -46.199 -51.979  15.444  1.00  0.00     0.052 C 
ENDROOT
BRANCH   5  13
HETATM   13  C   UNL     1     -41.874 -49.624  12.466  1.00  0.00     0.186 C 
BRANCH  13  14
HETATM   14  C   UNL     1     -41.064 -50.672  11.678  1.00  0.00     0.162 C 
BRANCH  14  15
HETATM   15  O   UNL     1     -40.605 -50.151  10.426  1.00  0.00    -0.392 OA
HETATM   16  H   UNL     1     -41.178 -50.582   9.755  1.00  0.00     0.210 HD
ENDBRANCH  14  15
BRANCH  14  17
HETATM   17  C   UNL     1     -39.877 -51.218  12.485  1.00  0.00     0.201 C 
BRANCH  17  18
HETATM   18  O   UNL     1     -39.943 -52.625  12.699  1.00  0.00    -0.384 OA
BRANCH  18  19
HETATM   19  C   UNL     1     -41.204 -53.194  12.340  1.00  0.00     0.209 C 
BRANCH  19  20
HETATM   20  C   UNL     1     -41.859 -53.783  13.555  1.00  0.00     0.004 A 
HETATM   21  C   UNL     1     -41.214 -53.820  14.801  1.00  0.00     0.012 A 
HETATM   22  C   UNL     1     -41.863 -54.352  15.916  1.00  0.00     0.001 A 
HETATM   23  C   UNL     1     -43.168 -54.834  15.804  1.00  0.00     0.003 A 
HETATM   24  C   UNL     1     -43.830 -54.766  14.579  1.00  0.00     0.043 A 
HETATM   25  C   UNL     1     -43.176 -54.237  13.472  1.00  0.00     0.124 A 
HETATM   26  F   UNL     1     -43.835 -54.158  12.307  1.00  0.00    -0.205 F 
ENDBRANCH  19  20
ENDBRANCH  18  19
ENDBRANCH  17  18
ENDBRANCH  14  17
ENDBRANCH  13  14
ENDBRANCH   5  13
TORSDOF 7
ENDMDL
MODEL 2
REMARK VINA RESULT:      -5.6      3.881      6.280
REMARK  7 active torsions:
REMARK  status: ('A' for Active; 'I' for Inactive)
REMARK    1  A    between atoms: N_5  and  C_6 
REMARK    2  A    between atoms: C_6  and  C_7 
REMARK    3  A    between atoms: C_7  and  O_8 
REMARK    4  A    between atoms: C_7  and  C_9 
REMARK    5  A    between atoms: C_9  and  O_10 
REMARK    6  A    between atoms: O_10  and  C_11 
REMARK    7  A    between atoms: C_11  and  C_12 
ROOT
HETATM    1  C   UNL     1     -44.596 -52.680  13.059  1.00  0.00     0.070 C 
HETATM    2  C   UNL     1     -43.105 -52.452  12.926  1.00  0.00     0.029 A 
HETATM    3  N   UNL     1     -42.747 -51.374  12.309  1.00  0.00    -0.300 N 
ATOM      4  HN  UNL     1     -43.444 -50.750  11.904  1.00  0.00     0.187 HD
HETATM    5  N   UNL     1     -41.412 -51.086  12.211  1.00  0.00    -0.254 N 
HETATM    6  C   UNL     1     -40.406 -51.935  12.663  1.00  0.00     0.283 A 
HETATM    7  O   UNL     1     -39.207 -51.706  12.513  1.00  0.00    -0.265 OA
HETATM    8  C   UNL     1     -40.856 -53.170  13.359  1.00  0.00     0.121 A 
HETATM    9  C   UNL     1     -39.844 -54.037  13.853  1.00  0.00     0.105 C 
HETATM   10  N   UNL     1     -39.069 -54.791  14.278  1.00  0.00    -0.191 NA
HETATM   11  C   UNL     1     -42.166 -53.448  13.504  1.00  0.00    -0.012 A 
HETATM   12  C   UNL     1     -42.739 -54.660  14.177  1.00  0.00     0.052 C 
ENDROOT
BRANCH   5  13
HETATM   13  C   UNL     1     -41.046 -49.866  11.481  1.00  0.00     0.186 C 
BRANCH  13  14
HETATM   14  C   UNL     1     -42.152 -48.793  11.437  1.00  0.00     0.162 C 
BRANCH  14  15
HETATM   15  O   UNL     1     -42.480 -48.322  12.749  1.00  0.00    -0.392 OA
HETATM   16  H   UNL     1     -41.625 -48.017  13.122  1.00  0.00     0.210 HD
ENDBRANCH  14  15
BRANCH  14  17
HETATM   17  C   UNL     1     -41.779 -47.609  10.532  1.00  0.00     0.201 C 
BRANCH  17  18
HETATM   18  O   UNL     1     -42.776 -46.592  10.500  1.00  0.00    -0.384 OA
BRANCH  18  19
HETATM   19  C   UNL     1     -43.206 -46.262   9.178  1.00  0.00     0.209 C 
BRANCH  19  20
HETATM   20  C   UNL     1     -44.358 -47.139   8.785  1.00  0.00     0.004 A 
HETATM   21  C   UNL     1     -45.603 -47.060   9.427  1.00  0.00     0.012 A 
HETATM   22  C   UNL     1     -46.662 -47.873   9.019  1.00  0.00     0.001 A 
HETATM   23  C   UNL     1     -46.494 -48.758   7.954  1.00  0.00     0.003 A 
HETATM   24  C   UNL     1     -45.272 -48.817   7.285  1.00  0.00     0.043 A 
HETATM   25  C   UNL     1     -44.223 -48.005   7.699  1.00  0.00     0.124 A 
HETATM   26  F   UNL     1     -43.061 -48.058   7.031  1.00  0.00    -0.205 F 
ENDBRANCH  19  20
ENDBRANCH  18  19
ENDBRANCH  17  18
ENDBRANCH  14  17
ENDBRANCH  13  14
ENDBRANCH   5  13
TORSDOF 7
ENDMDL
MODEL 3
REMARK VINA RESULT:      -5.6      2.852      4.927
REMARK  7 active torsions:
REMARK  status: ('A' for Active; 'I' for Inactive)
REMARK    1  A    between atoms: N_5  and  C_6 
REMARK    2  A    between atoms: C_6  and  C_7 
REMARK    3  A    between atoms: C_7  and  O_8 
REMARK    4  A    between atoms: C_7  and  C_9 
REMARK    5  A    between atoms: C_9  and  O_10 
REMARK    6  A    between atoms: O_10  and  C_11 
REMARK    7  A    between atoms: C_11  and  C_12 
ROOT
HETATM    1  C   UNL     1     -42.728 -47.790   9.393  1.00  0.00     0.070 C 
HETATM    2  C   UNL     1     -41.649 -47.916  10.447  1.00  0.00     0.029 A 
HETATM    3  N   UNL     1     -41.258 -49.118  10.721  1.00  0.00    -0.300 N 
ATOM      4  HN  UNL     1     -41.697 -49.923  10.273  1.00  0.00     0.187 HD
HETATM    5  N   UNL     1     -40.243 -49.290  11.624  1.00  0.00    -0.254 N 
HETATM    6  C   UNL     1     -39.661 -48.244  12.336  1.00  0.00     0.283 A 
HETATM    7  O   UNL     1     -38.796 -48.408  13.194  1.00  0.00    -0.265 OA
HETATM    8  C   UNL     1     -40.141 -46.878  12.000  1.00  0.00     0.121 A 
HETATM    9  C   UNL     1     -39.540 -45.794  12.695  1.00  0.00     0.105 C 
HETATM   10  N   UNL     1     -39.092 -44.864  13.228  1.00  0.00    -0.191 NA
HETATM   11  C   UNL     1     -41.108 -46.686  11.082  1.00  0.00    -0.012 A 
HETATM   12  C   UNL     1     -41.678 -45.362  10.667  1.00  0.00     0.052 C 
ENDROOT
BRANCH   5  13
HETATM   13  C   UNL     1     -39.847 -50.671  11.927  1.00  0.00     0.186 C 
BRANCH  13  14
HETATM   14  C   UNL     1     -41.027 -51.642  12.131  1.00  0.00     0.162 C 
BRANCH  14  15
HETATM   15  O   UNL     1     -41.249 -52.452  10.972  1.00  0.00    -0.392 OA
HETATM   16  H   UNL     1     -41.769 -53.217  11.301  1.00  0.00     0.210 HD
ENDBRANCH  14  15
BRANCH  14  17
HETATM   17  C   UNL     1     -40.839 -52.534  13.367  1.00  0.00     0.201 C 
BRANCH  17  18
HETATM   18  O   UNL     1     -41.826 -52.318  14.371  1.00  0.00    -0.384 OA
BRANCH  18  19
HETATM   19  C   UNL     1     -42.844 -53.320  14.389  1.00  0.00     0.209 C 
BRANCH  19  20
HETATM   20  C   UNL     1     -44.187 -52.682  14.183  1.00  0.00     0.004 A 
HETATM   21  C   UNL     1     -44.829 -51.960  15.200  1.00  0.00     0.012 A 
HETATM   22  C   UNL     1     -46.066 -51.358  14.967  1.00  0.00     0.001 A 
HETATM   23  C   UNL     1     -46.665 -51.453  13.710  1.00  0.00     0.003 A 
HETATM   24  C   UNL     1     -46.018 -52.137  12.683  1.00  0.00     0.043 A 
HETATM   25  C   UNL     1     -44.787 -52.735  12.924  1.00  0.00     0.124 A 
HETATM   26  F   UNL     1     -44.167 -53.369  11.918  1.00  0.00    -0.205 F 
ENDBRANCH  19  20
ENDBRANCH  18  19
ENDBRANCH  17  18
ENDBRANCH  14  17
ENDBRANCH  13  14
ENDBRANCH   5  13
TORSDOF 7
ENDMDL
MODEL 4
REMARK VINA RESULT:      -5.5      2.205      4.229
REMARK  7 active torsions:
REMARK  status: ('A' for Active; 'I' for Inactive)
REMARK    1  A    between atoms: N_5  and  C_6 
REMARK    2  A    between atoms: C_6  and  C_7 
REMARK    3  A    between atoms: C_7  and  O_8 
REMARK    4  A    between atoms: C_7  and  C_9 
REMARK    5  A    between atoms: C_9  and  O_10 
REMARK    6  A    between atoms: O_10  and  C_11 
REMARK    7  A    between atoms: C_11  and  C_12 
ROOT
HETATM    1  C   UNL     1     -41.565 -53.190  17.583  1.00  0.00     0.070 C 
HETATM    2  C   UNL     1     -42.160 -53.463  16.217  1.00  0.00     0.029 A 
HETATM    3  N   UNL     1     -41.396 -53.215  15.204  1.00  0.00    -0.300 N 
ATOM      4  HN  UNL     1     -40.467 -52.816  15.338  1.00  0.00     0.187 HD
HETATM    5  N   UNL     1     -41.859 -53.498  13.947  1.00  0.00    -0.254 N 
HETATM    6  C   UNL     1     -43.146 -53.959  13.686  1.00  0.00     0.283 A 
HETATM    7  O   UNL     1     -43.582 -54.149  12.552  1.00  0.00    -0.265 OA
HETATM    8  C   UNL     1     -43.998 -54.225  14.876  1.00  0.00     0.121 A 
HETATM    9  C   UNL     1     -45.307 -54.724  14.633  1.00  0.00     0.105 C 
HETATM   10  N   UNL     1     -46.388 -55.130  14.505  1.00  0.00    -0.191 NA
HETATM   11  C   UNL     1     -43.545 -53.995  16.123  1.00  0.00    -0.012 A 
HETATM   12  C   UNL     1     -44.310 -54.216  17.394  1.00  0.00     0.052 C 
ENDROOT
BRANCH   5  13
HETATM   13  C   UNL     1     -40.971 -53.176  12.823  1.00  0.00     0.186 C 
BRANCH  13  14
HETATM   14  C   UNL     1     -40.386 -51.751  12.859  1.00  0.00     0.162 C 
BRANCH  14  15
HETATM   15  O   UNL     1     -39.280 -51.613  11.960  1.00  0.00    -0.392 OA
HETATM   16  H   UNL     1     -39.689 -51.363  11.103  1.00  0.00     0.210 HD
ENDBRANCH  14  15
BRANCH  14  17
HETATM   17  C   UNL     1     -41.444 -50.679  12.559  1.00  0.00     0.201 C 
BRANCH  17  18
HETATM   18  O   UNL     1     -42.382 -50.504  13.617  1.00  0.00    -0.384 OA
BRANCH  18  19
HETATM   19  C   UNL     1     -43.727 -50.350  13.162  1.00  0.00     0.209 C 
BRANCH  19  20
HETATM   20  C   UNL     1     -44.680 -50.685  14.272  1.00  0.00     0.004 A 
HETATM   21  C   UNL     1     -44.375 -50.421  15.616  1.00  0.00     0.012 A 
HETATM   22  C   UNL     1     -45.295 -50.721  16.622  1.00  0.00     0.001 A 
HETATM   23  C   UNL     1     -46.535 -51.270  16.295  1.00  0.00     0.003 A 
HETATM   24  C   UNL     1     -46.861 -51.502  14.959  1.00  0.00     0.043 A 
HETATM   25  C   UNL     1     -45.939 -51.201  13.964  1.00  0.00     0.124 A 
HETATM   26  F   UNL     1     -46.278 -51.408  12.683  1.00  0.00    -0.205 F 
ENDBRANCH  19  20
ENDBRANCH  18  19
ENDBRANCH  17  18
ENDBRANCH  14  17
ENDBRANCH  13  14
ENDBRANCH   5  13
TORSDOF 7
ENDMDL
MODEL 5
REMARK VINA RESULT:      -5.4      2.303      4.519
REMARK  7 active torsions:
REMARK  status: ('A' for Active; 'I' for Inactive)
REMARK    1  A    between atoms: N_5  and  C_6 
REMARK    2  A    between atoms: C_6  and  C_7 
REMARK    3  A    between atoms: C_7  and  O_8 
REMARK    4  A    between atoms: C_7  and  C_9 
REMARK    5  A    between atoms: C_9  and  O_10 
REMARK    6  A    between atoms: O_10  and  C_11 
REMARK    7  A    between atoms: C_11  and  C_12 
ROOT
HETATM    1  C   UNL     1     -39.972 -54.722  15.936  1.00  0.00     0.070 C 
HETATM    2  C   UNL     1     -41.019 -54.305  14.925  1.00  0.00     0.029 A 
HETATM    3  N   UNL     1     -40.631 -53.475  14.012  1.00  0.00    -0.300 N 
ATOM      4  HN  UNL     1     -39.682 -53.102  14.019  1.00  0.00     0.187 HD
HETATM    5  N   UNL     1     -41.519 -53.108  13.037  1.00  0.00    -0.254 N 
HETATM    6  C   UNL     1     -42.851 -53.510  13.018  1.00  0.00     0.283 A 
HETATM    7  O   UNL     1     -43.663 -53.125  12.179  1.00  0.00    -0.265 OA
HETATM    8  C   UNL     1     -43.264 -54.456  14.088  1.00  0.00     0.121 A 
HETATM    9  C   UNL     1     -44.614 -54.901  14.070  1.00  0.00     0.105 C 
HETATM   10  N   UNL     1     -45.703 -55.301  14.116  1.00  0.00    -0.191 NA
HETATM   11  C   UNL     1     -42.393 -54.864  15.031  1.00  0.00    -0.012 A 
HETATM   12  C   UNL     1     -42.692 -55.805  16.160  1.00  0.00     0.052 C 
ENDROOT
BRANCH   5  13
HETATM   13  C   UNL     1     -41.046 -52.145  12.035  1.00  0.00     0.186 C 
BRANCH  13  14
HETATM   14  C   UNL     1     -41.331 -50.671  12.383  1.00  0.00     0.162 C 
BRANCH  14  15
HETATM   15  O   UNL     1     -42.542 -50.211  11.774  1.00  0.00    -0.392 OA
HETATM   16  H   UNL     1     -42.587 -49.257  12.003  1.00  0.00     0.210 HD
ENDBRANCH  14  15
BRANCH  14  17
HETATM   17  C   UNL     1     -41.381 -50.429  13.899  1.00  0.00     0.201 C 
BRANCH  17  18
HETATM   18  O   UNL     1     -42.696 -50.174  14.383  1.00  0.00    -0.384 OA
BRANCH  18  19
HETATM   19  C   UNL     1     -43.022 -50.920  15.557  1.00  0.00     0.209 C 
BRANCH  19  20
HETATM   20  C   UNL     1     -44.462 -51.338  15.509  1.00  0.00     0.004 A 
HETATM   21  C   UNL     1     -45.294 -51.012  14.427  1.00  0.00     0.012 A 
HETATM   22  C   UNL     1     -46.622 -51.439  14.403  1.00  0.00     0.001 A 
HETATM   23  C   UNL     1     -47.129 -52.212  15.448  1.00  0.00     0.003 A 
HETATM   24  C   UNL     1     -46.300 -52.572  16.510  1.00  0.00     0.043 A 
HETATM   25  C   UNL     1     -44.978 -52.141  16.527  1.00  0.00     0.124 A 
HETATM   26  F   UNL     1     -44.189 -52.516  17.544  1.00  0.00    -0.205 F 
ENDBRANCH  19  20
ENDBRANCH  18  19
ENDBRANCH  17  18
ENDBRANCH  14  17
ENDBRANCH  13  14
ENDBRANCH   5  13
TORSDOF 7
ENDMDL
MODEL 6
REMARK VINA RESULT:      -5.4      2.601      4.856
REMARK  7 active torsions:
REMARK  status: ('A' for Active; 'I' for Inactive)
REMARK    1  A    between atoms: N_5  and  C_6 
REMARK    2  A    between atoms: C_6  and  C_7 
REMARK    3  A    between atoms: C_7  and  O_8 
REMARK    4  A    between atoms: C_7  and  C_9 
REMARK    5  A    between atoms: C_9  and  O_10 
REMARK    6  A    between atoms: O_10  and  C_11 
REMARK    7  A    between atoms: C_11  and  C_12 
ROOT
HETATM    1  C   UNL     1     -42.326 -47.980   9.940  1.00  0.00     0.070 C 
HETATM    2  C   UNL     1     -41.681 -48.535  11.192  1.00  0.00     0.029 A 
HETATM    3  N   UNL     1     -42.179 -49.638  11.648  1.00  0.00    -0.300 N 
ATOM      4  HN  UNL     1     -42.988 -50.068  11.201  1.00  0.00     0.187 HD
HETATM    5  N   UNL     1     -41.598 -50.218  12.745  1.00  0.00    -0.254 N 
HETATM    6  C   UNL     1     -40.549 -49.642  13.455  1.00  0.00     0.283 A 
HETATM    7  O   UNL     1     -40.074 -50.131  14.478  1.00  0.00    -0.265 OA
HETATM    8  C   UNL     1     -40.008 -48.370  12.906  1.00  0.00     0.121 A 
HETATM    9  C   UNL     1     -38.918 -47.780  13.601  1.00  0.00     0.105 C 
HETATM   10  N   UNL     1     -38.029 -47.243  14.122  1.00  0.00    -0.191 NA
HETATM   11  C   UNL     1     -40.538 -47.807  11.803  1.00  0.00    -0.012 A 
HETATM   12  C   UNL     1     -40.085 -46.528  11.163  1.00  0.00     0.052 C 
ENDROOT
BRANCH   5  13
HETATM   13  C   UNL     1     -42.210 -51.455  13.246  1.00  0.00     0.186 C 
BRANCH  13  14
HETATM   14  C   UNL     1     -42.528 -52.496  12.155  1.00  0.00     0.162 C 
BRANCH  14  15
HETATM   15  O   UNL     1     -41.437 -52.651  11.241  1.00  0.00    -0.392 OA
HETATM   16  H   UNL     1     -40.670 -52.248  11.702  1.00  0.00     0.210 HD
ENDBRANCH  14  15
BRANCH  14  17
HETATM   17  C   UNL     1     -42.914 -53.860  12.748  1.00  0.00     0.201 C 
BRANCH  17  18
HETATM   18  O   UNL     1     -44.251 -54.246  12.443  1.00  0.00    -0.384 OA
BRANCH  18  19
HETATM   19  C   UNL     1     -44.997 -54.658  13.590  1.00  0.00     0.209 C 
BRANCH  19  20
HETATM   20  C   UNL     1     -45.691 -53.473  14.195  1.00  0.00     0.004 A 
HETATM   21  C   UNL     1     -46.135 -52.395  13.415  1.00  0.00     0.012 A 
HETATM   22  C   UNL     1     -46.801 -51.321  14.008  1.00  0.00     0.001 A 
HETATM   23  C   UNL     1     -47.047 -51.321  15.381  1.00  0.00     0.003 A 
HETATM   24  C   UNL     1     -46.642 -52.405  16.158  1.00  0.00     0.043 A 
HETATM   25  C   UNL     1     -45.978 -53.470  15.561  1.00  0.00     0.124 A 
HETATM   26  F   UNL     1     -45.616 -54.515  16.320  1.00  0.00    -0.205 F 
ENDBRANCH  19  20
ENDBRANCH  18  19
ENDBRANCH  17  18
ENDBRANCH  14  17
ENDBRANCH  13  14
ENDBRANCH   5  13
TORSDOF 7
ENDMDL
MODEL 7
REMARK VINA RESULT:      -5.4      2.143      3.807
REMARK  7 active torsions:
REMARK  status: ('A' for Active; 'I' for Inactive)
REMARK    1  A    between atoms: N_5  and  C_6 
REMARK    2  A    between atoms: C_6  and  C_7 
REMARK    3  A    between atoms: C_7  and  O_8 
REMARK    4  A    between atoms: C_7  and  C_9 
REMARK    5  A    between atoms: C_9  and  O_10 
REMARK    6  A    between atoms: O_10  and  C_11 
REMARK    7  A    between atoms: C_11  and  C_12 
ROOT
HETATM    1  C   UNL     1     -45.960 -52.726  12.176  1.00  0.00     0.070 C 
HETATM    2  C   UNL     1     -44.593 -53.066  12.732  1.00  0.00     0.029 A 
HETATM    3  N   UNL     1     -43.605 -52.363  12.284  1.00  0.00    -0.300 N 
ATOM      4  HN  UNL     1     -43.753 -51.656  11.564  1.00  0.00     0.187 HD
HETATM    5  N   UNL     1     -42.354 -52.586  12.795  1.00  0.00    -0.254 N 
HETATM    6  C   UNL     1     -42.066 -53.592  13.714  1.00  0.00     0.283 A 
HETATM    7  O   UNL     1     -40.932 -53.833  14.121  1.00  0.00    -0.265 OA
HETATM    8  C   UNL     1     -43.226 -54.384  14.200  1.00  0.00     0.121 A 
HETATM    9  C   UNL     1     -42.958 -55.398  15.160  1.00  0.00     0.105 C 
HETATM   10  N   UNL     1     -42.809 -56.244  15.942  1.00  0.00    -0.191 NA
HETATM   11  C   UNL     1     -44.471 -54.150  13.742  1.00  0.00    -0.012 A 
HETATM   12  C   UNL     1     -45.713 -54.886  14.149  1.00  0.00     0.052 C 
ENDROOT
BRANCH   5  13
HETATM   13  C   UNL     1     -41.256 -51.786  12.240  1.00  0.00     0.186 C 
BRANCH  13  14
HETATM   14  C   UNL     1     -41.409 -50.266  12.443  1.00  0.00     0.162 C 
BRANCH  14  15
HETATM   15  O   UNL     1     -42.361 -49.706  11.531  1.00  0.00    -0.392 OA
HETATM   16  H   UNL     1     -43.094 -49.390  12.102  1.00  0.00     0.210 HD
ENDBRANCH  14  15
BRANCH  14  17
HETATM   17  C   UNL     1     -41.792 -49.906  13.886  1.00  0.00     0.201 C 
BRANCH  17  18
HETATM   18  O   UNL     1     -43.197 -49.945  14.120  1.00  0.00    -0.384 OA
BRANCH  18  19
HETATM   19  C   UNL     1     -43.551 -49.699  15.482  1.00  0.00     0.209 C 
BRANCH  19  20
HETATM   20  C   UNL     1     -44.471 -50.780  15.971  1.00  0.00     0.004 A 
HETATM   21  C   UNL     1     -45.812 -50.852  15.564  1.00  0.00     0.012 A 
HETATM   22  C   UNL     1     -46.633 -51.885  16.017  1.00  0.00     0.001 A 
HETATM   23  C   UNL     1     -46.119 -52.867  16.865  1.00  0.00     0.003 A 
HETATM   24  C   UNL     1     -44.779 -52.825  17.244  1.00  0.00     0.043 A 
HETATM   25  C   UNL     1     -43.968 -51.791  16.790  1.00  0.00     0.124 A 
HETATM   26  F   UNL     1     -42.675 -51.778  17.146  1.00  0.00    -0.205 F 
ENDBRANCH  19  20
ENDBRANCH  18  19
ENDBRANCH  17  18
ENDBRANCH  14  17
ENDBRANCH  13  14
ENDBRANCH   5  13
TORSDOF 7
ENDMDL
MODEL 8
REMARK VINA RESULT:      -5.3      1.931      4.416
REMARK  7 active torsions:
REMARK  status: ('A' for Active; 'I' for Inactive)
REMARK    1  A    between atoms: N_5  and  C_6 
REMARK    2  A    between atoms: C_6  and  C_7 
REMARK    3  A    between atoms: C_7  and  O_8 
REMARK    4  A    between atoms: C_7  and  C_9 
REMARK    5  A    between atoms: C_9  and  O_10 
REMARK    6  A    between atoms: O_10  and  C_11 
REMARK    7  A    between atoms: C_11  and  C_12 
ROOT
HETATM    1  C   UNL     1     -42.980 -48.815  15.586  1.00  0.00     0.070 C 
HETATM    2  C   UNL     1     -42.275 -48.995  14.258  1.00  0.00     0.029 A 
HETATM    3  N   UNL     1     -41.622 -50.100  14.106  1.00  0.00    -0.300 N 
ATOM      4  HN  UNL     1     -41.561 -50.778  14.866  1.00  0.00     0.187 HD
HETATM    5  N   UNL     1     -41.013 -50.344  12.903  1.00  0.00    -0.254 N 
HETATM    6  C   UNL     1     -40.982 -49.427  11.857  1.00  0.00     0.283 A 
HETATM    7  O   UNL     1     -40.378 -49.621  10.804  1.00  0.00    -0.265 OA
HETATM    8  C   UNL     1     -41.736 -48.164  12.072  1.00  0.00     0.121 A 
HETATM    9  C   UNL     1     -41.740 -47.225  11.004  1.00  0.00     0.105 C 
HETATM   10  N   UNL     1     -41.782 -46.414  10.174  1.00  0.00    -0.191 NA
HETATM   11  C   UNL     1     -42.378 -47.925  13.231  1.00  0.00    -0.012 A 
HETATM   12  C   UNL     1     -43.162 -46.690  13.567  1.00  0.00     0.052 C 
ENDROOT
BRANCH   5  13
HETATM   13  C   UNL     1     -40.261 -51.598  12.781  1.00  0.00     0.186 C 
BRANCH  13  14
HETATM   14  C   UNL     1     -41.122 -52.827  12.429  1.00  0.00     0.162 C 
BRANCH  14  15
HETATM   15  O   UNL     1     -40.576 -53.555  11.324  1.00  0.00    -0.392 OA
HETATM   16  H   UNL     1     -40.160 -52.869  10.758  1.00  0.00     0.210 HD
ENDBRANCH  14  15
BRANCH  14  17
HETATM   17  C   UNL     1     -41.316 -53.765  13.630  1.00  0.00     0.201 C 
BRANCH  17  18
HETATM   18  O   UNL     1     -42.077 -53.179  14.683  1.00  0.00    -0.384 OA
BRANCH  18  19
HETATM   19  C   UNL     1     -43.307 -53.860  14.939  1.00  0.00     0.209 C 
BRANCH  19  20
HETATM   20  C   UNL     1     -44.455 -53.051  14.409  1.00  0.00     0.004 A 
HETATM   21  C   UNL     1     -45.045 -52.022  15.159  1.00  0.00     0.012 A 
HETATM   22  C   UNL     1     -46.094 -51.272  14.625  1.00  0.00     0.001 A 
HETATM   23  C   UNL     1     -46.552 -51.529  13.332  1.00  0.00     0.003 A 
HETATM   24  C   UNL     1     -45.947 -52.525  12.567  1.00  0.00     0.043 A 
HETATM   25  C   UNL     1     -44.903 -53.268  13.106  1.00  0.00     0.124 A 
HETATM   26  F   UNL     1     -44.318 -54.206  12.348  1.00  0.00    -0.205 F 
ENDBRANCH  19  20
ENDBRANCH  18  19
ENDBRANCH  17  18
ENDBRANCH  14  17
ENDBRANCH  13  14
ENDBRANCH   5  13
TORSDOF 7
ENDMDL
MODEL 9
REMARK VINA RESULT:      -5.3      2.502      4.516
REMARK  7 active torsions:
REMARK  status: ('A' for Active; 'I' for Inactive)
REMARK    1  A    between atoms: N_5  and  C_6 
REMARK    2  A    between atoms: C_6  and  C_7 
REMARK    3  A    between atoms: C_7  and  O_8 
REMARK    4  A    between atoms: C_7  and  C_9 
REMARK    5  A    between atoms: C_9  and  O_10 
REMARK    6  A    between atoms: O_10  and  C_11 
REMARK    7  A    between atoms: C_11  and  C_12 
ROOT
HETATM    1  C   UNL     1     -44.010 -54.635  14.895  1.00  0.00     0.070 C 
HETATM    2  C   UNL     1     -42.515 -54.432  15.012  1.00  0.00     0.029 A 
HETATM    3  N   UNL     1     -42.038 -53.371  14.447  1.00  0.00    -0.300 N 
ATOM      4  HN  UNL     1     -42.646 -52.744  13.920  1.00  0.00     0.187 HD
HETATM    5  N   UNL     1     -40.700 -53.105  14.571  1.00  0.00    -0.254 N 
HETATM    6  C   UNL     1     -39.800 -53.960  15.200  1.00  0.00     0.283 A 
HETATM    7  O   UNL     1     -38.590 -53.752  15.252  1.00  0.00    -0.265 OA
HETATM    8  C   UNL     1     -40.384 -55.174  15.830  1.00  0.00     0.121 A 
HETATM    9  C   UNL     1     -39.485 -56.047  16.503  1.00  0.00     0.105 C 
HETATM   10  N   UNL     1     -38.807 -56.803  17.065  1.00  0.00    -0.191 NA
HETATM   11  C   UNL     1     -41.704 -55.430  15.757  1.00  0.00    -0.012 A 
HETATM   12  C   UNL     1     -42.404 -56.620  16.343  1.00  0.00     0.052 C 
ENDROOT
BRANCH   5  13
HETATM   13  C   UNL     1     -40.195 -51.905  13.893  1.00  0.00     0.186 C 
BRANCH  13  14
HETATM   14  C   UNL     1     -40.407 -51.897  12.367  1.00  0.00     0.162 C 
BRANCH  14  15
HETATM   15  O   UNL     1     -40.550 -53.224  11.848  1.00  0.00    -0.392 OA
HETATM   16  H   UNL     1     -40.003 -53.782  12.444  1.00  0.00     0.210 HD
ENDBRANCH  14  15
BRANCH  14  17
HETATM   17  C   UNL     1     -41.612 -51.039  11.950  1.00  0.00     0.201 C 
BRANCH  17  18
HETATM   18  O   UNL     1     -42.822 -51.420  12.598  1.00  0.00    -0.384 OA
BRANCH  18  19
HETATM   19  C   UNL     1     -43.575 -50.309  13.088  1.00  0.00     0.209 C 
BRANCH  19  20
HETATM   20  C   UNL     1     -44.586 -50.783  14.090  1.00  0.00     0.004 A 
HETATM   21  C   UNL     1     -44.336 -50.748  15.470  1.00  0.00     0.012 A 
HETATM   22  C   UNL     1     -45.309 -51.173  16.376  1.00  0.00     0.001 A 
HETATM   23  C   UNL     1     -46.548 -51.619  15.915  1.00  0.00     0.003 A 
HETATM   24  C   UNL     1     -46.819 -51.622  14.547  1.00  0.00     0.043 A 
HETATM   25  C   UNL     1     -45.844 -51.199  13.652  1.00  0.00     0.124 A 
HETATM   26  F   UNL     1     -46.130 -51.187  12.342  1.00  0.00    -0.205 F 
ENDBRANCH  19  20
ENDBRANCH  18  19
ENDBRANCH  17  18
ENDBRANCH  14  17
ENDBRANCH  13  14
ENDBRANCH   5  13
TORSDOF 7
ENDMDL
