MODEL 1
REMARK VINA RESULT:      -6.8      0.000      0.000
REMARK  7 active torsions:
REMARK  status: ('A' for Active; 'I' for Inactive)
REMARK    1  A    between atoms: N_2  and  C_3 
REMARK    2  A    between atoms: N_2  and  C_19 
REMARK    3  A    between atoms: C_3  and  C_4 
REMARK    4  A    between atoms: C_4  and  O_5 
REMARK    5  A    between atoms: C_4  and  C_6 
REMARK    6  A    between atoms: C_6  and  N_7 
REMARK    7  A    between atoms: C_19  and  C_20 
ROOT
HETATM    1  C   UNL     1     -41.898 -51.529  12.050  1.00  0.00     0.164 C 
ENDROOT
BRANCH   1   2
HETATM    2  C   UNL     1     -41.032 -50.290  12.394  1.00  0.00     0.305 C 
BRANCH   2   3
HETATM    3  N   UNL     1     -41.651 -48.971  12.130  1.00  0.00     0.091 N 
HETATM    4  C   UNL     1     -42.981 -48.933  12.756  1.00  0.00     0.310 C 
BRANCH   3   5
HETATM    5  C   UNL     1     -41.722 -48.685  10.684  1.00  0.00     0.315 C 
BRANCH   5   6
HETATM    6  C   UNL     1     -42.119 -47.271  10.426  1.00  0.00     0.025 A 
HETATM    7  C   UNL     1     -43.384 -46.760  10.021  1.00  0.00     0.039 A 
HETATM    8  C   UNL     1     -44.638 -47.493   9.730  1.00  0.00     0.071 C 
HETATM    9  N   UNL     1     -43.355 -45.426   9.895  1.00  0.00    -0.265 N 
HETATM   10  O   UNL     1     -42.072 -45.043  10.224  1.00  0.00    -0.242 OA
ATOM     11  HN  UNL     1     -44.125 -44.819   9.614  1.00  0.00     0.194 HD
HETATM   12  C   UNL     1     -41.339 -46.139  10.546  1.00  0.00     0.082 A 
HETATM   13  C   UNL     1     -39.935 -45.896  10.924  1.00  0.00     0.079 C 
ENDBRANCH   5   6
ENDBRANCH   3   5
ENDBRANCH   2   3
ENDBRANCH   1   2
BRANCH   1  14
HETATM   14  O   UNL     1     -41.210 -52.389  11.136  1.00  0.00    -0.392 OA
HETATM   15  H   UNL     1     -41.343 -53.312  11.413  1.00  0.00     0.210 HD
ENDBRANCH   1  14
BRANCH   1  16
HETATM   16  C   UNL     1     -42.235 -52.301  13.333  1.00  0.00     0.163 C 
BRANCH  16  17
HETATM   17  N   UNL     1     -43.656 -52.573  13.453  1.00  0.00    -0.339 N 
HETATM   18  C   UNL     1     -44.376 -53.362  12.604  1.00  0.00     0.184 A 
HETATM   19  N   UNL     1     -45.641 -53.423  12.955  1.00  0.00    -0.350 N 
HETATM   20  C   UNL     1     -45.743 -52.617  14.062  1.00  0.00     0.060 A 
ATOM     21  HN  UNL     1     -46.386 -53.955  12.504  1.00  0.00     0.166 HD
HETATM   22  C   UNL     1     -46.870 -52.290  14.826  1.00  0.00     0.039 A 
HETATM   23  C   UNL     1     -44.508 -52.076  14.406  1.00  0.00     0.062 A 
HETATM   24  C   UNL     1     -46.739 -51.423  15.929  1.00  0.00    -0.054 A 
HETATM   25  C   UNL     1     -47.975 -51.093  16.721  1.00  0.00     0.049 C 
HETATM   26  C   UNL     1     -45.475 -50.890  16.262  1.00  0.00    -0.054 A 
HETATM   27  C   UNL     1     -45.264 -49.948  17.420  1.00  0.00     0.049 C 
HETATM   28  C   UNL     1     -44.337 -51.219  15.497  1.00  0.00     0.039 A 
ENDBRANCH  16  17
ENDBRANCH   1  16
TORSDOF 7
ENDMDL
MODEL 2
REMARK VINA RESULT:      -6.6      2.835      6.242
REMARK  7 active torsions:
REMARK  status: ('A' for Active; 'I' for Inactive)
REMARK    1  A    between atoms: N_2  and  C_3 
REMARK    2  A    between atoms: N_2  and  C_19 
REMARK    3  A    between atoms: C_3  and  C_4 
REMARK    4  A    between atoms: C_4  and  O_5 
REMARK    5  A    between atoms: C_4  and  C_6 
REMARK    6  A    between atoms: C_6  and  N_7 
REMARK    7  A    between atoms: C_19  and  C_20 
ROOT
HETATM    1  C   UNL     1     -40.621 -50.415  11.899  1.00  0.00     0.164 C 
ENDROOT
BRANCH   1   2
HETATM    2  C   UNL     1     -41.064 -51.900  11.952  1.00  0.00     0.305 C 
BRANCH   2   3
HETATM    3  N   UNL     1     -40.857 -52.593  13.244  1.00  0.00     0.091 N 
HETATM    4  C   UNL     1     -39.474 -52.369  13.691  1.00  0.00     0.310 C 
BRANCH   3   5
HETATM    5  C   UNL     1     -41.170 -54.032  13.144  1.00  0.00     0.315 C 
BRANCH   5   6
HETATM    6  C   UNL     1     -42.015 -54.488  14.284  1.00  0.00     0.025 A 
HETATM    7  C   UNL     1     -41.615 -54.855  15.600  1.00  0.00     0.039 A 
HETATM    8  C   UNL     1     -40.255 -54.900  16.184  1.00  0.00     0.071 C 
HETATM    9  N   UNL     1     -42.668 -55.207  16.351  1.00  0.00    -0.265 N 
HETATM   10  O   UNL     1     -43.775 -55.068  15.539  1.00  0.00    -0.242 OA
ATOM     11  HN  UNL     1     -42.654 -55.514  17.323  1.00  0.00     0.194 HD
HETATM   12  C   UNL     1     -43.387 -54.634  14.313  1.00  0.00     0.082 A 
HETATM   13  C   UNL     1     -44.461 -54.435  13.323  1.00  0.00     0.079 C 
ENDBRANCH   5   6
ENDBRANCH   3   5
ENDBRANCH   2   3
ENDBRANCH   1   2
BRANCH   1  14
HETATM   14  O   UNL     1     -40.049 -50.104  10.624  1.00  0.00    -0.392 OA
HETATM   15  H   UNL     1     -39.472 -50.837  10.352  1.00  0.00     0.210 HD
ENDBRANCH   1  14
BRANCH   1  16
HETATM   16  C   UNL     1     -41.827 -49.502  12.161  1.00  0.00     0.163 C 
BRANCH  16  17
HETATM   17  N   UNL     1     -42.412 -49.729  13.469  1.00  0.00    -0.339 N 
HETATM   18  C   UNL     1     -41.800 -49.459  14.658  1.00  0.00     0.184 A 
HETATM   19  N   UNL     1     -42.566 -49.769  15.680  1.00  0.00    -0.350 N 
HETATM   20  C   UNL     1     -43.710 -50.286  15.123  1.00  0.00     0.060 A 
ATOM     21  HN  UNL     1     -42.357 -49.652  16.671  1.00  0.00     0.166 HD
HETATM   22  C   UNL     1     -44.850 -50.806  15.749  1.00  0.00     0.039 A 
HETATM   23  C   UNL     1     -43.648 -50.263  13.734  1.00  0.00     0.062 A 
HETATM   24  C   UNL     1     -45.915 -51.296  14.967  1.00  0.00    -0.054 A 
HETATM   25  C   UNL     1     -47.119 -51.852  15.678  1.00  0.00     0.049 C 
HETATM   26  C   UNL     1     -45.831 -51.259  13.558  1.00  0.00    -0.054 A 
HETATM   27  C   UNL     1     -46.926 -51.777  12.660  1.00  0.00     0.049 C 
HETATM   28  C   UNL     1     -44.686 -50.734  12.924  1.00  0.00     0.039 A 
ENDBRANCH  16  17
ENDBRANCH   1  16
TORSDOF 7
ENDMDL
MODEL 3
REMARK VINA RESULT:      -6.5      1.774      2.361
REMARK  7 active torsions:
REMARK  status: ('A' for Active; 'I' for Inactive)
REMARK    1  A    between atoms: N_2  and  C_3 
REMARK    2  A    between atoms: N_2  and  C_19 
REMARK    3  A    between atoms: C_3  and  C_4 
REMARK    4  A    between atoms: C_4  and  O_5 
REMARK    5  A    between atoms: C_4  and  C_6 
REMARK    6  A    between atoms: C_6  and  N_7 
REMARK    7  A    between atoms: C_19  and  C_20 
ROOT
HETATM    1  C   UNL     1     -41.287 -50.430  12.125  1.00  0.00     0.164 C 
ENDROOT
BRANCH   1   2
HETATM    2  C   UNL     1     -40.838 -48.948  12.050  1.00  0.00     0.305 C 
BRANCH   2   3
HETATM    3  N   UNL     1     -41.893 -47.966  11.713  1.00  0.00     0.091 N 
HETATM    4  C   UNL     1     -43.142 -48.358  12.383  1.00  0.00     0.310 C 
BRANCH   3   5
HETATM    5  C   UNL     1     -42.074 -47.842  10.254  1.00  0.00     0.315 C 
BRANCH   5   6
HETATM    6  C   UNL     1     -42.836 -46.610   9.900  1.00  0.00     0.025 A 
HETATM    7  C   UNL     1     -44.088 -46.497   9.234  1.00  0.00     0.039 A 
HETATM    8  C   UNL     1     -44.961 -47.566   8.698  1.00  0.00     0.071 C 
HETATM    9  N   UNL     1     -44.456 -45.215   9.100  1.00  0.00    -0.265 N 
HETATM   10  O   UNL     1     -43.453 -44.470   9.684  1.00  0.00    -0.242 OA
ATOM     11  HN  UNL     1     -45.304 -44.863   8.657  1.00  0.00     0.194 HD
HETATM   12  C   UNL     1     -42.493 -45.299  10.166  1.00  0.00     0.082 A 
HETATM   13  C   UNL     1     -41.344 -44.653  10.825  1.00  0.00     0.079 C 
ENDBRANCH   5   6
ENDBRANCH   3   5
ENDBRANCH   2   3
ENDBRANCH   1   2
BRANCH   1  14
HETATM   14  O   UNL     1     -40.731 -51.183  11.041  1.00  0.00    -0.392 OA
HETATM   15  H   UNL     1     -41.351 -51.160  10.293  1.00  0.00     0.210 HD
ENDBRANCH   1  14
BRANCH   1  16
HETATM   16  C   UNL     1     -40.843 -51.042  13.460  1.00  0.00     0.163 C 
BRANCH  16  17
HETATM   17  N   UNL     1     -41.446 -52.341  13.697  1.00  0.00    -0.339 N 
HETATM   18  C   UNL     1     -40.779 -53.530  13.669  1.00  0.00     0.184 A 
HETATM   19  N   UNL     1     -41.581 -54.542  13.915  1.00  0.00    -0.350 N 
HETATM   20  C   UNL     1     -42.823 -53.979  14.081  1.00  0.00     0.060 A 
ATOM     21  HN  UNL     1     -41.335 -55.530  13.970  1.00  0.00     0.166 HD
HETATM   22  C   UNL     1     -44.055 -54.597  14.331  1.00  0.00     0.039 A 
HETATM   23  C   UNL     1     -42.768 -52.595  13.961  1.00  0.00     0.062 A 
HETATM   24  C   UNL     1     -45.217 -53.811  14.458  1.00  0.00    -0.054 A 
HETATM   25  C   UNL     1     -46.522 -54.513  14.721  1.00  0.00     0.049 C 
HETATM   26  C   UNL     1     -45.137 -52.406  14.337  1.00  0.00    -0.054 A 
HETATM   27  C   UNL     1     -46.341 -51.506  14.449  1.00  0.00     0.049 C 
HETATM   28  C   UNL     1     -43.898 -51.781  14.088  1.00  0.00     0.039 A 
ENDBRANCH  16  17
ENDBRANCH   1  16
TORSDOF 7
ENDMDL
MODEL 4
REMARK VINA RESULT:      -6.4      2.688      3.651
REMARK  7 active torsions:
REMARK  status: ('A' for Active; 'I' for Inactive)
REMARK    1  A    between atoms: N_2  and  C_3 
REMARK    2  A    between atoms: N_2  and  C_19 
REMARK    3  A    between atoms: C_3  and  C_4 
REMARK    4  A    between atoms: C_4  and  O_5 
REMARK    5  A    between atoms: C_4  and  C_6 
REMARK    6  A    between atoms: C_6  and  N_7 
REMARK    7  A    between atoms: C_19  and  C_20 
ROOT
HETATM    1  C   UNL     1     -41.058 -53.400  13.408  1.00  0.00     0.164 C 
ENDROOT
BRANCH   1   2
HETATM    2  C   UNL     1     -40.680 -52.586  14.673  1.00  0.00     0.305 C 
BRANCH   2   3
HETATM    3  N   UNL     1     -39.448 -51.771  14.577  1.00  0.00     0.091 N 
HETATM    4  C   UNL     1     -38.653 -51.961  15.799  1.00  0.00     0.310 C 
BRANCH   3   5
HETATM    5  C   UNL     1     -39.757 -50.347  14.344  1.00  0.00     0.315 C 
BRANCH   5   6
HETATM    6  C   UNL     1     -40.012 -50.073  12.901  1.00  0.00     0.025 A 
HETATM    7  C   UNL     1     -39.081 -50.016  11.826  1.00  0.00     0.039 A 
HETATM    8  C   UNL     1     -37.612 -50.195  11.852  1.00  0.00     0.071 C 
HETATM    9  N   UNL     1     -39.693 -49.747  10.664  1.00  0.00    -0.265 N 
HETATM   10  O   UNL     1     -41.035 -49.632  10.959  1.00  0.00    -0.242 OA
ATOM     11  HN  UNL     1     -39.255 -49.648   9.748  1.00  0.00     0.194 HD
HETATM   12  C   UNL     1     -41.226 -49.832  12.288  1.00  0.00     0.082 A 
HETATM   13  C   UNL     1     -42.617 -49.743  12.767  1.00  0.00     0.079 C 
ENDBRANCH   5   6
ENDBRANCH   3   5
ENDBRANCH   2   3
ENDBRANCH   1   2
BRANCH   1  14
HETATM   14  O   UNL     1     -39.967 -54.232  12.997  1.00  0.00    -0.392 OA
HETATM   15  H   UNL     1     -40.324 -55.043  12.599  1.00  0.00     0.210 HD
ENDBRANCH   1  14
BRANCH   1  16
HETATM   16  C   UNL     1     -42.290 -54.268  13.696  1.00  0.00     0.163 C 
BRANCH  16  17
HETATM   17  N   UNL     1     -43.531 -53.552  13.467  1.00  0.00    -0.339 N 
HETATM   18  C   UNL     1     -44.017 -53.199  12.242  1.00  0.00     0.184 A 
HETATM   19  N   UNL     1     -45.159 -52.554  12.340  1.00  0.00    -0.350 N 
HETATM   20  C   UNL     1     -45.403 -52.466  13.689  1.00  0.00     0.060 A 
ATOM     21  HN  UNL     1     -45.737 -52.197  11.580  1.00  0.00     0.166 HD
HETATM   22  C   UNL     1     -46.464 -51.851  14.364  1.00  0.00     0.039 A 
HETATM   23  C   UNL     1     -44.402 -53.094  14.423  1.00  0.00     0.062 A 
HETATM   24  C   UNL     1     -46.506 -51.878  15.773  1.00  0.00    -0.054 A 
HETATM   25  C   UNL     1     -47.660 -51.200  16.460  1.00  0.00     0.049 C 
HETATM   26  C   UNL     1     -45.481 -52.525  16.497  1.00  0.00    -0.054 A 
HETATM   27  C   UNL     1     -45.455 -52.581  18.004  1.00  0.00     0.049 C 
HETATM   28  C   UNL     1     -44.412 -53.147  15.820  1.00  0.00     0.039 A 
ENDBRANCH  16  17
ENDBRANCH   1  16
TORSDOF 7
ENDMDL
MODEL 5
REMARK VINA RESULT:      -6.4      2.531      3.135
REMARK  7 active torsions:
REMARK  status: ('A' for Active; 'I' for Inactive)
REMARK    1  A    between atoms: N_2  and  C_3 
REMARK    2  A    between atoms: N_2  and  C_19 
REMARK    3  A    between atoms: C_3  and  C_4 
REMARK    4  A    between atoms: C_4  and  O_5 
REMARK    5  A    between atoms: C_4  and  C_6 
REMARK    6  A    between atoms: C_6  and  N_7 
REMARK    7  A    between atoms: C_19  and  C_20 
ROOT
HETATM    1  C   UNL     1     -41.062 -53.344  13.405  1.00  0.00     0.164 C 
ENDROOT
BRANCH   1   2
HETATM    2  C   UNL     1     -40.684 -52.508  14.654  1.00  0.00     0.305 C 
BRANCH   2   3
HETATM    3  N   UNL     1     -39.554 -51.564  14.487  1.00  0.00     0.091 N 
HETATM    4  C   UNL     1     -38.628 -51.722  15.618  1.00  0.00     0.310 C 
BRANCH   3   5
HETATM    5  C   UNL     1     -40.026 -50.171  14.359  1.00  0.00     0.315 C 
BRANCH   5   6
HETATM    6  C   UNL     1     -40.507 -49.882  12.978  1.00  0.00     0.025 A 
HETATM    7  C   UNL     1     -41.840 -49.683  12.522  1.00  0.00     0.039 A 
HETATM    8  C   UNL     1     -43.106 -49.725  13.289  1.00  0.00     0.071 C 
HETATM    9  N   UNL     1     -41.875 -49.439  11.204  1.00  0.00    -0.265 N 
HETATM   10  O   UNL     1     -40.563 -49.468  10.779  1.00  0.00    -0.242 OA
ATOM     11  HN  UNL     1     -42.701 -49.267  10.633  1.00  0.00     0.194 HD
HETATM   12  C   UNL     1     -39.749 -49.725  11.835  1.00  0.00     0.082 A 
HETATM   13  C   UNL     1     -38.306 -49.789  11.544  1.00  0.00     0.079 C 
ENDBRANCH   5   6
ENDBRANCH   3   5
ENDBRANCH   2   3
ENDBRANCH   1   2
BRANCH   1  14
HETATM   14  O   UNL     1     -39.959 -54.154  12.985  1.00  0.00    -0.392 OA
HETATM   15  H   UNL     1     -39.266 -54.117  13.665  1.00  0.00     0.210 HD
ENDBRANCH   1  14
BRANCH   1  16
HETATM   16  C   UNL     1     -42.268 -54.238  13.722  1.00  0.00     0.163 C 
BRANCH  16  17
HETATM   17  N   UNL     1     -43.530 -53.563  13.482  1.00  0.00    -0.339 N 
HETATM   18  C   UNL     1     -44.046 -53.283  12.250  1.00  0.00     0.184 A 
HETATM   19  N   UNL     1     -45.201 -52.662  12.338  1.00  0.00    -0.350 N 
HETATM   20  C   UNL     1     -45.423 -52.512  13.685  1.00  0.00     0.060 A 
ATOM     21  HN  UNL     1     -45.801 -52.356  11.572  1.00  0.00     0.166 HD
HETATM   22  C   UNL     1     -46.487 -51.889  14.349  1.00  0.00     0.039 A 
HETATM   23  C   UNL     1     -44.395 -53.079  14.430  1.00  0.00     0.062 A 
HETATM   24  C   UNL     1     -46.503 -51.846  15.757  1.00  0.00    -0.054 A 
HETATM   25  C   UNL     1     -47.661 -51.162  16.432  1.00  0.00     0.049 C 
HETATM   26  C   UNL     1     -45.451 -52.432  16.493  1.00  0.00    -0.054 A 
HETATM   27  C   UNL     1     -45.397 -52.412  18.000  1.00  0.00     0.049 C 
HETATM   28  C   UNL     1     -44.379 -53.063  15.828  1.00  0.00     0.039 A 
ENDBRANCH  16  17
ENDBRANCH   1  16
TORSDOF 7
ENDMDL
MODEL 6
REMARK VINA RESULT:      -6.4      3.125      6.874
REMARK  7 active torsions:
REMARK  status: ('A' for Active; 'I' for Inactive)
REMARK    1  A    between atoms: N_2  and  C_3 
REMARK    2  A    between atoms: N_2  and  C_19 
REMARK    3  A    between atoms: C_3  and  C_4 
REMARK    4  A    between atoms: C_4  and  O_5 
REMARK    5  A    between atoms: C_4  and  C_6 
REMARK    6  A    between atoms: C_6  and  N_7 
REMARK    7  A    between atoms: C_19  and  C_20 
ROOT
HETATM    1  C   UNL     1     -43.852 -50.962  15.286  1.00  0.00     0.164 C 
ENDROOT
BRANCH   1   2
HETATM    2  C   UNL     1     -43.076 -52.158  15.895  1.00  0.00     0.305 C 
BRANCH   2   3
HETATM    3  N   UNL     1     -43.566 -53.506  15.524  1.00  0.00     0.091 N 
HETATM    4  C   UNL     1     -44.187 -54.129  16.702  1.00  0.00     0.310 C 
BRANCH   3   5
HETATM    5  C   UNL     1     -42.483 -54.343  14.972  1.00  0.00     0.315 C 
BRANCH   5   6
HETATM    6  C   UNL     1     -41.958 -53.784  13.694  1.00  0.00     0.025 A 
HETATM    7  C   UNL     1     -42.681 -53.320  12.560  1.00  0.00     0.039 A 
HETATM    8  C   UNL     1     -44.145 -53.285  12.335  1.00  0.00     0.071 C 
HETATM    9  N   UNL     1     -41.856 -52.881  11.599  1.00  0.00    -0.265 N 
HETATM   10  O   UNL     1     -40.579 -53.044  12.094  1.00  0.00    -0.242 OA
ATOM     11  HN  UNL     1     -42.118 -52.505  10.689  1.00  0.00     0.194 HD
HETATM   12  C   UNL     1     -40.640 -53.574  13.342  1.00  0.00     0.082 A 
HETATM   13  C   UNL     1     -39.349 -53.810  14.013  1.00  0.00     0.079 C 
ENDBRANCH   5   6
ENDBRANCH   3   5
ENDBRANCH   2   3
ENDBRANCH   1   2
BRANCH   1  14
HETATM   14  O   UNL     1     -44.964 -50.605  16.115  1.00  0.00    -0.392 OA
HETATM   15  H   UNL     1     -44.775 -49.754  16.544  1.00  0.00     0.210 HD
ENDBRANCH   1  14
BRANCH   1  16
HETATM   16  C   UNL     1     -42.914 -49.757  15.133  1.00  0.00     0.163 C 
BRANCH  16  17
HETATM   17  N   UNL     1     -42.374 -49.649  13.791  1.00  0.00    -0.339 N 
HETATM   18  C   UNL     1     -43.114 -49.436  12.664  1.00  0.00     0.184 A 
HETATM   19  N   UNL     1     -42.358 -49.387  11.590  1.00  0.00    -0.350 N 
HETATM   20  C   UNL     1     -41.080 -49.605  12.043  1.00  0.00     0.060 A 
ATOM     21  HN  UNL     1     -42.656 -49.223  10.628  1.00  0.00     0.166 HD
HETATM   22  C   UNL     1     -39.882 -49.691  11.323  1.00  0.00     0.039 A 
HETATM   23  C   UNL     1     -41.057 -49.762  13.425  1.00  0.00     0.062 A 
HETATM   24  C   UNL     1     -38.673 -49.933  12.006  1.00  0.00    -0.054 A 
HETATM   25  C   UNL     1     -37.408 -50.025  11.196  1.00  0.00     0.049 C 
HETATM   26  C   UNL     1     -38.673 -50.085  13.410  1.00  0.00    -0.054 A 
HETATM   27  C   UNL     1     -37.419 -50.358  14.202  1.00  0.00     0.049 C 
HETATM   28  C   UNL     1     -39.877 -49.996  14.137  1.00  0.00     0.039 A 
ENDBRANCH  16  17
ENDBRANCH   1  16
TORSDOF 7
ENDMDL
MODEL 7
REMARK VINA RESULT:      -6.4      3.390      4.960
REMARK  7 active torsions:
REMARK  status: ('A' for Active; 'I' for Inactive)
REMARK    1  A    between atoms: N_2  and  C_3 
REMARK    2  A    between atoms: N_2  and  C_19 
REMARK    3  A    between atoms: C_3  and  C_4 
REMARK    4  A    between atoms: C_4  and  O_5 
REMARK    5  A    between atoms: C_4  and  C_6 
REMARK    6  A    between atoms: C_6  and  N_7 
REMARK    7  A    between atoms: C_19  and  C_20 
ROOT
HETATM    1  C   UNL     1     -39.511 -53.744  13.626  1.00  0.00     0.164 C 
ENDROOT
BRANCH   1   2
HETATM    2  C   UNL     1     -39.571 -53.215  15.082  1.00  0.00     0.305 C 
BRANCH   2   3
HETATM    3  N   UNL     1     -39.150 -51.810  15.281  1.00  0.00     0.091 N 
HETATM    4  C   UNL     1     -40.340 -50.985  15.538  1.00  0.00     0.310 C 
BRANCH   3   5
HETATM    5  C   UNL     1     -38.378 -51.307  14.127  1.00  0.00     0.315 C 
BRANCH   5   6
HETATM    6  C   UNL     1     -37.908 -49.909  14.352  1.00  0.00     0.025 A 
HETATM    7  C   UNL     1     -36.984 -49.425  15.320  1.00  0.00     0.039 A 
HETATM    8  C   UNL     1     -36.255 -50.171  16.371  1.00  0.00     0.071 C 
HETATM    9  N   UNL     1     -36.809 -48.101  15.209  1.00  0.00    -0.265 N 
HETATM   10  O   UNL     1     -37.611 -47.700  14.161  1.00  0.00    -0.242 OA
ATOM     11  HN  UNL     1     -36.206 -47.511  15.782  1.00  0.00     0.194 HD
HETATM   12  C   UNL     1     -38.259 -48.776  13.647  1.00  0.00     0.082 A 
HETATM   13  C   UNL     1     -39.162 -48.513  12.513  1.00  0.00     0.079 C 
ENDBRANCH   5   6
ENDBRANCH   3   5
ENDBRANCH   2   3
ENDBRANCH   1   2
BRANCH   1  14
HETATM   14  O   UNL     1     -38.586 -54.832  13.521  1.00  0.00    -0.392 OA
HETATM   15  H   UNL     1     -38.437 -55.204  14.406  1.00  0.00     0.210 HD
ENDBRANCH   1  14
BRANCH   1  16
HETATM   16  C   UNL     1     -40.905 -54.207  13.182  1.00  0.00     0.163 C 
BRANCH  16  17
HETATM   17  N   UNL     1     -41.807 -53.092  12.956  1.00  0.00    -0.339 N 
HETATM   18  C   UNL     1     -41.539 -52.017  12.160  1.00  0.00     0.184 A 
HETATM   19  N   UNL     1     -42.537 -51.162  12.148  1.00  0.00    -0.350 N 
HETATM   20  C   UNL     1     -43.476 -51.699  12.995  1.00  0.00     0.060 A 
ATOM     21  HN  UNL     1     -42.600 -50.289  11.624  1.00  0.00     0.166 HD
HETATM   22  C   UNL     1     -44.723 -51.190  13.380  1.00  0.00     0.039 A 
HETATM   23  C   UNL     1     -43.050 -52.918  13.509  1.00  0.00     0.062 A 
HETATM   24  C   UNL     1     -45.527 -51.919  14.279  1.00  0.00    -0.054 A 
HETATM   25  C   UNL     1     -46.857 -51.336  14.672  1.00  0.00     0.049 C 
HETATM   26  C   UNL     1     -45.076 -53.157  14.785  1.00  0.00    -0.054 A 
HETATM   27  C   UNL     1     -45.877 -53.983  15.760  1.00  0.00     0.049 C 
HETATM   28  C   UNL     1     -43.822 -53.673  14.397  1.00  0.00     0.039 A 
ENDBRANCH  16  17
ENDBRANCH   1  16
TORSDOF 7
ENDMDL
MODEL 8
REMARK VINA RESULT:      -6.4      2.946      3.629
REMARK  7 active torsions:
REMARK  status: ('A' for Active; 'I' for Inactive)
REMARK    1  A    between atoms: N_2  and  C_3 
REMARK    2  A    between atoms: N_2  and  C_19 
REMARK    3  A    between atoms: C_3  and  C_4 
REMARK    4  A    between atoms: C_4  and  O_5 
REMARK    5  A    between atoms: C_4  and  C_6 
REMARK    6  A    between atoms: C_6  and  N_7 
REMARK    7  A    between atoms: C_19  and  C_20 
ROOT
HETATM    1  C   UNL     1     -38.919 -50.824  13.165  1.00  0.00     0.164 C 
ENDROOT
BRANCH   1   2
HETATM    2  C   UNL     1     -38.588 -49.729  14.212  1.00  0.00     0.305 C 
BRANCH   2   3
HETATM    3  N   UNL     1     -38.456 -48.350  13.689  1.00  0.00     0.091 N 
HETATM    4  C   UNL     1     -37.433 -47.638  14.471  1.00  0.00     0.310 C 
BRANCH   3   5
HETATM    5  C   UNL     1     -39.748 -47.637  13.707  1.00  0.00     0.315 C 
BRANCH   5   6
HETATM    6  C   UNL     1     -39.973 -46.883  12.440  1.00  0.00     0.025 A 
HETATM    7  C   UNL     1     -40.580 -47.330  11.233  1.00  0.00     0.039 A 
HETATM    8  C   UNL     1     -41.133 -48.664  10.903  1.00  0.00     0.071 C 
HETATM    9  N   UNL     1     -40.607 -46.358  10.311  1.00  0.00    -0.265 N 
HETATM   10  O   UNL     1     -40.026 -45.257  10.904  1.00  0.00    -0.242 OA
ATOM     11  HN  UNL     1     -40.981 -46.420   9.364  1.00  0.00     0.194 HD
HETATM   12  C   UNL     1     -39.655 -45.567  12.172  1.00  0.00     0.082 A 
HETATM   13  C   UNL     1     -39.015 -44.489  12.946  1.00  0.00     0.079 C 
ENDBRANCH   5   6
ENDBRANCH   3   5
ENDBRANCH   2   3
ENDBRANCH   1   2
BRANCH   1  14
HETATM   14  O   UNL     1     -37.727 -51.290  12.525  1.00  0.00    -0.392 OA
HETATM   15  H   UNL     1     -37.767 -52.258  12.453  1.00  0.00     0.210 HD
ENDBRANCH   1  14
BRANCH   1  16
HETATM   16  C   UNL     1     -39.632 -51.999  13.849  1.00  0.00     0.163 C 
BRANCH  16  17
HETATM   17  N   UNL     1     -40.825 -52.409  13.132  1.00  0.00    -0.339 N 
HETATM   18  C   UNL     1     -41.061 -52.179  11.808  1.00  0.00     0.184 A 
HETATM   19  N   UNL     1     -42.226 -52.659  11.433  1.00  0.00    -0.350 N 
HETATM   20  C   UNL     1     -42.773 -53.197  12.572  1.00  0.00     0.060 A 
ATOM     21  HN  UNL     1     -42.634 -52.637  10.499  1.00  0.00     0.166 HD
HETATM   22  C   UNL     1     -44.017 -53.812  12.758  1.00  0.00     0.039 A 
HETATM   23  C   UNL     1     -41.911 -53.064  13.655  1.00  0.00     0.062 A 
HETATM   24  C   UNL     1     -44.378 -54.288  14.034  1.00  0.00    -0.054 A 
HETATM   25  C   UNL     1     -45.726 -54.937  14.194  1.00  0.00     0.049 C 
HETATM   26  C   UNL     1     -43.484 -54.146  15.119  1.00  0.00    -0.054 A 
HETATM   27  C   UNL     1     -43.809 -54.621  16.513  1.00  0.00     0.049 C 
HETATM   28  C   UNL     1     -42.230 -53.530  14.934  1.00  0.00     0.039 A 
ENDBRANCH  16  17
ENDBRANCH   1  16
TORSDOF 7
ENDMDL
MODEL 9
REMARK VINA RESULT:      -6.3      2.460      7.386
REMARK  7 active torsions:
REMARK  status: ('A' for Active; 'I' for Inactive)
REMARK    1  A    between atoms: N_2  and  C_3 
REMARK    2  A    between atoms: N_2  and  C_19 
REMARK    3  A    between atoms: C_3  and  C_4 
REMARK    4  A    between atoms: C_4  and  O_5 
REMARK    5  A    between atoms: C_4  and  C_6 
REMARK    6  A    between atoms: C_6  and  N_7 
REMARK    7  A    between atoms: C_19  and  C_20 
ROOT
HETATM    1  C   UNL     1     -42.003 -52.497  12.456  1.00  0.00     0.164 C 
ENDROOT
BRANCH   1   2
HETATM    2  C   UNL     1     -43.180 -53.491  12.627  1.00  0.00     0.305 C 
BRANCH   2   3
HETATM    3  N   UNL     1     -43.619 -53.745  14.018  1.00  0.00     0.091 N 
HETATM    4  C   UNL     1     -42.752 -54.774  14.612  1.00  0.00     0.310 C 
BRANCH   3   5
HETATM    5  C   UNL     1     -45.042 -54.133  14.076  1.00  0.00     0.315 C 
BRANCH   5   6
HETATM    6  C   UNL     1     -45.882 -53.040  14.645  1.00  0.00     0.025 A 
HETATM    7  C   UNL     1     -46.246 -52.810  16.002  1.00  0.00     0.039 A 
HETATM    8  C   UNL     1     -45.906 -53.600  17.207  1.00  0.00     0.071 C 
HETATM    9  N   UNL     1     -47.013 -51.717  16.124  1.00  0.00    -0.265 N 
HETATM   10  O   UNL     1     -47.155 -51.210  14.849  1.00  0.00    -0.242 OA
ATOM     11  HN  UNL     1     -47.409 -51.338  16.983  1.00  0.00     0.194 HD
HETATM   12  C   UNL     1     -46.477 -51.993  13.971  1.00  0.00     0.082 A 
HETATM   13  C   UNL     1     -46.530 -51.582  12.556  1.00  0.00     0.079 C 
ENDBRANCH   5   6
ENDBRANCH   3   5
ENDBRANCH   2   3
ENDBRANCH   1   2
BRANCH   1  14
HETATM   14  O   UNL     1     -41.449 -52.590  11.139  1.00  0.00    -0.392 OA
HETATM   15  H   UNL     1     -40.552 -52.215  11.148  1.00  0.00     0.210 HD
ENDBRANCH   1  14
BRANCH   1  16
HETATM   16  C   UNL     1     -42.489 -51.064  12.712  1.00  0.00     0.163 C 
BRANCH  16  17
HETATM   17  N   UNL     1     -41.400 -50.105  12.703  1.00  0.00    -0.339 N 
HETATM   18  C   UNL     1     -40.258 -50.211  13.441  1.00  0.00     0.184 A 
HETATM   19  N   UNL     1     -39.451 -49.194  13.234  1.00  0.00    -0.350 N 
HETATM   20  C   UNL     1     -40.117 -48.386  12.345  1.00  0.00     0.060 A 
ATOM     21  HN  UNL     1     -38.530 -49.039  13.645  1.00  0.00     0.166 HD
HETATM   22  C   UNL     1     -39.736 -47.152  11.805  1.00  0.00     0.039 A 
HETATM   23  C   UNL     1     -41.341 -48.938  11.984  1.00  0.00     0.062 A 
HETATM   24  C   UNL     1     -40.594 -46.488  10.905  1.00  0.00    -0.054 A 
HETATM   25  C   UNL     1     -40.150 -45.161  10.352  1.00  0.00     0.049 C 
HETATM   26  C   UNL     1     -41.830 -47.070  10.549  1.00  0.00    -0.054 A 
HETATM   27  C   UNL     1     -42.802 -46.410   9.603  1.00  0.00     0.049 C 
HETATM   28  C   UNL     1     -42.215 -48.314  11.089  1.00  0.00     0.039 A 
ENDBRANCH  16  17
ENDBRANCH   1  16
TORSDOF 7
ENDMDL
