MODEL 1
REMARK VINA RESULT:      -5.7      0.000      0.000
REMARK  2 active torsions:
REMARK  status: ('A' for Active; 'I' for Inactive)
REMARK       I    between atoms: N_1  and  C_2 
REMARK    1  A    between atoms: C_2  and  C_4 
REMARK    2  A    between atoms: N_9  and  C_10 
ROOT
HETATM    1  C   UNL     1     -38.550 -49.604  12.122  1.00  0.00     0.217 C 
HETATM    2  C   UNL     1     -38.627 -49.730  13.653  1.00  0.00     0.203 C 
HETATM    3  O   UNL     1     -39.226 -50.969  14.079  1.00  0.00    -0.387 OA
HETATM    4  C   UNL     1     -40.547 -51.119  13.544  1.00  0.00     0.188 C 
HETATM    5  C   UNL     1     -40.539 -51.100  12.008  1.00  0.00     0.168 C 
HETATM    6  N   UNL     1     -39.874 -49.889  11.498  1.00  0.00    -0.200 N 
ENDROOT
BRANCH   6   7
HETATM    7  C   UNL     1     -40.680 -48.802  11.213  1.00  0.00     0.680 A 
HETATM    8  N   UNL     1     -40.131 -47.579  11.128  1.00  0.00    -0.200 N 
HETATM    9  C   UNL     1     -40.919 -46.552  10.726  1.00  0.00     0.131 A 
ATOM     10  HN  UNL     1     -39.149 -47.428  11.360  1.00  0.00     0.183 HD
HETATM   11  C   UNL     1     -42.237 -46.696  10.391  1.00  0.00     0.065 A 
HETATM   12 CL   UNL     1     -43.196 -45.393   9.843  1.00  0.00    -0.081 Cl
HETATM   13  C   UNL     1     -42.723 -47.972  10.517  1.00  0.00     0.131 A 
HETATM   14  N   UNL     1     -41.976 -49.021  10.930  1.00  0.00    -0.200 N 
ATOM     15  HN  UNL     1     -42.384 -49.952  11.024  1.00  0.00     0.183 HD
ENDBRANCH   6   7
BRANCH   1  16
HETATM   16  C   UNL     1     -37.476 -50.547  11.540  1.00  0.00     0.241 C 
HETATM   17  N   UNL     1     -37.126 -50.281  10.242  1.00  0.00    -0.368 N 
HETATM   18  H   UNL     1     -36.498 -50.921   9.777  1.00  0.00     0.159 HD
HETATM   19  H   UNL     1     -37.745 -49.692   9.693  1.00  0.00     0.159 HD
HETATM   20  O   UNL     1     -36.889 -51.417  12.175  1.00  0.00    -0.271 OA
ENDBRANCH   1  16
TORSDOF 2
ENDMDL
MODEL 2
REMARK VINA RESULT:      -5.4      1.711      2.009
REMARK  2 active torsions:
REMARK  status: ('A' for Active; 'I' for Inactive)
REMARK       I    between atoms: N_1  and  C_2 
REMARK    1  A    between atoms: C_2  and  C_4 
REMARK    2  A    between atoms: N_9  and  C_10 
ROOT
HETATM    1  C   UNL     1     -38.265 -49.477  12.476  1.00  0.00     0.217 C 
HETATM    2  C   UNL     1     -38.783 -50.059  13.802  1.00  0.00     0.203 C 
HETATM    3  O   UNL     1     -39.844 -51.015  13.612  1.00  0.00    -0.387 OA
HETATM    4  C   UNL     1     -40.948 -50.434  12.908  1.00  0.00     0.188 C 
HETATM    5  C   UNL     1     -40.527 -49.914  11.527  1.00  0.00     0.168 C 
HETATM    6  N   UNL     1     -39.393 -48.980  11.637  1.00  0.00    -0.200 N 
ENDROOT
BRANCH   6   7
HETATM    7  C   UNL     1     -39.695 -47.633  11.725  1.00  0.00     0.680 A 
HETATM    8  N   UNL     1     -39.435 -46.973  12.865  1.00  0.00    -0.200 N 
HETATM    9  C   UNL     1     -39.623 -45.631  12.884  1.00  0.00     0.131 A 
ATOM     10  HN  UNL     1     -39.105 -47.468  13.694  1.00  0.00     0.183 HD
HETATM   11  C   UNL     1     -40.052 -44.912  11.802  1.00  0.00     0.065 A 
HETATM   12 CL   UNL     1     -40.238 -43.215  11.838  1.00  0.00    -0.081 Cl
HETATM   13  C   UNL     1     -40.307 -45.662  10.683  1.00  0.00     0.131 A 
HETATM   14  N   UNL     1     -40.148 -47.004  10.626  1.00  0.00    -0.200 N 
ATOM     15  HN  UNL     1     -40.365 -47.523   9.775  1.00  0.00     0.183 HD
ENDBRANCH   6   7
BRANCH   1  16
HETATM   16  C   UNL     1     -37.443 -50.522  11.694  1.00  0.00     0.241 C 
HETATM   17  N   UNL     1     -37.219 -50.205  10.380  1.00  0.00    -0.368 N 
HETATM   18  H   UNL     1     -36.769 -50.893   9.793  1.00  0.00     0.159 HD
HETATM   19  H   UNL     1     -37.795 -49.482   9.959  1.00  0.00     0.159 HD
HETATM   20  O   UNL     1     -36.934 -51.524  12.185  1.00  0.00    -0.271 OA
ENDBRANCH   1  16
TORSDOF 2
ENDMDL
MODEL 3
REMARK VINA RESULT:      -5.4      3.503      4.306
REMARK  2 active torsions:
REMARK  status: ('A' for Active; 'I' for Inactive)
REMARK       I    between atoms: N_1  and  C_2 
REMARK    1  A    between atoms: C_2  and  C_4 
REMARK    2  A    between atoms: N_9  and  C_10 
ROOT
HETATM    1  C   UNL     1     -40.559 -50.702  12.791  1.00  0.00     0.217 C 
HETATM    2  C   UNL     1     -39.654 -51.238  13.912  1.00  0.00     0.203 C 
HETATM    3  O   UNL     1     -39.061 -52.510  13.587  1.00  0.00    -0.387 OA
HETATM    4  C   UNL     1     -40.064 -53.494  13.302  1.00  0.00     0.188 C 
HETATM    5  C   UNL     1     -40.951 -53.069  12.122  1.00  0.00     0.168 C 
HETATM    6  N   UNL     1     -41.538 -51.738  12.354  1.00  0.00    -0.200 N 
ENDROOT
BRANCH   6   7
HETATM    7  C   UNL     1     -42.795 -51.698  12.931  1.00  0.00     0.680 A 
HETATM    8  N   UNL     1     -43.071 -50.750  13.841  1.00  0.00    -0.200 N 
HETATM    9  C   UNL     1     -44.343 -50.654  14.298  1.00  0.00     0.131 A 
ATOM     10  HN  UNL     1     -42.343 -50.119  14.179  1.00  0.00     0.183 HD
HETATM   11  C   UNL     1     -45.362 -51.463  13.874  1.00  0.00     0.065 A 
HETATM   12 CL   UNL     1     -46.967 -51.292  14.431  1.00  0.00    -0.081 Cl
HETATM   13  C   UNL     1     -44.993 -52.411  12.955  1.00  0.00     0.131 A 
HETATM   14  N   UNL     1     -43.733 -52.551  12.485  1.00  0.00    -0.200 N 
ATOM     15  HN  UNL     1     -43.501 -53.282  11.813  1.00  0.00     0.183 HD
ENDBRANCH   6   7
BRANCH   1  16
HETATM   16  C   UNL     1     -39.724 -50.221  11.586  1.00  0.00     0.241 C 
HETATM   17  N   UNL     1     -40.446 -50.004  10.441  1.00  0.00    -0.368 N 
HETATM   18  H   UNL     1     -39.942 -49.779   9.595  1.00  0.00     0.159 HD
HETATM   19  H   UNL     1     -41.378 -50.402  10.383  1.00  0.00     0.159 HD
HETATM   20  O   UNL     1     -38.528 -49.954  11.624  1.00  0.00    -0.271 OA
ENDBRANCH   1  16
TORSDOF 2
ENDMDL
MODEL 4
REMARK VINA RESULT:      -5.3      3.715      5.559
REMARK  2 active torsions:
REMARK  status: ('A' for Active; 'I' for Inactive)
REMARK       I    between atoms: N_1  and  C_2 
REMARK    1  A    between atoms: C_2  and  C_4 
REMARK    2  A    between atoms: N_9  and  C_10 
ROOT
HETATM    1  C   UNL     1     -42.811 -47.462  10.417  1.00  0.00     0.217 C 
HETATM    2  C   UNL     1     -43.265 -46.595  11.604  1.00  0.00     0.203 C 
HETATM    3  O   UNL     1     -42.428 -45.439  11.800  1.00  0.00    -0.387 OA
HETATM    4  C   UNL     1     -41.061 -45.816  12.008  1.00  0.00     0.188 C 
HETATM    5  C   UNL     1     -40.505 -46.606  10.815  1.00  0.00     0.168 C 
HETATM    6  N   UNL     1     -41.355 -47.770  10.510  1.00  0.00    -0.200 N 
ENDROOT
BRANCH   6   7
HETATM    7  C   UNL     1     -41.004 -48.975  11.093  1.00  0.00     0.680 A 
HETATM    8  N   UNL     1     -39.707 -49.244  11.317  1.00  0.00    -0.200 N 
HETATM    9  C   UNL     1     -39.398 -50.373  12.001  1.00  0.00     0.131 A 
ATOM     10  HN  UNL     1     -38.976 -48.616  10.983  1.00  0.00     0.183 HD
HETATM   11  C   UNL     1     -40.336 -51.245  12.484  1.00  0.00     0.065 A 
HETATM   12 CL   UNL     1     -39.922 -52.637  13.382  1.00  0.00    -0.081 Cl
HETATM   13  C   UNL     1     -41.633 -50.904  12.201  1.00  0.00     0.131 A 
HETATM   14  N   UNL     1     -41.984 -49.796  11.508  1.00  0.00    -0.200 N 
ATOM     15  HN  UNL     1     -42.962 -49.591  11.307  1.00  0.00     0.183 HD
ENDBRANCH   6   7
BRANCH   1  16
HETATM   16  C   UNL     1     -43.122 -46.770   9.074  1.00  0.00     0.241 C 
HETATM   17  N   UNL     1     -43.109 -47.605   7.986  1.00  0.00    -0.368 N 
HETATM   18  H   UNL     1     -43.212 -47.194   7.069  1.00  0.00     0.159 HD
HETATM   19  H   UNL     1     -42.663 -48.511   8.087  1.00  0.00     0.159 HD
HETATM   20  O   UNL     1     -43.449 -45.595   8.950  1.00  0.00    -0.271 OA
ENDBRANCH   1  16
TORSDOF 2
ENDMDL
MODEL 5
REMARK VINA RESULT:      -5.2      3.875      5.194
REMARK  2 active torsions:
REMARK  status: ('A' for Active; 'I' for Inactive)
REMARK       I    between atoms: N_1  and  C_2 
REMARK    1  A    between atoms: C_2  and  C_4 
REMARK    2  A    between atoms: N_9  and  C_10 
ROOT
HETATM    1  C   UNL     1     -40.987 -50.418  12.686  1.00  0.00     0.217 C 
HETATM    2  C   UNL     1     -40.848 -49.749  14.064  1.00  0.00     0.203 C 
HETATM    3  O   UNL     1     -39.597 -50.058  14.707  1.00  0.00    -0.387 OA
HETATM    4  C   UNL     1     -39.431 -51.472  14.869  1.00  0.00     0.188 C 
HETATM    5  C   UNL     1     -39.462 -52.203  13.519  1.00  0.00     0.168 C 
HETATM    6  N   UNL     1     -40.687 -51.876  12.769  1.00  0.00    -0.200 N 
ENDROOT
BRANCH   6   7
HETATM    7  C   UNL     1     -41.763 -52.732  12.922  1.00  0.00     0.680 A 
HETATM    8  N   UNL     1     -41.762 -53.618  13.931  1.00  0.00    -0.200 N 
HETATM    9  C   UNL     1     -42.880 -54.357  14.134  1.00  0.00     0.131 A 
ATOM     10  HN  UNL     1     -40.943 -53.731  14.528  1.00  0.00     0.183 HD
HETATM   11  C   UNL     1     -44.011 -54.240  13.373  1.00  0.00     0.065 A 
HETATM   12 CL   UNL     1     -45.424 -55.151  13.678  1.00  0.00    -0.081 Cl
HETATM   13  C   UNL     1     -43.926 -53.324  12.357  1.00  0.00     0.131 A 
HETATM   14  N   UNL     1     -42.824 -52.578  12.111  1.00  0.00    -0.200 N 
ATOM     15  HN  UNL     1     -42.800 -51.919  11.333  1.00  0.00     0.183 HD
ENDBRANCH   6   7
BRANCH   1  16
HETATM   16  C   UNL     1     -40.066 -49.746  11.647  1.00  0.00     0.241 C 
HETATM   17  N   UNL     1     -40.411 -49.982  10.341  1.00  0.00    -0.368 N 
HETATM   18  H   UNL     1     -39.791 -49.647   9.617  1.00  0.00     0.159 HD
HETATM   19  H   UNL     1     -41.045 -50.751  10.148  1.00  0.00     0.159 HD
HETATM   20  O   UNL     1     -39.146 -48.982  11.917  1.00  0.00    -0.271 OA
ENDBRANCH   1  16
TORSDOF 2
ENDMDL
MODEL 6
REMARK VINA RESULT:      -5.1      5.356      7.428
REMARK  2 active torsions:
REMARK  status: ('A' for Active; 'I' for Inactive)
REMARK       I    between atoms: N_1  and  C_2 
REMARK    1  A    between atoms: C_2  and  C_4 
REMARK    2  A    between atoms: N_9  and  C_10 
ROOT
HETATM    1  C   UNL     1     -43.376 -52.932  13.715  1.00  0.00     0.217 C 
HETATM    2  C   UNL     1     -43.216 -51.449  14.089  1.00  0.00     0.203 C 
HETATM    3  O   UNL     1     -42.813 -50.634  12.971  1.00  0.00    -0.387 OA
HETATM    4  C   UNL     1     -41.579 -51.097  12.408  1.00  0.00     0.188 C 
HETATM    5  C   UNL     1     -41.690 -52.548  11.921  1.00  0.00     0.168 C 
HETATM    6  N   UNL     1     -42.169 -53.433  12.997  1.00  0.00    -0.200 N 
ENDROOT
BRANCH   6   7
HETATM    7  C   UNL     1     -41.207 -54.073  13.758  1.00  0.00     0.680 A 
HETATM    8  N   UNL     1     -39.971 -54.234  13.257  1.00  0.00    -0.200 N 
HETATM    9  C   UNL     1     -39.015 -54.752  14.067  1.00  0.00     0.131 A 
ATOM     10  HN  UNL     1     -39.758 -53.975  12.293  1.00  0.00     0.183 HD
HETATM   11  C   UNL     1     -39.239 -55.107  15.369  1.00  0.00     0.065 A 
HETATM   12 CL   UNL     1     -38.006 -55.713  16.383  1.00  0.00    -0.081 Cl
HETATM   13  C   UNL     1     -40.528 -54.923  15.799  1.00  0.00     0.131 A 
HETATM   14  N   UNL     1     -41.515 -54.425  15.018  1.00  0.00    -0.200 N 
ATOM     15  HN  UNL     1     -42.464 -54.320  15.376  1.00  0.00     0.183 HD
ENDBRANCH   6   7
BRANCH   1  16
HETATM   16  C   UNL     1     -44.635 -53.154  12.852  1.00  0.00     0.241 C 
HETATM   17  N   UNL     1     -45.289 -52.005  12.491  1.00  0.00    -0.368 N 
HETATM   18  H   UNL     1     -46.171 -52.091  12.006  1.00  0.00     0.159 HD
HETATM   19  H   UNL     1     -45.074 -51.154  13.001  1.00  0.00     0.159 HD
HETATM   20  O   UNL     1     -45.008 -54.240  12.423  1.00  0.00    -0.271 OA
ENDBRANCH   1  16
TORSDOF 2
ENDMDL
MODEL 7
REMARK VINA RESULT:      -5.0      3.501      5.014
REMARK  2 active torsions:
REMARK  status: ('A' for Active; 'I' for Inactive)
REMARK       I    between atoms: N_1  and  C_2 
REMARK    1  A    between atoms: C_2  and  C_4 
REMARK    2  A    between atoms: N_9  and  C_10 
ROOT
HETATM    1  C   UNL     1     -41.450 -48.617  11.810  1.00  0.00     0.217 C 
HETATM    2  C   UNL     1     -40.786 -47.947  13.024  1.00  0.00     0.203 C 
HETATM    3  O   UNL     1     -39.359 -47.821  12.878  1.00  0.00    -0.387 OA
HETATM    4  C   UNL     1     -38.742 -49.097  12.669  1.00  0.00     0.188 C 
HETATM    5  C   UNL     1     -39.288 -49.789  11.412  1.00  0.00     0.168 C 
HETATM    6  N   UNL     1     -40.757 -49.890  11.459  1.00  0.00    -0.200 N 
ENDROOT
BRANCH   6   7
HETATM    7  C   UNL     1     -41.290 -51.058  11.974  1.00  0.00     0.680 A 
HETATM    8  N   UNL     1     -40.507 -52.142  12.094  1.00  0.00    -0.200 N 
HETATM    9  C   UNL     1     -41.017 -53.233  12.715  1.00  0.00     0.131 A 
ATOM     10  HN  UNL     1     -39.554 -52.144  11.728  1.00  0.00     0.183 HD
HETATM   11  C   UNL     1     -42.282 -53.285  13.235  1.00  0.00     0.065 A 
HETATM   12 CL   UNL     1     -42.885 -54.657  14.053  1.00  0.00    -0.081 Cl
HETATM   13  C   UNL     1     -43.020 -52.143  13.058  1.00  0.00     0.131 A 
HETATM   14  N   UNL     1     -42.554 -51.039  12.431  1.00  0.00    -0.200 N 
ATOM     15  HN  UNL     1     -43.145 -50.216  12.309  1.00  0.00     0.183 HD
ENDBRANCH   6   7
BRANCH   1  16
HETATM   16  C   UNL     1     -41.465 -47.669  10.593  1.00  0.00     0.241 C 
HETATM   17  N   UNL     1     -41.979 -48.220   9.447  1.00  0.00    -0.368 N 
HETATM   18  H   UNL     1     -41.928 -47.681   8.594  1.00  0.00     0.159 HD
HETATM   19  H   UNL     1     -42.062 -49.231   9.401  1.00  0.00     0.159 HD
HETATM   20  O   UNL     1     -41.142 -46.487  10.621  1.00  0.00    -0.271 OA
ENDBRANCH   1  16
TORSDOF 2
ENDMDL
MODEL 8
REMARK VINA RESULT:      -5.0      5.057      6.632
REMARK  2 active torsions:
REMARK  status: ('A' for Active; 'I' for Inactive)
REMARK       I    between atoms: N_1  and  C_2 
REMARK    1  A    between atoms: C_2  and  C_4 
REMARK    2  A    between atoms: N_9  and  C_10 
ROOT
HETATM    1  C   UNL     1     -44.542 -52.573  14.780  1.00  0.00     0.217 C 
HETATM    2  C   UNL     1     -45.550 -51.448  15.069  1.00  0.00     0.203 C 
HETATM    3  O   UNL     1     -46.767 -51.584  14.310  1.00  0.00    -0.387 OA
HETATM    4  C   UNL     1     -46.501 -51.607  12.901  1.00  0.00     0.188 C 
HETATM    5  C   UNL     1     -45.573 -52.769  12.521  1.00  0.00     0.168 C 
HETATM    6  N   UNL     1     -44.332 -52.735  13.313  1.00  0.00    -0.200 N 
ENDROOT
BRANCH   6   7
HETATM    7  C   UNL     1     -43.249 -52.077  12.757  1.00  0.00     0.680 A 
HETATM    8  N   UNL     1     -43.204 -50.736  12.796  1.00  0.00    -0.200 N 
HETATM    9  C   UNL     1     -42.078 -50.121  12.358  1.00  0.00     0.131 A 
ATOM     10  HN  UNL     1     -43.994 -50.194  13.147  1.00  0.00     0.183 HD
HETATM   11  C   UNL     1     -40.983 -50.795  11.889  1.00  0.00     0.065 A 
HETATM   12 CL   UNL     1     -39.558 -49.999  11.385  1.00  0.00    -0.081 Cl
HETATM   13  C   UNL     1     -41.116 -52.159  11.869  1.00  0.00     0.131 A 
HETATM   14  N   UNL     1     -42.227 -52.810  12.282  1.00  0.00    -0.200 N 
ATOM     15  HN  UNL     1     -42.288 -53.828  12.235  1.00  0.00     0.183 HD
ENDBRANCH   6   7
BRANCH   1  16
HETATM   16  C   UNL     1     -45.006 -53.907  15.399  1.00  0.00     0.241 C 
HETATM   17  N   UNL     1     -46.086 -53.801  16.238  1.00  0.00    -0.368 N 
HETATM   18  H   UNL     1     -46.376 -54.625  16.747  1.00  0.00     0.159 HD
HETATM   19  H   UNL     1     -46.329 -52.880  16.588  1.00  0.00     0.159 HD
HETATM   20  O   UNL     1     -44.540 -55.007  15.125  1.00  0.00    -0.271 OA
ENDBRANCH   1  16
TORSDOF 2
ENDMDL
MODEL 9
REMARK VINA RESULT:      -4.9      4.378      6.019
REMARK  2 active torsions:
REMARK  status: ('A' for Active; 'I' for Inactive)
REMARK       I    between atoms: N_1  and  C_2 
REMARK    1  A    between atoms: C_2  and  C_4 
REMARK    2  A    between atoms: N_9  and  C_10 
ROOT
HETATM    1  C   UNL     1     -43.534 -53.611  13.174  1.00  0.00     0.217 C 
HETATM    2  C   UNL     1     -43.100 -54.471  14.373  1.00  0.00     0.203 C 
HETATM    3  O   UNL     1     -43.592 -53.962  15.628  1.00  0.00    -0.387 OA
HETATM    4  C   UNL     1     -43.153 -52.616  15.851  1.00  0.00     0.188 C 
HETATM    5  C   UNL     1     -43.633 -51.674  14.737  1.00  0.00     0.168 C 
HETATM    6  N   UNL     1     -43.226 -52.172  13.412  1.00  0.00    -0.200 N 
ENDROOT
BRANCH   6   7
HETATM    7  C   UNL     1     -42.035 -51.691  12.899  1.00  0.00     0.680 A 
HETATM    8  N   UNL     1     -42.062 -50.736  11.954  1.00  0.00    -0.200 N 
HETATM    9  C   UNL     1     -40.884 -50.195  11.559  1.00  0.00     0.131 A 
ATOM     10  HN  UNL     1     -42.945 -50.428  11.546  1.00  0.00     0.183 HD
HETATM   11  C   UNL     1     -39.672 -50.560  12.078  1.00  0.00     0.065 A 
HETATM   12 CL   UNL     1     -38.206 -49.829  11.596  1.00  0.00    -0.081 Cl
HETATM   13  C   UNL     1     -39.731 -51.548  13.027  1.00  0.00     0.131 A 
HETATM   14  N   UNL     1     -40.882 -52.126  13.438  1.00  0.00    -0.200 N 
ATOM     15  HN  UNL     1     -40.877 -52.870  14.136  1.00  0.00     0.183 HD
ENDBRANCH   6   7
BRANCH   1  16
HETATM   16  C   UNL     1     -45.037 -53.789  12.878  1.00  0.00     0.241 C 
HETATM   17  N   UNL     1     -45.647 -54.782  13.601  1.00  0.00    -0.368 N 
HETATM   18  H   UNL     1     -46.607 -55.008  13.383  1.00  0.00     0.159 HD
HETATM   19  H   UNL     1     -45.057 -55.470  14.058  1.00  0.00     0.159 HD
HETATM   20  O   UNL     1     -45.696 -53.069  12.135  1.00  0.00    -0.271 OA
ENDBRANCH   1  16
TORSDOF 2
ENDMDL
