MODEL 1
REMARK VINA RESULT:      -6.4      0.000      0.000
REMARK  7 active torsions:
REMARK  status: ('A' for Active; 'I' for Inactive)
REMARK    1  A    between atoms: N_2  and  C_14 
REMARK    2  A    between atoms: N_4  and  C_7 
REMARK    3  A    between atoms: C_13  and  N_18 
REMARK    4  A    between atoms: C_14  and  C_17 
REMARK    5  A    between atoms: C_17  and  O_24 
REMARK       I    between atoms: N_18  and  C_20 
REMARK    6  A    between atoms: C_20  and  C_26 
REMARK    7  A    between atoms: C_26  and  O_28 
ROOT
HETATM    1  C   UNL     1     -41.555 -49.906  11.968  1.00  0.00     0.122 A 
HETATM    2  N   UNL     1     -41.863 -47.939  11.077  1.00  0.00    -0.324 N 
HETATM    3  C   UNL     1     -40.887 -48.850  11.372  1.00  0.00     0.140 A 
HETATM    4  N   UNL     1     -42.905 -49.625  12.079  1.00  0.00    -0.346 N 
ATOM      5  HN  UNL     1     -43.627 -50.207  12.503  1.00  0.00     0.167 HD
HETATM    6  C   UNL     1     -40.786 -51.029  12.322  1.00  0.00     0.135 A 
HETATM    7  C   UNL     1     -43.055 -48.447  11.519  1.00  0.00     0.185 A 
HETATM    8  N   UNL     1     -39.571 -48.756  11.119  1.00  0.00    -0.336 N 
ATOM      9  HN  UNL     1     -39.121 -47.947  10.691  1.00  0.00     0.168 HD
HETATM   10  N   UNL     1     -39.446 -50.982  12.075  1.00  0.00    -0.337 N 
ATOM     11  HN  UNL     1     -38.847 -51.772  12.316  1.00  0.00     0.168 HD
HETATM   12  C   UNL     1     -38.927 -49.875  11.506  1.00  0.00     0.183 A 
ENDROOT
BRANCH   6  13
HETATM   13  N   UNL     1     -41.345 -52.160  12.923  1.00  0.00    -0.361 N 
HETATM   14  C   UNL     1     -41.639 -52.371  14.303  1.00  0.00     0.151 C 
HETATM   15  C   UNL     1     -41.839 -53.858  13.936  1.00  0.00     0.120 C 
HETATM   16  C   UNL     1     -40.967 -53.527  12.708  1.00  0.00     0.151 C 
BRANCH  15  17
HETATM   17  N   UNL     1     -43.238 -54.210  13.582  1.00  0.00    -0.351 N 
HETATM   18  C   UNL     1     -44.049 -54.942  14.418  1.00  0.00     0.241 C 
HETATM   19  O   UNL     1     -43.687 -55.370  15.509  1.00  0.00    -0.271 OA
HETATM   20  H   UNL     1     -43.678 -53.763  12.782  1.00  0.00     0.163 HD
BRANCH  18  21
HETATM   21  C   UNL     1     -45.442 -55.196  13.842  1.00  0.00     0.269 C 
BRANCH  21  22
HETATM   22  O   UNL     1     -46.500 -54.892  14.748  1.00  0.00    -0.387 OA
HETATM   23  C   UNL     1     -46.752 -53.490  14.815  1.00  0.00     0.202 C 
ENDBRANCH  21  22
ENDBRANCH  18  21
ENDBRANCH  15  17
ENDBRANCH   6  13
BRANCH   2  24
HETATM   24  C   UNL     1     -41.702 -46.736  10.288  1.00  0.00     0.171 C 
BRANCH  24  25
HETATM   25  C   UNL     1     -41.249 -45.501  11.076  1.00  0.00     0.097 C 
HETATM   26  C   UNL     1     -42.292 -44.418  11.277  1.00  0.00     0.068 C 
HETATM   27  C   UNL     1     -41.465 -43.147  11.382  1.00  0.00     0.170 C 
HETATM   28  O   UNL     1     -40.215 -43.378  10.724  1.00  0.00    -0.388 OA
HETATM   29  C   UNL     1     -40.181 -44.742  10.284  1.00  0.00     0.207 C 
BRANCH  25  30
HETATM   30  O   UNL     1     -40.701 -45.868  12.346  1.00  0.00    -0.386 OA
HETATM   31  H   UNL     1     -40.012 -46.547  12.222  1.00  0.00     0.210 HD
ENDBRANCH  25  30
ENDBRANCH  24  25
ENDBRANCH   2  24
TORSDOF 7
ENDMDL
MODEL 2
REMARK VINA RESULT:      -6.0      2.852      4.004
REMARK  7 active torsions:
REMARK  status: ('A' for Active; 'I' for Inactive)
REMARK    1  A    between atoms: N_2  and  C_14 
REMARK    2  A    between atoms: N_4  and  C_7 
REMARK    3  A    between atoms: C_13  and  N_18 
REMARK    4  A    between atoms: C_14  and  C_17 
REMARK    5  A    between atoms: C_17  and  O_24 
REMARK       I    between atoms: N_18  and  C_20 
REMARK    6  A    between atoms: C_20  and  C_26 
REMARK    7  A    between atoms: C_26  and  O_28 
ROOT
HETATM    1  C   UNL     1     -41.143 -50.918  12.410  1.00  0.00     0.122 A 
HETATM    2  N   UNL     1     -41.374 -49.176  11.118  1.00  0.00    -0.324 N 
HETATM    3  C   UNL     1     -42.039 -49.928  12.048  1.00  0.00     0.140 A 
HETATM    4  N   UNL     1     -39.972 -50.803  11.682  1.00  0.00    -0.346 N 
ATOM      5  HN  UNL     1     -39.155 -51.412  11.720  1.00  0.00     0.167 HD
HETATM    6  C   UNL     1     -41.551 -51.811  13.417  1.00  0.00     0.135 A 
HETATM    7  C   UNL     1     -40.140 -49.739  10.932  1.00  0.00     0.185 A 
HETATM    8  N   UNL     1     -43.280 -49.737  12.524  1.00  0.00    -0.336 N 
ATOM      9  HN  UNL     1     -43.913 -49.000  12.212  1.00  0.00     0.168 HD
HETATM   10  N   UNL     1     -42.800 -51.650  13.938  1.00  0.00    -0.337 N 
ATOM     11  HN  UNL     1     -43.143 -52.273  14.668  1.00  0.00     0.168 HD
HETATM   12  C   UNL     1     -43.577 -50.650  13.470  1.00  0.00     0.183 A 
ENDROOT
BRANCH   6  13
HETATM   13  N   UNL     1     -40.734 -52.848  13.875  1.00  0.00    -0.361 N 
HETATM   14  C   UNL     1     -39.434 -52.754  14.456  1.00  0.00     0.151 C 
HETATM   15  C   UNL     1     -39.340 -54.283  14.262  1.00  0.00     0.120 C 
HETATM   16  C   UNL     1     -40.431 -54.073  13.194  1.00  0.00     0.151 C 
BRANCH  15  17
HETATM   17  N   UNL     1     -39.809 -55.071  15.431  1.00  0.00    -0.351 N 
HETATM   18  C   UNL     1     -38.967 -55.874  16.165  1.00  0.00     0.241 C 
HETATM   19  O   UNL     1     -37.774 -56.015  15.913  1.00  0.00    -0.271 OA
HETATM   20  H   UNL     1     -40.732 -54.892  15.815  1.00  0.00     0.163 HD
BRANCH  18  21
HETATM   21  C   UNL     1     -39.669 -56.601  17.312  1.00  0.00     0.269 C 
BRANCH  21  22
HETATM   22  O   UNL     1     -39.900 -57.984  17.057  1.00  0.00    -0.387 OA
HETATM   23  C   UNL     1     -39.237 -58.815  18.007  1.00  0.00     0.202 C 
ENDBRANCH  21  22
ENDBRANCH  18  21
ENDBRANCH  15  17
ENDBRANCH   6  13
BRANCH   2  24
HETATM   24  C   UNL     1     -41.818 -47.918  10.558  1.00  0.00     0.171 C 
BRANCH  24  25
HETATM   25  C   UNL     1     -41.098 -46.677  11.101  1.00  0.00     0.097 C 
HETATM   26  C   UNL     1     -40.759 -46.697  12.579  1.00  0.00     0.068 C 
HETATM   27  C   UNL     1     -40.766 -45.226  12.962  1.00  0.00     0.170 C 
HETATM   28  O   UNL     1     -41.585 -44.528  12.018  1.00  0.00    -0.388 OA
HETATM   29  C   UNL     1     -42.026 -45.462  11.024  1.00  0.00     0.207 C 
BRANCH  25  30
HETATM   30  O   UNL     1     -39.912 -46.395  10.350  1.00  0.00    -0.386 OA
HETATM   31  H   UNL     1     -39.913 -45.459  10.076  1.00  0.00     0.210 HD
ENDBRANCH  25  30
ENDBRANCH  24  25
ENDBRANCH   2  24
TORSDOF 7
ENDMDL
MODEL 3
REMARK VINA RESULT:      -6.0      2.105      2.710
REMARK  7 active torsions:
REMARK  status: ('A' for Active; 'I' for Inactive)
REMARK    1  A    between atoms: N_2  and  C_14 
REMARK    2  A    between atoms: N_4  and  C_7 
REMARK    3  A    between atoms: C_13  and  N_18 
REMARK    4  A    between atoms: C_14  and  C_17 
REMARK    5  A    between atoms: C_17  and  O_24 
REMARK       I    between atoms: N_18  and  C_20 
REMARK    6  A    between atoms: C_20  and  C_26 
REMARK    7  A    between atoms: C_26  and  O_28 
ROOT
HETATM    1  C   UNL     1     -41.855 -49.794  12.133  1.00  0.00     0.122 A 
HETATM    2  N   UNL     1     -42.380 -47.913  11.161  1.00  0.00    -0.324 N 
HETATM    3  C   UNL     1     -41.337 -48.778  11.348  1.00  0.00     0.140 A 
HETATM    4  N   UNL     1     -43.173 -49.531  12.459  1.00  0.00    -0.346 N 
ATOM      5  HN  UNL     1     -43.790 -50.091  13.047  1.00  0.00     0.167 HD
HETATM    6  C   UNL     1     -40.998 -50.870  12.431  1.00  0.00     0.135 A 
HETATM    7  C   UNL     1     -43.458 -48.406  11.845  1.00  0.00     0.185 A 
HETATM    8  N   UNL     1     -40.089 -48.679  10.860  1.00  0.00    -0.336 N 
ATOM      9  HN  UNL     1     -39.748 -47.899  10.299  1.00  0.00     0.168 HD
HETATM   10  N   UNL     1     -39.725 -50.817  11.948  1.00  0.00    -0.337 N 
ATOM     11  HN  UNL     1     -39.066 -51.572  12.139  1.00  0.00     0.168 HD
HETATM   12  C   UNL     1     -39.350 -49.750  11.213  1.00  0.00     0.183 A 
ENDROOT
BRANCH   6  13
HETATM   13  N   UNL     1     -41.406 -51.958  13.206  1.00  0.00    -0.361 N 
HETATM   14  C   UNL     1     -40.712 -52.581  14.286  1.00  0.00     0.151 C 
HETATM   15  C   UNL     1     -41.745 -53.722  14.168  1.00  0.00     0.120 C 
HETATM   16  C   UNL     1     -41.952 -53.198  12.733  1.00  0.00     0.151 C 
BRANCH  15  17
HETATM   17  N   UNL     1     -42.940 -53.548  15.033  1.00  0.00    -0.351 N 
HETATM   18  C   UNL     1     -43.684 -54.612  15.486  1.00  0.00     0.241 C 
HETATM   19  O   UNL     1     -43.434 -55.781  15.210  1.00  0.00    -0.271 OA
HETATM   20  H   UNL     1     -43.127 -52.640  15.449  1.00  0.00     0.163 HD
BRANCH  18  21
HETATM   21  C   UNL     1     -44.877 -54.196  16.348  1.00  0.00     0.269 C 
BRANCH  21  22
HETATM   22  O   UNL     1     -46.137 -54.578  15.804  1.00  0.00    -0.387 OA
HETATM   23  C   UNL     1     -46.577 -53.668  14.798  1.00  0.00     0.202 C 
ENDBRANCH  21  22
ENDBRANCH  18  21
ENDBRANCH  15  17
ENDBRANCH   6  13
BRANCH   2  24
HETATM   24  C   UNL     1     -42.400 -46.776  10.266  1.00  0.00     0.171 C 
BRANCH  24  25
HETATM   25  C   UNL     1     -43.502 -46.810   9.200  1.00  0.00     0.097 C 
HETATM   26  C   UNL     1     -44.853 -47.328   9.655  1.00  0.00     0.068 C 
HETATM   27  C   UNL     1     -45.449 -47.919   8.387  1.00  0.00     0.170 C 
HETATM   28  O   UNL     1     -44.371 -48.248   7.505  1.00  0.00    -0.388 OA
HETATM   29  C   UNL     1     -43.143 -47.826   8.113  1.00  0.00     0.207 C 
BRANCH  25  30
HETATM   30  O   UNL     1     -43.672 -45.527   8.588  1.00  0.00    -0.386 OA
HETATM   31  H   UNL     1     -43.837 -44.855   9.275  1.00  0.00     0.210 HD
ENDBRANCH  25  30
ENDBRANCH  24  25
ENDBRANCH   2  24
TORSDOF 7
ENDMDL
MODEL 4
REMARK VINA RESULT:      -5.9      2.246      3.890
REMARK  7 active torsions:
REMARK  status: ('A' for Active; 'I' for Inactive)
REMARK    1  A    between atoms: N_2  and  C_14 
REMARK    2  A    between atoms: N_4  and  C_7 
REMARK    3  A    between atoms: C_13  and  N_18 
REMARK    4  A    between atoms: C_14  and  C_17 
REMARK    5  A    between atoms: C_17  and  O_24 
REMARK       I    between atoms: N_18  and  C_20 
REMARK    6  A    between atoms: C_20  and  C_26 
REMARK    7  A    between atoms: C_26  and  O_28 
ROOT
HETATM    1  C   UNL     1     -40.734 -46.948  11.336  1.00  0.00     0.122 A 
HETATM    2  N   UNL     1     -40.694 -44.794  10.994  1.00  0.00    -0.324 N 
HETATM    3  C   UNL     1     -41.304 -45.944  10.572  1.00  0.00     0.140 A 
HETATM    4  N   UNL     1     -39.764 -46.430  12.174  1.00  0.00    -0.346 N 
ATOM      5  HN  UNL     1     -39.165 -46.941  12.822  1.00  0.00     0.167 HD
HETATM    6  C   UNL     1     -41.232 -48.251  11.150  1.00  0.00     0.135 A 
HETATM    7  C   UNL     1     -39.780 -45.135  11.954  1.00  0.00     0.185 A 
HETATM    8  N   UNL     1     -42.261 -46.072   9.639  1.00  0.00    -0.336 N 
ATOM      9  HN  UNL     1     -42.638 -45.302   9.087  1.00  0.00     0.168 HD
HETATM   10  N   UNL     1     -42.211 -48.428  10.220  1.00  0.00    -0.337 N 
ATOM     11  HN  UNL     1     -42.602 -49.354  10.047  1.00  0.00     0.168 HD
HETATM   12  C   UNL     1     -42.657 -47.356   9.530  1.00  0.00     0.183 A 
ENDROOT
BRANCH   6  13
HETATM   13  N   UNL     1     -40.745 -49.347  11.867  1.00  0.00    -0.361 N 
HETATM   14  C   UNL     1     -40.769 -49.559  13.278  1.00  0.00     0.151 C 
HETATM   15  C   UNL     1     -39.785 -50.722  13.025  1.00  0.00     0.120 C 
HETATM   16  C   UNL     1     -39.468 -49.983  11.710  1.00  0.00     0.151 C 
BRANCH  15  17
HETATM   17  N   UNL     1     -40.443 -52.036  12.814  1.00  0.00    -0.351 N 
HETATM   18  C   UNL     1     -40.095 -53.159  13.528  1.00  0.00     0.241 C 
HETATM   19  O   UNL     1     -39.213 -53.174  14.381  1.00  0.00    -0.271 OA
HETATM   20  H   UNL     1     -41.290 -52.086  12.254  1.00  0.00     0.163 HD
BRANCH  18  21
HETATM   21  C   UNL     1     -40.895 -54.401  13.133  1.00  0.00     0.269 C 
BRANCH  21  22
HETATM   22  O   UNL     1     -42.301 -54.257  13.315  1.00  0.00    -0.387 OA
HETATM   23  C   UNL     1     -42.710 -54.664  14.619  1.00  0.00     0.202 C 
ENDBRANCH  21  22
ENDBRANCH  18  21
ENDBRANCH  15  17
ENDBRANCH   6  13
BRANCH   2  24
HETATM   24  C   UNL     1     -41.064 -43.444  10.625  1.00  0.00     0.171 C 
BRANCH  24  25
HETATM   25  C   UNL     1     -42.415 -42.970  11.174  1.00  0.00     0.097 C 
HETATM   26  C   UNL     1     -42.560 -41.476  11.390  1.00  0.00     0.068 C 
HETATM   27  C   UNL     1     -43.564 -41.379  12.527  1.00  0.00     0.170 C 
HETATM   28  O   UNL     1     -43.524 -42.610  13.257  1.00  0.00    -0.388 OA
HETATM   29  C   UNL     1     -42.612 -43.497  12.598  1.00  0.00     0.207 C 
BRANCH  25  30
HETATM   30  O   UNL     1     -43.498 -43.435  10.361  1.00  0.00    -0.386 OA
HETATM   31  H   UNL     1     -43.662 -44.378  10.544  1.00  0.00     0.210 HD
ENDBRANCH  25  30
ENDBRANCH  24  25
ENDBRANCH   2  24
TORSDOF 7
ENDMDL
MODEL 5
REMARK VINA RESULT:      -5.9      1.868      8.676
REMARK  7 active torsions:
REMARK  status: ('A' for Active; 'I' for Inactive)
REMARK    1  A    between atoms: N_2  and  C_14 
REMARK    2  A    between atoms: N_4  and  C_7 
REMARK    3  A    between atoms: C_13  and  N_18 
REMARK    4  A    between atoms: C_14  and  C_17 
REMARK    5  A    between atoms: C_17  and  O_24 
REMARK       I    between atoms: N_18  and  C_20 
REMARK    6  A    between atoms: C_20  and  C_26 
REMARK    7  A    between atoms: C_26  and  O_28 
ROOT
HETATM    1  C   UNL     1     -42.360 -49.473  12.465  1.00  0.00     0.122 A 
HETATM    2  N   UNL     1     -42.715 -51.231  13.707  1.00  0.00    -0.324 N 
HETATM    3  C   UNL     1     -41.924 -50.767  12.691  1.00  0.00     0.140 A 
HETATM    4  N   UNL     1     -43.426 -49.168  13.292  1.00  0.00    -0.346 N 
ATOM      5  HN  UNL     1     -43.961 -48.300  13.321  1.00  0.00     0.167 HD
HETATM    6  C   UNL     1     -41.665 -48.726  11.497  1.00  0.00     0.135 A 
HETATM    7  C   UNL     1     -43.599 -50.238  14.034  1.00  0.00     0.185 A 
HETATM    8  N   UNL     1     -40.929 -51.414  12.065  1.00  0.00    -0.336 N 
ATOM      9  HN  UNL     1     -40.655 -52.378  12.255  1.00  0.00     0.168 HD
HETATM   10  N   UNL     1     -40.639 -49.339  10.841  1.00  0.00    -0.337 N 
ATOM     11  HN  UNL     1     -40.107 -48.839  10.129  1.00  0.00     0.168 HD
HETATM   12  C   UNL     1     -40.339 -50.617  11.151  1.00  0.00     0.183 A 
ENDROOT
BRANCH   6  13
HETATM   13  N   UNL     1     -42.003 -47.407  11.184  1.00  0.00    -0.361 N 
HETATM   14  C   UNL     1     -43.179 -46.929  10.532  1.00  0.00     0.151 C 
HETATM   15  C   UNL     1     -42.439 -45.580  10.394  1.00  0.00     0.120 C 
HETATM   16  C   UNL     1     -41.161 -46.423  10.567  1.00  0.00     0.151 C 
BRANCH  15  17
HETATM   17  N   UNL     1     -42.678 -44.641  11.519  1.00  0.00    -0.351 N 
HETATM   18  C   UNL     1     -42.846 -43.289  11.329  1.00  0.00     0.241 C 
HETATM   19  O   UNL     1     -42.802 -42.748  10.228  1.00  0.00    -0.271 OA
HETATM   20  H   UNL     1     -42.895 -45.011  12.440  1.00  0.00     0.163 HD
BRANCH  18  21
HETATM   21  C   UNL     1     -43.064 -42.516  12.630  1.00  0.00     0.269 C 
BRANCH  21  22
HETATM   22  O   UNL     1     -42.267 -42.985  13.715  1.00  0.00    -0.387 OA
HETATM   23  C   UNL     1     -40.993 -42.343  13.752  1.00  0.00     0.202 C 
ENDBRANCH  21  22
ENDBRANCH  18  21
ENDBRANCH  15  17
ENDBRANCH   6  13
BRANCH   2  24
HETATM   24  C   UNL     1     -42.544 -52.474  14.427  1.00  0.00     0.171 C 
BRANCH  24  25
HETATM   25  C   UNL     1     -43.270 -53.680  13.818  1.00  0.00     0.097 C 
HETATM   26  C   UNL     1     -44.746 -53.491  13.524  1.00  0.00     0.068 C 
HETATM   27  C   UNL     1     -45.314 -54.896  13.653  1.00  0.00     0.170 C 
HETATM   28  O   UNL     1     -44.435 -55.652  14.493  1.00  0.00    -0.388 OA
HETATM   29  C   UNL     1     -43.312 -54.827  14.832  1.00  0.00     0.207 C 
BRANCH  25  30
HETATM   30  O   UNL     1     -42.610 -54.141  12.634  1.00  0.00    -0.386 OA
HETATM   31  H   UNL     1     -41.907 -54.772  12.876  1.00  0.00     0.210 HD
ENDBRANCH  25  30
ENDBRANCH  24  25
ENDBRANCH   2  24
TORSDOF 7
ENDMDL
MODEL 6
REMARK VINA RESULT:      -5.8      3.828      8.053
REMARK  7 active torsions:
REMARK  status: ('A' for Active; 'I' for Inactive)
REMARK    1  A    between atoms: N_2  and  C_14 
REMARK    2  A    between atoms: N_4  and  C_7 
REMARK    3  A    between atoms: C_13  and  N_18 
REMARK    4  A    between atoms: C_14  and  C_17 
REMARK    5  A    between atoms: C_17  and  O_24 
REMARK       I    between atoms: N_18  and  C_20 
REMARK    6  A    between atoms: C_20  and  C_26 
REMARK    7  A    between atoms: C_26  and  O_28 
ROOT
HETATM    1  C   UNL     1     -41.002 -51.648  13.521  1.00  0.00     0.122 A 
HETATM    2  N   UNL     1     -42.646 -53.010  13.072  1.00  0.00    -0.324 N 
HETATM    3  C   UNL     1     -42.213 -51.731  12.855  1.00  0.00     0.140 A 
HETATM    4  N   UNL     1     -40.724 -52.836  14.172  1.00  0.00    -0.346 N 
ATOM      5  HN  UNL     1     -39.919 -53.048  14.761  1.00  0.00     0.167 HD
HETATM    6  C   UNL     1     -40.294 -50.437  13.409  1.00  0.00     0.135 A 
HETATM    7  C   UNL     1     -41.721 -53.634  13.866  1.00  0.00     0.185 A 
HETATM    8  N   UNL     1     -42.815 -50.771  12.134  1.00  0.00    -0.336 N 
ATOM      9  HN  UNL     1     -43.719 -50.874  11.675  1.00  0.00     0.168 HD
HETATM   10  N   UNL     1     -40.862 -49.437  12.680  1.00  0.00    -0.337 N 
ATOM     11  HN  UNL     1     -40.389 -48.540  12.572  1.00  0.00     0.168 HD
HETATM   12  C   UNL     1     -42.063 -49.652  12.102  1.00  0.00     0.183 A 
ENDROOT
BRANCH   6  13
HETATM   13  N   UNL     1     -39.058 -50.234  14.028  1.00  0.00    -0.361 N 
HETATM   14  C   UNL     1     -38.467 -48.999  14.432  1.00  0.00     0.151 C 
HETATM   15  C   UNL     1     -37.158 -49.797  14.621  1.00  0.00     0.120 C 
HETATM   16  C   UNL     1     -37.799 -50.809  13.651  1.00  0.00     0.151 C 
BRANCH  15  17
HETATM   17  N   UNL     1     -36.972 -50.337  15.992  1.00  0.00    -0.351 N 
HETATM   18  C   UNL     1     -35.849 -50.075  16.742  1.00  0.00     0.241 C 
HETATM   19  O   UNL     1     -34.912 -49.391  16.344  1.00  0.00    -0.271 OA
HETATM   20  H   UNL     1     -37.758 -50.772  16.468  1.00  0.00     0.163 HD
BRANCH  18  21
HETATM   21  C   UNL     1     -35.868 -50.747  18.116  1.00  0.00     0.269 C 
BRANCH  21  22
HETATM   22  O   UNL     1     -35.247 -52.029  18.134  1.00  0.00    -0.387 OA
HETATM   23  C   UNL     1     -36.148 -53.048  18.564  1.00  0.00     0.202 C 
ENDBRANCH  21  22
ENDBRANCH  18  21
ENDBRANCH  15  17
ENDBRANCH   6  13
BRANCH   2  24
HETATM   24  C   UNL     1     -43.781 -53.649  12.441  1.00  0.00     0.171 C 
BRANCH  24  25
HETATM   25  C   UNL     1     -45.074 -53.632  13.266  1.00  0.00     0.097 C 
HETATM   26  C   UNL     1     -45.044 -52.805  14.537  1.00  0.00     0.068 C 
HETATM   27  C   UNL     1     -46.046 -53.507  15.439  1.00  0.00     0.170 C 
HETATM   28  O   UNL     1     -46.162 -54.864  14.998  1.00  0.00    -0.388 OA
HETATM   29  C   UNL     1     -45.351 -55.030  13.826  1.00  0.00     0.207 C 
BRANCH  25  30
HETATM   30  O   UNL     1     -46.193 -53.229  12.469  1.00  0.00    -0.386 OA
HETATM   31  H   UNL     1     -46.444 -53.954  11.867  1.00  0.00     0.210 HD
ENDBRANCH  25  30
ENDBRANCH  24  25
ENDBRANCH   2  24
TORSDOF 7
ENDMDL
MODEL 7
REMARK VINA RESULT:      -5.6      2.981      8.406
REMARK  7 active torsions:
REMARK  status: ('A' for Active; 'I' for Inactive)
REMARK    1  A    between atoms: N_2  and  C_14 
REMARK    2  A    between atoms: N_4  and  C_7 
REMARK    3  A    between atoms: C_13  and  N_18 
REMARK    4  A    between atoms: C_14  and  C_17 
REMARK    5  A    between atoms: C_17  and  O_24 
REMARK       I    between atoms: N_18  and  C_20 
REMARK    6  A    between atoms: C_20  and  C_26 
REMARK    7  A    between atoms: C_26  and  O_28 
ROOT
HETATM    1  C   UNL     1     -40.800 -51.514  13.103  1.00  0.00     0.122 A 
HETATM    2  N   UNL     1     -39.610 -53.070  14.063  1.00  0.00    -0.324 N 
HETATM    3  C   UNL     1     -40.848 -52.830  13.532  1.00  0.00     0.140 A 
HETATM    4  N   UNL     1     -39.576 -50.948  13.409  1.00  0.00    -0.346 N 
ATOM      5  HN  UNL     1     -39.275 -49.989  13.237  1.00  0.00     0.167 HD
HETATM    6  C   UNL     1     -41.940 -51.016  12.447  1.00  0.00     0.135 A 
HETATM    7  C   UNL     1     -38.883 -51.914  13.968  1.00  0.00     0.185 A 
HETATM    8  N   UNL     1     -41.877 -53.686  13.426  1.00  0.00    -0.336 N 
ATOM      9  HN  UNL     1     -41.871 -54.644  13.775  1.00  0.00     0.168 HD
HETATM   10  N   UNL     1     -43.007 -51.852  12.308  1.00  0.00    -0.337 N 
ATOM     11  HN  UNL     1     -43.857 -51.536  11.841  1.00  0.00     0.168 HD
HETATM   12  C   UNL     1     -42.919 -53.107  12.797  1.00  0.00     0.183 A 
ENDROOT
BRANCH   6  13
HETATM   13  N   UNL     1     -42.012 -49.708  11.960  1.00  0.00    -0.361 N 
HETATM   14  C   UNL     1     -41.091 -49.035  11.101  1.00  0.00     0.151 C 
HETATM   15  C   UNL     1     -41.844 -47.737  11.469  1.00  0.00     0.120 C 
HETATM   16  C   UNL     1     -42.303 -48.522  12.713  1.00  0.00     0.151 C 
BRANCH  15  17
HETATM   17  N   UNL     1     -42.957 -47.401  10.545  1.00  0.00    -0.351 N 
HETATM   18  C   UNL     1     -43.008 -46.213   9.853  1.00  0.00     0.241 C 
HETATM   19  O   UNL     1     -42.155 -45.336   9.948  1.00  0.00    -0.271 OA
HETATM   20  H   UNL     1     -43.617 -48.125  10.275  1.00  0.00     0.163 HD
BRANCH  18  21
HETATM   21  C   UNL     1     -44.251 -46.077   8.973  1.00  0.00     0.269 C 
BRANCH  21  22
HETATM   22  O   UNL     1     -45.006 -47.281   8.859  1.00  0.00    -0.387 OA
HETATM   23  C   UNL     1     -46.400 -47.051   9.051  1.00  0.00     0.202 C 
ENDBRANCH  21  22
ENDBRANCH  18  21
ENDBRANCH  15  17
ENDBRANCH   6  13
BRANCH   2  24
HETATM   24  C   UNL     1     -39.097 -54.354  14.492  1.00  0.00     0.171 C 
BRANCH  24  25
HETATM   25  C   UNL     1     -39.369 -54.702  15.960  1.00  0.00     0.097 C 
HETATM   26  C   UNL     1     -38.939 -53.667  16.982  1.00  0.00     0.068 C 
HETATM   27  C   UNL     1     -38.642 -54.497  18.221  1.00  0.00     0.170 C 
HETATM   28  O   UNL     1     -38.345 -55.832  17.798  1.00  0.00    -0.388 OA
HETATM   29  C   UNL     1     -38.515 -55.904  16.376  1.00  0.00     0.207 C 
BRANCH  25  30
HETATM   30  O   UNL     1     -40.747 -55.027  16.170  1.00  0.00    -0.386 OA
HETATM   31  H   UNL     1     -41.295 -54.582  15.498  1.00  0.00     0.210 HD
ENDBRANCH  25  30
ENDBRANCH  24  25
ENDBRANCH   2  24
TORSDOF 7
ENDMDL
MODEL 8
REMARK VINA RESULT:      -5.6      1.784      8.202
REMARK  7 active torsions:
REMARK  status: ('A' for Active; 'I' for Inactive)
REMARK    1  A    between atoms: N_2  and  C_14 
REMARK    2  A    between atoms: N_4  and  C_7 
REMARK    3  A    between atoms: C_13  and  N_18 
REMARK    4  A    between atoms: C_14  and  C_17 
REMARK    5  A    between atoms: C_17  and  O_24 
REMARK       I    between atoms: N_18  and  C_20 
REMARK    6  A    between atoms: C_20  and  C_26 
REMARK    7  A    between atoms: C_26  and  O_28 
ROOT
HETATM    1  C   UNL     1     -42.395 -52.057  13.254  1.00  0.00     0.122 A 
HETATM    2  N   UNL     1     -43.784 -53.719  13.508  1.00  0.00    -0.324 N 
HETATM    3  C   UNL     1     -42.724 -53.096  14.108  1.00  0.00     0.140 A 
HETATM    4  N   UNL     1     -43.205 -52.073  12.134  1.00  0.00    -0.346 N 
ATOM      5  HN  UNL     1     -43.167 -51.446  11.331  1.00  0.00     0.167 HD
HETATM    6  C   UNL     1     -41.358 -51.198  13.665  1.00  0.00     0.135 A 
HETATM    7  C   UNL     1     -44.036 -53.071  12.329  1.00  0.00     0.185 A 
HETATM    8  N   UNL     1     -42.143 -53.406  15.278  1.00  0.00    -0.336 N 
ATOM      9  HN  UNL     1     -42.410 -54.196  15.865  1.00  0.00     0.168 HD
HETATM   10  N   UNL     1     -40.746 -51.469  14.852  1.00  0.00    -0.337 N 
ATOM     11  HN  UNL     1     -39.987 -50.877  15.191  1.00  0.00     0.168 HD
HETATM   12  C   UNL     1     -41.158 -52.534  15.571  1.00  0.00     0.183 A 
ENDROOT
BRANCH   6  13
HETATM   13  N   UNL     1     -40.940 -50.109  12.896  1.00  0.00    -0.361 N 
HETATM   14  C   UNL     1     -40.271 -50.125  11.636  1.00  0.00     0.151 C 
HETATM   15  C   UNL     1     -40.003 -48.621  11.866  1.00  0.00     0.120 C 
HETATM   16  C   UNL     1     -40.224 -48.953  13.355  1.00  0.00     0.151 C 
BRANCH  15  17
HETATM   17  N   UNL     1     -41.047 -47.728  11.304  1.00  0.00    -0.351 N 
HETATM   18  C   UNL     1     -40.751 -46.504  10.749  1.00  0.00     0.241 C 
HETATM   19  O   UNL     1     -39.614 -46.048  10.682  1.00  0.00    -0.271 OA
HETATM   20  H   UNL     1     -41.988 -48.086  11.163  1.00  0.00     0.163 HD
BRANCH  18  21
HETATM   21  C   UNL     1     -41.984 -45.751  10.248  1.00  0.00     0.269 C 
BRANCH  21  22
HETATM   22  O   UNL     1     -43.005 -46.602   9.736  1.00  0.00    -0.387 OA
HETATM   23  C   UNL     1     -43.846 -45.921   8.807  1.00  0.00     0.202 C 
ENDBRANCH  21  22
ENDBRANCH  18  21
ENDBRANCH  15  17
ENDBRANCH   6  13
BRANCH   2  24
HETATM   24  C   UNL     1     -44.604 -54.761  14.087  1.00  0.00     0.171 C 
BRANCH  24  25
HETATM   25  C   UNL     1     -45.888 -54.271  14.769  1.00  0.00     0.097 C 
HETATM   26  C   UNL     1     -46.440 -52.947  14.278  1.00  0.00     0.068 C 
HETATM   27  C   UNL     1     -47.161 -52.392  15.496  1.00  0.00     0.170 C 
HETATM   28  O   UNL     1     -46.587 -52.994  16.661  1.00  0.00    -0.388 OA
HETATM   29  C   UNL     1     -45.605 -53.950  16.239  1.00  0.00     0.207 C 
BRANCH  25  30
HETATM   30  O   UNL     1     -46.919 -55.263  14.709  1.00  0.00    -0.386 OA
HETATM   31  H   UNL     1     -47.762 -54.877  15.010  1.00  0.00     0.210 HD
ENDBRANCH  25  30
ENDBRANCH  24  25
ENDBRANCH   2  24
TORSDOF 7
ENDMDL
MODEL 9
REMARK VINA RESULT:      -5.6      1.793      8.776
REMARK  7 active torsions:
REMARK  status: ('A' for Active; 'I' for Inactive)
REMARK    1  A    between atoms: N_2  and  C_14 
REMARK    2  A    between atoms: N_4  and  C_7 
REMARK    3  A    between atoms: C_13  and  N_18 
REMARK    4  A    between atoms: C_14  and  C_17 
REMARK    5  A    between atoms: C_17  and  O_24 
REMARK       I    between atoms: N_18  and  C_20 
REMARK    6  A    between atoms: C_20  and  C_26 
REMARK    7  A    between atoms: C_26  and  O_28 
ROOT
HETATM    1  C   UNL     1     -41.535 -50.404  12.961  1.00  0.00     0.122 A 
HETATM    2  N   UNL     1     -42.013 -52.511  13.263  1.00  0.00    -0.324 N 
HETATM    3  C   UNL     1     -41.900 -51.322  13.931  1.00  0.00     0.140 A 
HETATM    4  N   UNL     1     -41.381 -51.027  11.736  1.00  0.00    -0.346 N 
ATOM      5  HN  UNL     1     -41.089 -50.603  10.856  1.00  0.00     0.167 HD
HETATM    6  C   UNL     1     -41.409 -49.063  13.368  1.00  0.00     0.135 A 
HETATM    7  C   UNL     1     -41.692 -52.285  11.952  1.00  0.00     0.185 A 
HETATM    8  N   UNL     1     -42.118 -51.088  15.235  1.00  0.00    -0.336 N 
ATOM      9  HN  UNL     1     -42.370 -51.804  15.917  1.00  0.00     0.168 HD
HETATM   10  N   UNL     1     -41.631 -48.777  14.681  1.00  0.00    -0.337 N 
ATOM     11  HN  UNL     1     -41.549 -47.819  15.024  1.00  0.00     0.168 HD
HETATM   12  C   UNL     1     -41.960 -49.780  15.521  1.00  0.00     0.183 A 
ENDROOT
BRANCH   6  13
HETATM   13  N   UNL     1     -41.054 -48.043  12.482  1.00  0.00    -0.361 N 
HETATM   14  C   UNL     1     -41.543 -47.812  11.161  1.00  0.00     0.151 C 
HETATM   15  C   UNL     1     -40.377 -46.812  11.005  1.00  0.00     0.120 C 
HETATM   16  C   UNL     1     -39.727 -47.606  12.155  1.00  0.00     0.151 C 
BRANCH  15  17
HETATM   17  N   UNL     1     -40.722 -45.417  11.380  1.00  0.00    -0.351 N 
HETATM   18  C   UNL     1     -40.298 -44.330  10.651  1.00  0.00     0.241 C 
HETATM   19  O   UNL     1     -39.597 -44.419   9.648  1.00  0.00    -0.271 OA
HETATM   20  H   UNL     1     -41.429 -45.252  12.091  1.00  0.00     0.163 HD
BRANCH  18  21
HETATM   21  C   UNL     1     -40.761 -42.993  11.230  1.00  0.00     0.269 C 
BRANCH  21  22
HETATM   22  O   UNL     1     -41.838 -42.400  10.509  1.00  0.00    -0.387 OA
HETATM   23  C   UNL     1     -42.868 -41.938  11.381  1.00  0.00     0.202 C 
ENDBRANCH  21  22
ENDBRANCH  18  21
ENDBRANCH  15  17
ENDBRANCH   6  13
BRANCH   2  24
HETATM   24  C   UNL     1     -42.541 -53.747  13.799  1.00  0.00     0.171 C 
BRANCH  24  25
HETATM   25  C   UNL     1     -44.035 -53.980  13.539  1.00  0.00     0.097 C 
HETATM   26  C   UNL     1     -44.972 -52.881  14.001  1.00  0.00     0.068 C 
HETATM   27  C   UNL     1     -46.266 -53.621  14.298  1.00  0.00     0.170 C 
HETATM   28  O   UNL     1     -45.940 -54.990  14.563  1.00  0.00    -0.388 OA
HETATM   29  C   UNL     1     -44.530 -55.164  14.373  1.00  0.00     0.207 C 
BRANCH  25  30
HETATM   30  O   UNL     1     -44.284 -54.259  12.157  1.00  0.00    -0.386 OA
HETATM   31  H   UNL     1     -45.195 -54.589  12.048  1.00  0.00     0.210 HD
ENDBRANCH  25  30
ENDBRANCH  24  25
ENDBRANCH   2  24
TORSDOF 7
ENDMDL
