MODEL 1
REMARK VINA RESULT:      -7.5      0.000      0.000
REMARK  4 active torsions:
REMARK  status: ('A' for Active; 'I' for Inactive)
REMARK    1  A    between atoms: C_2  and  N_3 
REMARK    2  A    between atoms: N_4  and  C_15 
REMARK    3  A    between atoms: C_15  and  C_19 
REMARK    4  A    between atoms: C_19  and  O_27 
ROOT
HETATM    1  C   UNL     1     -42.149 -49.200  11.890  1.00  0.00     0.117 A 
HETATM    2  C   UNL     1     -41.336 -48.381  11.065  1.00  0.00     0.115 A 
HETATM    3  N   UNL     1     -42.544 -50.941  13.151  1.00  0.00    -0.324 N 
HETATM    4  C   UNL     1     -41.559 -50.329  12.430  1.00  0.00     0.140 A 
HETATM    5  N   UNL     1     -43.475 -49.120  12.277  1.00  0.00    -0.346 N 
ATOM      6  HN  UNL     1     -44.153 -48.403  12.020  1.00  0.00     0.167 HD
HETATM    7  C   UNL     1     -43.672 -50.169  13.048  1.00  0.00     0.185 A 
HETATM    8  N   UNL     1     -40.036 -48.760  10.904  1.00  0.00    -0.341 N 
ATOM      9  HN  UNL     1     -39.399 -48.195  10.344  1.00  0.00     0.167 HD
HETATM   10  N   UNL     1     -40.293 -50.749  12.271  1.00  0.00    -0.336 N 
ATOM     11  HN  UNL     1     -39.909 -51.599  12.683  1.00  0.00     0.168 HD
HETATM   12  C   UNL     1     -39.603 -49.893  11.495  1.00  0.00     0.183 A 
ENDROOT
BRANCH   2  13
HETATM   13  N   UNL     1     -41.844 -47.264  10.403  1.00  0.00    -0.257 NA
HETATM   14  C   UNL     1     -42.280 -46.120  11.242  1.00  0.00     0.122 C 
HETATM   15  C   UNL     1     -41.236 -45.652  12.285  1.00  0.00     0.294 C 
HETATM   16  C   UNL     1     -42.554 -44.947  10.259  1.00  0.00     0.143 C 
HETATM   17  N   UNL     1     -41.600 -44.411  13.001  1.00  0.00     0.086 N 
HETATM   18  C   UNL     1     -41.856 -43.323  12.050  1.00  0.00     0.274 C 
HETATM   19  C   UNL     1     -42.722 -44.621  13.917  1.00  0.00     0.310 C 
HETATM   20  C   UNL     1     -42.905 -43.658  10.993  1.00  0.00     0.064 C 
HETATM   21  O   UNL     1     -43.634 -45.284   9.362  1.00  0.00    -0.383 OA
HETATM   22  C   UNL     1     -43.288 -46.443   8.579  1.00  0.00     0.183 C 
HETATM   23  C   UNL     1     -42.916 -47.653   9.458  1.00  0.00     0.124 C 
ENDBRANCH   2  13
BRANCH   3  24
HETATM   24  C   UNL     1     -42.366 -52.094  14.009  1.00  0.00     0.169 C 
BRANCH  24  25
HETATM   25  C   UNL     1     -42.452 -53.478  13.319  1.00  0.00     0.078 C 
HETATM   26  C   UNL     1     -43.883 -53.670  12.780  1.00  0.00     0.066 C 
HETATM   27  C   UNL     1     -44.855 -54.070  13.878  1.00  0.00     0.170 C 
HETATM   28  O   UNL     1     -44.419 -55.283  14.481  1.00  0.00    -0.391 OA
HETATM   29  C   UNL     1     -43.165 -55.143  15.147  1.00  0.00     0.170 C 
HETATM   30  C   UNL     1     -42.068 -54.689  14.190  1.00  0.00     0.066 C 
BRANCH  25  31
HETATM   31  O   UNL     1     -41.589 -53.438  12.167  1.00  0.00    -0.388 OA
HETATM   32  H   UNL     1     -41.520 -54.337  11.797  1.00  0.00     0.210 HD
ENDBRANCH  25  31
ENDBRANCH  24  25
ENDBRANCH   3  24
TORSDOF 4
ENDMDL
MODEL 2
REMARK VINA RESULT:      -7.5      1.396      2.609
REMARK  4 active torsions:
REMARK  status: ('A' for Active; 'I' for Inactive)
REMARK    1  A    between atoms: C_2  and  N_3 
REMARK    2  A    between atoms: N_4  and  C_15 
REMARK    3  A    between atoms: C_15  and  C_19 
REMARK    4  A    between atoms: C_19  and  O_27 
ROOT
HETATM    1  C   UNL     1     -41.954 -49.315  12.677  1.00  0.00     0.117 A 
HETATM    2  C   UNL     1     -41.160 -48.512  11.819  1.00  0.00     0.115 A 
HETATM    3  N   UNL     1     -42.481 -51.177  13.695  1.00  0.00    -0.324 N 
HETATM    4  C   UNL     1     -41.552 -50.627  12.858  1.00  0.00     0.140 A 
HETATM    5  N   UNL     1     -43.110 -49.064  13.394  1.00  0.00    -0.346 N 
ATOM      6  HN  UNL     1     -43.635 -48.191  13.438  1.00  0.00     0.167 HD
HETATM    7  C   UNL     1     -43.386 -50.196  14.007  1.00  0.00     0.185 A 
HETATM    8  N   UNL     1     -40.052 -49.093  11.275  1.00  0.00    -0.341 N 
ATOM      9  HN  UNL     1     -39.431 -48.555  10.672  1.00  0.00     0.167 HD
HETATM   10  N   UNL     1     -40.486 -51.241  12.318  1.00  0.00    -0.336 N 
ATOM     11  HN  UNL     1     -40.240 -52.218  12.474  1.00  0.00     0.168 HD
HETATM   12  C   UNL     1     -39.790 -50.389  11.544  1.00  0.00     0.183 A 
ENDROOT
BRANCH   2  13
HETATM   13  N   UNL     1     -41.512 -47.202  11.499  1.00  0.00    -0.257 NA
HETATM   14  C   UNL     1     -42.243 -46.988  10.225  1.00  0.00     0.122 C 
HETATM   15  C   UNL     1     -43.479 -47.901  10.032  1.00  0.00     0.294 C 
HETATM   16  C   UNL     1     -42.723 -45.510  10.247  1.00  0.00     0.143 C 
HETATM   17  N   UNL     1     -44.302 -47.575   8.848  1.00  0.00     0.086 N 
HETATM   18  C   UNL     1     -44.737 -46.174   8.893  1.00  0.00     0.274 C 
HETATM   19  C   UNL     1     -43.612 -47.901   7.599  1.00  0.00     0.310 C 
HETATM   20  C   UNL     1     -43.593 -45.174   9.041  1.00  0.00     0.064 C 
HETATM   21  O   UNL     1     -41.589 -44.615  10.270  1.00  0.00    -0.383 OA
HETATM   22  C   UNL     1     -40.801 -44.840  11.455  1.00  0.00     0.183 C 
HETATM   23  C   UNL     1     -40.337 -46.304  11.579  1.00  0.00     0.124 C 
ENDBRANCH   2  13
BRANCH   3  24
HETATM   24  C   UNL     1     -42.409 -52.499  14.279  1.00  0.00     0.169 C 
BRANCH  24  25
HETATM   25  C   UNL     1     -42.753 -53.681  13.339  1.00  0.00     0.078 C 
HETATM   26  C   UNL     1     -43.742 -53.183  12.267  1.00  0.00     0.066 C 
HETATM   27  C   UNL     1     -45.162 -53.093  12.802  1.00  0.00     0.170 C 
HETATM   28  O   UNL     1     -45.580 -54.374  13.260  1.00  0.00    -0.391 OA
HETATM   29  C   UNL     1     -44.809 -54.836  14.368  1.00  0.00     0.170 C 
HETATM   30  C   UNL     1     -43.328 -54.938  14.020  1.00  0.00     0.066 C 
BRANCH  25  31
HETATM   31  O   UNL     1     -41.547 -54.039  12.639  1.00  0.00    -0.388 OA
HETATM   32  H   UNL     1     -41.625 -53.750  11.712  1.00  0.00     0.210 HD
ENDBRANCH  25  31
ENDBRANCH  24  25
ENDBRANCH   3  24
TORSDOF 4
ENDMDL
MODEL 3
REMARK VINA RESULT:      -7.0      3.557      7.557
REMARK  4 active torsions:
REMARK  status: ('A' for Active; 'I' for Inactive)
REMARK    1  A    between atoms: C_2  and  N_3 
REMARK    2  A    between atoms: N_4  and  C_15 
REMARK    3  A    between atoms: C_15  and  C_19 
REMARK    4  A    between atoms: C_19  and  O_27 
ROOT
HETATM    1  C   UNL     1     -42.636 -51.948  13.004  1.00  0.00     0.117 A 
HETATM    2  C   UNL     1     -42.959 -53.216  13.550  1.00  0.00     0.115 A 
HETATM    3  N   UNL     1     -41.343 -50.531  11.956  1.00  0.00    -0.324 N 
HETATM    4  C   UNL     1     -41.414 -51.833  12.364  1.00  0.00     0.140 A 
HETATM    5  N   UNL     1     -43.304 -50.736  12.985  1.00  0.00    -0.346 N 
ATOM      6  HN  UNL     1     -44.216 -50.525  13.389  1.00  0.00     0.167 HD
HETATM    7  C   UNL     1     -42.508 -49.915  12.332  1.00  0.00     0.185 A 
HETATM    8  N   UNL     1     -42.052 -54.218  13.369  1.00  0.00    -0.341 N 
ATOM      9  HN  UNL     1     -42.244 -55.157  13.717  1.00  0.00     0.167 HD
HETATM   10  N   UNL     1     -40.486 -52.787  12.191  1.00  0.00    -0.336 N 
ATOM     11  HN  UNL     1     -39.591 -52.647  11.721  1.00  0.00     0.168 HD
HETATM   12  C   UNL     1     -40.898 -53.953  12.723  1.00  0.00     0.183 A 
ENDROOT
BRANCH   2  13
HETATM   13  N   UNL     1     -44.124 -53.429  14.285  1.00  0.00    -0.257 NA
HETATM   14  C   UNL     1     -43.982 -53.572  15.756  1.00  0.00     0.122 C 
HETATM   15  C   UNL     1     -43.159 -52.451  16.434  1.00  0.00     0.294 C 
HETATM   16  C   UNL     1     -45.425 -53.541  16.332  1.00  0.00     0.143 C 
HETATM   17  N   UNL     1     -43.159 -52.499  17.912  1.00  0.00     0.086 N 
HETATM   18  C   UNL     1     -44.533 -52.473  18.428  1.00  0.00     0.274 C 
HETATM   19  C   UNL     1     -42.400 -53.643  18.418  1.00  0.00     0.310 C 
HETATM   20  C   UNL     1     -45.431 -53.567  17.857  1.00  0.00     0.064 C 
HETATM   21  O   UNL     1     -46.186 -54.667  15.842  1.00  0.00    -0.383 OA
HETATM   22  C   UNL     1     -46.285 -54.615  14.406  1.00  0.00     0.183 C 
HETATM   23  C   UNL     1     -44.903 -54.558  13.726  1.00  0.00     0.124 C 
ENDBRANCH   2  13
BRANCH   3  24
HETATM   24  C   UNL     1     -40.301 -49.968  11.122  1.00  0.00     0.169 C 
BRANCH  24  25
HETATM   25  C   UNL     1     -39.266 -49.066  11.839  1.00  0.00     0.078 C 
HETATM   26  C   UNL     1     -37.851 -49.547  11.462  1.00  0.00     0.066 C 
HETATM   27  C   UNL     1     -37.441 -50.779  12.252  1.00  0.00     0.170 C 
HETATM   28  O   UNL     1     -37.476 -50.487  13.644  1.00  0.00    -0.391 OA
HETATM   29  C   UNL     1     -38.792 -50.188  14.106  1.00  0.00     0.170 C 
HETATM   30  C   UNL     1     -39.387 -48.991  13.374  1.00  0.00     0.066 C 
BRANCH  25  31
HETATM   31  O   UNL     1     -39.400 -47.740  11.295  1.00  0.00    -0.388 OA
HETATM   32  H   UNL     1     -39.467 -47.805  10.325  1.00  0.00     0.210 HD
ENDBRANCH  25  31
ENDBRANCH  24  25
ENDBRANCH   3  24
TORSDOF 4
ENDMDL
MODEL 4
REMARK VINA RESULT:      -6.9      2.617      3.666
REMARK  4 active torsions:
REMARK  status: ('A' for Active; 'I' for Inactive)
REMARK    1  A    between atoms: C_2  and  N_3 
REMARK    2  A    between atoms: N_4  and  C_15 
REMARK    3  A    between atoms: C_15  and  C_19 
REMARK    4  A    between atoms: C_19  and  O_27 
ROOT
HETATM    1  C   UNL     1     -41.940 -50.130  13.703  1.00  0.00     0.117 A 
HETATM    2  C   UNL     1     -40.618 -49.801  13.310  1.00  0.00     0.115 A 
HETATM    3  N   UNL     1     -43.834 -51.208  13.524  1.00  0.00    -0.324 N 
HETATM    4  C   UNL     1     -42.594 -51.097  12.960  1.00  0.00     0.140 A 
HETATM    5  N   UNL     1     -42.765 -49.658  14.709  1.00  0.00    -0.346 N 
ATOM      6  HN  UNL     1     -42.552 -48.938  15.399  1.00  0.00     0.167 HD
HETATM    7  C   UNL     1     -43.885 -50.340  14.583  1.00  0.00     0.185 A 
HETATM    8  N   UNL     1     -40.096 -50.490  12.255  1.00  0.00    -0.341 N 
ATOM      9  HN  UNL     1     -39.140 -50.314  11.945  1.00  0.00     0.167 HD
HETATM   10  N   UNL     1     -42.124 -51.775  11.900  1.00  0.00    -0.336 N 
ATOM     11  HN  UNL     1     -42.653 -52.472  11.377  1.00  0.00     0.168 HD
HETATM   12  C   UNL     1     -40.859 -51.407  11.625  1.00  0.00     0.183 A 
ENDROOT
BRANCH   2  13
HETATM   13  N   UNL     1     -39.893 -48.787  13.933  1.00  0.00    -0.257 NA
HETATM   14  C   UNL     1     -39.669 -47.540  13.160  1.00  0.00     0.122 C 
HETATM   15  C   UNL     1     -40.949 -46.931  12.538  1.00  0.00     0.294 C 
HETATM   16  C   UNL     1     -39.073 -46.513  14.163  1.00  0.00     0.143 C 
HETATM   17  N   UNL     1     -40.755 -45.605  11.914  1.00  0.00     0.086 N 
HETATM   18  C   UNL     1     -40.189 -44.658  12.881  1.00  0.00     0.274 C 
HETATM   19  C   UNL     1     -39.956 -45.691  10.691  1.00  0.00     0.310 C 
HETATM   20  C   UNL     1     -38.894 -45.137  13.533  1.00  0.00     0.064 C 
HETATM   21  O   UNL     1     -37.795 -46.973  14.653  1.00  0.00    -0.383 OA
HETATM   22  C   UNL     1     -37.948 -48.228  15.346  1.00  0.00     0.183 C 
HETATM   23  C   UNL     1     -38.611 -49.305  14.465  1.00  0.00     0.124 C 
ENDBRANCH   2  13
BRANCH   3  24
HETATM   24  C   UNL     1     -44.833 -52.194  13.170  1.00  0.00     0.169 C 
BRANCH  24  25
HETATM   25  C   UNL     1     -44.451 -53.674  13.424  1.00  0.00     0.078 C 
HETATM   26  C   UNL     1     -45.732 -54.460  13.769  1.00  0.00     0.066 C 
HETATM   27  C   UNL     1     -46.161 -54.242  15.210  1.00  0.00     0.170 C 
HETATM   28  O   UNL     1     -45.116 -54.650  16.086  1.00  0.00    -0.391 OA
HETATM   29  C   UNL     1     -43.940 -53.856  15.939  1.00  0.00     0.170 C 
HETATM   30  C   UNL     1     -43.393 -53.918  14.518  1.00  0.00     0.066 C 
BRANCH  25  31
HETATM   31  O   UNL     1     -43.969 -54.214  12.180  1.00  0.00    -0.388 OA
HETATM   32  H   UNL     1     -44.546 -54.953  11.915  1.00  0.00     0.210 HD
ENDBRANCH  25  31
ENDBRANCH  24  25
ENDBRANCH   3  24
TORSDOF 4
ENDMDL
MODEL 5
REMARK VINA RESULT:      -6.8      2.129      3.001
REMARK  4 active torsions:
REMARK  status: ('A' for Active; 'I' for Inactive)
REMARK    1  A    between atoms: C_2  and  N_3 
REMARK    2  A    between atoms: N_4  and  C_15 
REMARK    3  A    between atoms: C_15  and  C_19 
REMARK    4  A    between atoms: C_19  and  O_27 
ROOT
HETATM    1  C   UNL     1     -41.714 -50.176  12.159  1.00  0.00     0.117 A 
HETATM    2  C   UNL     1     -42.360 -48.920  12.288  1.00  0.00     0.115 A 
HETATM    3  N   UNL     1     -41.157 -52.179  12.835  1.00  0.00    -0.324 N 
HETATM    4  C   UNL     1     -41.886 -51.080  13.192  1.00  0.00     0.140 A 
HETATM    5  N   UNL     1     -40.894 -50.714  11.182  1.00  0.00    -0.346 N 
ATOM      6  HN  UNL     1     -40.588 -50.271  10.317  1.00  0.00     0.167 HD
HETATM    7  C   UNL     1     -40.595 -51.923  11.612  1.00  0.00     0.185 A 
HETATM    8  N   UNL     1     -43.120 -48.727  13.404  1.00  0.00    -0.341 N 
ATOM      9  HN  UNL     1     -43.628 -47.853  13.536  1.00  0.00     0.167 HD
HETATM   10  N   UNL     1     -42.602 -50.915  14.316  1.00  0.00    -0.336 N 
ATOM     11  HN  UNL     1     -42.688 -51.611  15.057  1.00  0.00     0.168 HD
HETATM   12  C   UNL     1     -43.191 -49.705  14.330  1.00  0.00     0.183 A 
ENDROOT
BRANCH   2  13
HETATM   13  N   UNL     1     -42.192 -47.904  11.349  1.00  0.00    -0.257 NA
HETATM   14  C   UNL     1     -41.644 -46.613  11.838  1.00  0.00     0.122 C 
HETATM   15  C   UNL     1     -40.348 -46.741  12.675  1.00  0.00     0.294 C 
HETATM   16  C   UNL     1     -41.329 -45.772  10.569  1.00  0.00     0.143 C 
HETATM   17  N   UNL     1     -39.711 -45.452  13.017  1.00  0.00     0.086 N 
HETATM   18  C   UNL     1     -39.429 -44.678  11.803  1.00  0.00     0.274 C 
HETATM   19  C   UNL     1     -40.504 -44.693  13.985  1.00  0.00     0.310 C 
HETATM   20  C   UNL     1     -40.650 -44.452  10.914  1.00  0.00     0.064 C 
HETATM   21  O   UNL     1     -42.543 -45.496   9.835  1.00  0.00    -0.383 OA
HETATM   22  C   UNL     1     -43.157 -46.728   9.407  1.00  0.00     0.183 C 
HETATM   23  C   UNL     1     -43.440 -47.681  10.584  1.00  0.00     0.124 C 
ENDBRANCH   2  13
BRANCH   3  24
HETATM   24  C   UNL     1     -41.139 -53.442  13.543  1.00  0.00     0.169 C 
BRANCH  24  25
HETATM   25  C   UNL     1     -39.821 -53.794  14.277  1.00  0.00     0.078 C 
HETATM   26  C   UNL     1     -40.142 -54.775  15.422  1.00  0.00     0.066 C 
HETATM   27  C   UNL     1     -40.718 -54.063  16.635  1.00  0.00     0.170 C 
HETATM   28  O   UNL     1     -39.790 -53.091  17.103  1.00  0.00    -0.391 OA
HETATM   29  C   UNL     1     -39.562 -52.052  16.152  1.00  0.00     0.170 C 
HETATM   30  C   UNL     1     -39.022 -52.601  14.836  1.00  0.00     0.066 C 
BRANCH  25  31
HETATM   31  O   UNL     1     -38.991 -54.517  13.348  1.00  0.00    -0.388 OA
HETATM   32  H   UNL     1     -39.220 -54.240  12.443  1.00  0.00     0.210 HD
ENDBRANCH  25  31
ENDBRANCH  24  25
ENDBRANCH   3  24
TORSDOF 4
ENDMDL
MODEL 6
REMARK VINA RESULT:      -6.8      2.142      7.990
REMARK  4 active torsions:
REMARK  status: ('A' for Active; 'I' for Inactive)
REMARK    1  A    between atoms: C_2  and  N_3 
REMARK    2  A    between atoms: N_4  and  C_15 
REMARK    3  A    between atoms: C_15  and  C_19 
REMARK    4  A    between atoms: C_19  and  O_27 
ROOT
HETATM    1  C   UNL     1     -42.172 -48.804  12.129  1.00  0.00     0.117 A 
HETATM    2  C   UNL     1     -42.253 -49.794  13.142  1.00  0.00     0.115 A 
HETATM    3  N   UNL     1     -42.160 -46.748  11.389  1.00  0.00    -0.324 N 
HETATM    4  C   UNL     1     -42.238 -47.484  12.537  1.00  0.00     0.140 A 
HETATM    5  N   UNL     1     -42.053 -48.877  10.753  1.00  0.00    -0.346 N 
ATOM      6  HN  UNL     1     -41.996 -49.717  10.179  1.00  0.00     0.167 HD
HETATM    7  C   UNL     1     -42.030 -47.625  10.344  1.00  0.00     0.185 A 
HETATM    8  N   UNL     1     -42.355 -49.358  14.430  1.00  0.00    -0.341 N 
ATOM      9  HN  UNL     1     -42.390 -50.025  15.200  1.00  0.00     0.167 HD
HETATM   10  N   UNL     1     -42.366 -47.016  13.789  1.00  0.00    -0.336 N 
ATOM     11  HN  UNL     1     -42.423 -46.029  14.037  1.00  0.00     0.168 HD
HETATM   12  C   UNL     1     -42.410 -48.031  14.672  1.00  0.00     0.183 A 
ENDROOT
BRANCH   2  13
HETATM   13  N   UNL     1     -42.279 -51.156  12.842  1.00  0.00    -0.257 NA
HETATM   14  C   UNL     1     -43.281 -51.988  13.555  1.00  0.00     0.122 C 
HETATM   15  C   UNL     1     -44.726 -51.437  13.506  1.00  0.00     0.294 C 
HETATM   16  C   UNL     1     -43.260 -53.377  12.858  1.00  0.00     0.143 C 
HETATM   17  N   UNL     1     -45.748 -52.346  14.067  1.00  0.00     0.086 N 
HETATM   18  C   UNL     1     -45.703 -53.649  13.394  1.00  0.00     0.274 C 
HETATM   19  C   UNL     1     -45.627 -52.470  15.520  1.00  0.00     0.310 C 
HETATM   20  C   UNL     1     -44.328 -54.311  13.415  1.00  0.00     0.064 C 
HETATM   21  O   UNL     1     -41.966 -53.999  13.015  1.00  0.00    -0.383 OA
HETATM   22  C   UNL     1     -40.944 -53.185  12.406  1.00  0.00     0.183 C 
HETATM   23  C   UNL     1     -40.928 -51.750  12.967  1.00  0.00     0.124 C 
ENDBRANCH   2  13
BRANCH   3  24
HETATM   24  C   UNL     1     -42.053 -45.305  11.320  1.00  0.00     0.169 C 
BRANCH  24  25
HETATM   25  C   UNL     1     -40.651 -44.740  10.982  1.00  0.00     0.078 C 
HETATM   26  C   UNL     1     -39.606 -45.461  11.856  1.00  0.00     0.066 C 
HETATM   27  C   UNL     1     -39.572 -44.910  13.272  1.00  0.00     0.170 C 
HETATM   28  O   UNL     1     -39.267 -43.520  13.235  1.00  0.00    -0.391 OA
HETATM   29  C   UNL     1     -40.277 -42.757  12.578  1.00  0.00     0.170 C 
HETATM   30  C   UNL     1     -40.484 -43.216  11.139  1.00  0.00     0.066 C 
BRANCH  25  31
HETATM   31  O   UNL     1     -40.358 -45.104   9.620  1.00  0.00    -0.388 OA
HETATM   32  H   UNL     1     -40.266 -46.073   9.567  1.00  0.00     0.210 HD
ENDBRANCH  25  31
ENDBRANCH  24  25
ENDBRANCH   3  24
TORSDOF 4
ENDMDL
MODEL 7
REMARK VINA RESULT:      -6.6      1.711      2.256
REMARK  4 active torsions:
REMARK  status: ('A' for Active; 'I' for Inactive)
REMARK    1  A    between atoms: C_2  and  N_3 
REMARK    2  A    between atoms: N_4  and  C_15 
REMARK    3  A    between atoms: C_15  and  C_19 
REMARK    4  A    between atoms: C_19  and  O_27 
ROOT
HETATM    1  C   UNL     1     -42.245 -49.535  12.596  1.00  0.00     0.117 A 
HETATM    2  C   UNL     1     -41.474 -49.264  11.437  1.00  0.00     0.115 A 
HETATM    3  N   UNL     1     -43.029 -50.825  14.177  1.00  0.00    -0.324 N 
HETATM    4  C   UNL     1     -42.199 -50.826  13.091  1.00  0.00     0.140 A 
HETATM    5  N   UNL     1     -43.088 -48.754  13.367  1.00  0.00    -0.346 N 
ATOM      6  HN  UNL     1     -43.320 -47.771  13.230  1.00  0.00     0.167 HD
HETATM    7  C   UNL     1     -43.525 -49.556  14.316  1.00  0.00     0.185 A 
HETATM    8  N   UNL     1     -40.730 -50.289  10.933  1.00  0.00    -0.341 N 
ATOM      9  HN  UNL     1     -40.136 -50.144  10.117  1.00  0.00     0.167 HD
HETATM   10  N   UNL     1     -41.502 -51.867  12.608  1.00  0.00    -0.336 N 
ATOM     11  HN  UNL     1     -41.512 -52.807  13.004  1.00  0.00     0.168 HD
HETATM   12  C   UNL     1     -40.789 -51.499  11.527  1.00  0.00     0.183 A 
ENDROOT
BRANCH   2  13
HETATM   13  N   UNL     1     -41.506 -48.022  10.803  1.00  0.00    -0.257 NA
HETATM   14  C   UNL     1     -41.177 -46.832  11.627  1.00  0.00     0.122 C 
HETATM   15  C   UNL     1     -39.859 -46.950  12.430  1.00  0.00     0.294 C 
HETATM   16  C   UNL     1     -41.041 -45.645  10.632  1.00  0.00     0.143 C 
HETATM   17  N   UNL     1     -39.444 -45.708  13.114  1.00  0.00     0.086 N 
HETATM   18  C   UNL     1     -39.329 -44.605  12.154  1.00  0.00     0.274 C 
HETATM   19  C   UNL     1     -40.333 -45.379  14.230  1.00  0.00     0.310 C 
HETATM   20  C   UNL     1     -40.591 -44.366  11.328  1.00  0.00     0.064 C 
HETATM   21  O   UNL     1     -42.301 -45.399   9.970  1.00  0.00    -0.383 OA
HETATM   22  C   UNL     1     -42.704 -46.560   9.218  1.00  0.00     0.183 C 
HETATM   23  C   UNL     1     -42.792 -47.824  10.095  1.00  0.00     0.124 C 
ENDBRANCH   2  13
BRANCH   3  24
HETATM   24  C   UNL     1     -43.201 -51.924  15.104  1.00  0.00     0.169 C 
BRANCH  24  25
HETATM   25  C   UNL     1     -44.597 -52.595  15.116  1.00  0.00     0.078 C 
HETATM   26  C   UNL     1     -44.409 -54.120  15.231  1.00  0.00     0.066 C 
HETATM   27  C   UNL     1     -44.034 -54.748  13.899  1.00  0.00     0.170 C 
HETATM   28  O   UNL     1     -45.050 -54.476  12.941  1.00  0.00    -0.391 OA
HETATM   29  C   UNL     1     -45.175 -53.084  12.657  1.00  0.00     0.170 C 
HETATM   30  C   UNL     1     -45.505 -52.281  13.911  1.00  0.00     0.066 C 
BRANCH  25  31
HETATM   31  O   UNL     1     -45.264 -52.179  16.323  1.00  0.00    -0.388 OA
HETATM   32  H   UNL     1     -45.599 -52.969  16.784  1.00  0.00     0.210 HD
ENDBRANCH  25  31
ENDBRANCH  24  25
ENDBRANCH   3  24
TORSDOF 4
ENDMDL
MODEL 8
REMARK VINA RESULT:      -6.5      2.206      8.277
REMARK  4 active torsions:
REMARK  status: ('A' for Active; 'I' for Inactive)
REMARK    1  A    between atoms: C_2  and  N_3 
REMARK    2  A    between atoms: N_4  and  C_15 
REMARK    3  A    between atoms: C_15  and  C_19 
REMARK    4  A    between atoms: C_19  and  O_27 
ROOT
HETATM    1  C   UNL     1     -41.401 -47.224  12.016  1.00  0.00     0.117 A 
HETATM    2  C   UNL     1     -41.426 -48.415  11.246  1.00  0.00     0.115 A 
HETATM    3  N   UNL     1     -42.011 -45.180  12.494  1.00  0.00    -0.324 N 
HETATM    4  C   UNL     1     -42.240 -46.200  11.614  1.00  0.00     0.140 A 
HETATM    5  N   UNL     1     -40.672 -46.839  13.127  1.00  0.00    -0.346 N 
ATOM      6  HN  UNL     1     -39.971 -47.385  13.628  1.00  0.00     0.167 HD
HETATM    7  C   UNL     1     -41.077 -45.616  13.397  1.00  0.00     0.185 A 
HETATM    8  N   UNL     1     -42.298 -48.458  10.198  1.00  0.00    -0.341 N 
ATOM      9  HN  UNL     1     -42.377 -49.299   9.627  1.00  0.00     0.167 HD
HETATM   10  N   UNL     1     -43.090 -46.195  10.574  1.00  0.00    -0.336 N 
ATOM     11  HN  UNL     1     -43.680 -45.406  10.311  1.00  0.00     0.168 HD
HETATM   12  C   UNL     1     -43.054 -47.374   9.927  1.00  0.00     0.183 A 
ENDROOT
BRANCH   2  13
HETATM   13  N   UNL     1     -40.567 -49.482  11.508  1.00  0.00    -0.257 NA
HETATM   14  C   UNL     1     -40.900 -50.352  12.664  1.00  0.00     0.122 C 
HETATM   15  C   UNL     1     -42.359 -50.868  12.681  1.00  0.00     0.294 C 
HETATM   16  C   UNL     1     -39.946 -51.576  12.569  1.00  0.00     0.143 C 
HETATM   17  N   UNL     1     -42.644 -51.867  13.733  1.00  0.00     0.086 N 
HETATM   18  C   UNL     1     -41.727 -53.007  13.622  1.00  0.00     0.274 C 
HETATM   19  C   UNL     1     -42.624 -51.269  15.069  1.00  0.00     0.310 C 
HETATM   20  C   UNL     1     -40.251 -52.620  13.637  1.00  0.00     0.064 C 
HETATM   21  O   UNL     1     -38.572 -51.153  12.706  1.00  0.00    -0.383 OA
HETATM   22  C   UNL     1     -38.223 -50.240  11.647  1.00  0.00     0.183 C 
HETATM   23  C   UNL     1     -39.162 -49.019  11.594  1.00  0.00     0.124 C 
ENDBRANCH   2  13
BRANCH   3  24
HETATM   24  C   UNL     1     -42.757 -43.941  12.557  1.00  0.00     0.169 C 
BRANCH  24  25
HETATM   25  C   UNL     1     -42.425 -42.888  11.471  1.00  0.00     0.078 C 
HETATM   26  C   UNL     1     -40.905 -42.907  11.217  1.00  0.00     0.066 C 
HETATM   27  C   UNL     1     -40.140 -42.152  12.293  1.00  0.00     0.170 C 
HETATM   28  O   UNL     1     -40.587 -40.802  12.336  1.00  0.00    -0.391 OA
HETATM   29  C   UNL     1     -41.955 -40.692  12.726  1.00  0.00     0.170 C 
HETATM   30  C   UNL     1     -42.874 -41.445  11.771  1.00  0.00     0.066 C 
BRANCH  25  31
HETATM   31  O   UNL     1     -43.043 -43.324  10.246  1.00  0.00    -0.388 OA
HETATM   32  H   UNL     1     -43.996 -43.451  10.403  1.00  0.00     0.210 HD
ENDBRANCH  25  31
ENDBRANCH  24  25
ENDBRANCH   3  24
TORSDOF 4
ENDMDL
MODEL 9
REMARK VINA RESULT:      -6.5      2.600      8.339
REMARK  4 active torsions:
REMARK  status: ('A' for Active; 'I' for Inactive)
REMARK    1  A    between atoms: C_2  and  N_3 
REMARK    2  A    between atoms: N_4  and  C_15 
REMARK    3  A    between atoms: C_15  and  C_19 
REMARK    4  A    between atoms: C_19  and  O_27 
ROOT
HETATM    1  C   UNL     1     -39.846 -46.698  12.002  1.00  0.00     0.117 A 
HETATM    2  C   UNL     1     -39.424 -47.642  12.973  1.00  0.00     0.115 A 
HETATM    3  N   UNL     1     -40.524 -44.728  11.341  1.00  0.00    -0.324 N 
HETATM    4  C   UNL     1     -40.128 -45.420  12.451  1.00  0.00     0.140 A 
HETATM    5  N   UNL     1     -40.063 -46.787  10.638  1.00  0.00    -0.346 N 
ATOM      6  HN  UNL     1     -39.948 -47.608  10.044  1.00  0.00     0.167 HD
HETATM    7  C   UNL     1     -40.450 -45.583  10.273  1.00  0.00     0.185 A 
HETATM    8  N   UNL     1     -39.302 -47.199  14.257  1.00  0.00    -0.341 N 
ATOM      9  HN  UNL     1     -38.977 -47.827  14.991  1.00  0.00     0.167 HD
HETATM   10  N   UNL     1     -40.047 -44.955  13.708  1.00  0.00    -0.336 N 
ATOM     11  HN  UNL     1     -40.280 -44.003  13.990  1.00  0.00     0.168 HD
HETATM   12  C   UNL     1     -39.617 -45.919  14.543  1.00  0.00     0.183 A 
ENDROOT
BRANCH   2  13
HETATM   13  N   UNL     1     -39.190 -48.978  12.651  1.00  0.00    -0.257 NA
HETATM   14  C   UNL     1     -40.192 -49.972  13.111  1.00  0.00     0.122 C 
HETATM   15  C   UNL     1     -41.657 -49.621  12.756  1.00  0.00     0.294 C 
HETATM   16  C   UNL     1     -39.823 -51.310  12.411  1.00  0.00     0.143 C 
HETATM   17  N   UNL     1     -42.634 -50.686  13.063  1.00  0.00     0.086 N 
HETATM   18  C   UNL     1     -42.260 -51.937  12.393  1.00  0.00     0.274 C 
HETATM   19  C   UNL     1     -42.811 -50.863  14.505  1.00  0.00     0.310 C 
HETATM   20  C   UNL     1     -40.841 -52.407  12.703  1.00  0.00     0.064 C 
HETATM   21  O   UNL     1     -38.518 -51.757  12.837  1.00  0.00    -0.383 OA
HETATM   22  C   UNL     1     -37.517 -50.784  12.481  1.00  0.00     0.183 C 
HETATM   23  C   UNL     1     -37.826 -49.389  13.058  1.00  0.00     0.124 C 
ENDBRANCH   2  13
BRANCH   3  24
HETATM   24  C   UNL     1     -40.795 -43.306  11.290  1.00  0.00     0.169 C 
BRANCH  24  25
HETATM   25  C   UNL     1     -42.275 -42.887  11.472  1.00  0.00     0.078 C 
HETATM   26  C   UNL     1     -42.427 -41.417  11.032  1.00  0.00     0.066 C 
HETATM   27  C   UNL     1     -41.940 -40.451  12.100  1.00  0.00     0.170 C 
HETATM   28  O   UNL     1     -42.678 -40.655  13.299  1.00  0.00    -0.391 OA
HETATM   29  C   UNL     1     -42.461 -41.949  13.861  1.00  0.00     0.170 C 
HETATM   30  C   UNL     1     -42.853 -43.057  12.891  1.00  0.00     0.066 C 
BRANCH  25  31
HETATM   31  O   UNL     1     -43.060 -43.666  10.551  1.00  0.00    -0.388 OA
HETATM   32  H   UNL     1     -43.647 -43.068  10.055  1.00  0.00     0.210 HD
ENDBRANCH  25  31
ENDBRANCH  24  25
ENDBRANCH   3  24
TORSDOF 4
ENDMDL
