MODEL 1
REMARK VINA RESULT:      -6.3      0.000      0.000
REMARK  2 active torsions:
REMARK  status: ('A' for Active; 'I' for Inactive)
REMARK    1  A    between atoms: C_7  and  N_8 
REMARK       I    between atoms: N_8  and  C_9 
REMARK       I    between atoms: C_9  and  N_11 
REMARK    2  A    between atoms: N_11  and  C_12 
ROOT
HETATM    1  N   UNL     1     -40.446 -49.249  10.716  1.00  0.00    -0.338 N 
HETATM    2  C   UNL     1     -41.573 -48.454  10.718  1.00  0.00     0.322 C 
HETATM    3  O   UNL     1     -42.141 -48.120  11.754  1.00  0.00    -0.247 OA
HETATM    4  N   UNL     1     -41.995 -48.155   9.448  1.00  0.00    -0.295 N 
HETATM    5  H   UNL     1     -39.803 -49.095   9.952  1.00  0.00     0.164 HD
HETATM    6  H   UNL     1     -41.884 -48.902   8.780  1.00  0.00     0.172 HD
ENDROOT
BRANCH   1   7
HETATM    7  C   UNL     1     -39.916 -49.749  11.979  1.00  0.00     0.089 C 
HETATM    8  C   UNL     1     -38.426 -49.393  12.201  1.00  0.00     0.004 C 
HETATM    9  C   UNL     1     -37.499 -49.934  11.107  1.00  0.00     0.012 C 
HETATM   10  C   UNL     1     -37.989 -49.885  13.592  1.00  0.00     0.006 C 
HETATM   11  C   UNL     1     -38.266 -51.371  13.810  1.00  0.00     0.001 C 
HETATM   12  C   UNL     1     -39.719 -51.738  13.514  1.00  0.00     0.002 C 
HETATM   13  C   UNL     1     -40.179 -51.250  12.141  1.00  0.00     0.026 C 
ENDBRANCH   1   7
BRANCH   4  14
HETATM   14  C   UNL     1     -43.178 -47.433   9.235  1.00  0.00     0.108 A 
HETATM   15  C   UNL     1     -43.162 -46.068   8.964  1.00  0.00     0.049 A 
HETATM   16  C   UNL     1     -44.372 -45.389   8.870  1.00  0.00     0.005 A 
HETATM   17  C   UNL     1     -45.555 -46.090   9.059  1.00  0.00     0.017 A 
HETATM   18  C   UNL     1     -45.476 -47.455   9.282  1.00  0.00     0.089 A 
HETATM   19  N   UNL     1     -44.316 -48.149   9.339  1.00  0.00    -0.352 N 
ATOM     20  HN  UNL     1     -44.303 -49.162   9.453  1.00  0.00     0.166 HD
ENDBRANCH   4  14
TORSDOF 2
ENDMDL
MODEL 2
REMARK VINA RESULT:      -5.8      2.977      4.407
REMARK  2 active torsions:
REMARK  status: ('A' for Active; 'I' for Inactive)
REMARK    1  A    between atoms: C_7  and  N_8 
REMARK       I    between atoms: N_8  and  C_9 
REMARK       I    between atoms: C_9  and  N_11 
REMARK    2  A    between atoms: N_11  and  C_12 
ROOT
HETATM    1  N   UNL     1     -42.221 -51.669  11.951  1.00  0.00    -0.338 N 
HETATM    2  C   UNL     1     -41.961 -50.327  12.131  1.00  0.00     0.322 C 
HETATM    3  O   UNL     1     -42.132 -49.762  13.207  1.00  0.00    -0.247 OA
HETATM    4  N   UNL     1     -41.564 -49.719  10.968  1.00  0.00    -0.295 N 
HETATM    5  H   UNL     1     -41.651 -52.137  11.260  1.00  0.00     0.164 HD
HETATM    6  H   UNL     1     -42.027 -50.054  10.137  1.00  0.00     0.172 HD
ENDROOT
BRANCH   1   7
HETATM    7  C   UNL     1     -42.752 -52.454  13.059  1.00  0.00     0.089 C 
HETATM    8  C   UNL     1     -41.656 -53.182  13.874  1.00  0.00     0.004 C 
HETATM    9  C   UNL     1     -40.811 -54.148  13.035  1.00  0.00     0.012 C 
HETATM   10  C   UNL     1     -42.306 -53.905  15.066  1.00  0.00     0.006 C 
HETATM   11  C   UNL     1     -43.433 -54.846  14.647  1.00  0.00     0.001 C 
HETATM   12  C   UNL     1     -44.475 -54.148  13.776  1.00  0.00     0.002 C 
HETATM   13  C   UNL     1     -43.851 -53.413  12.590  1.00  0.00     0.026 C 
ENDBRANCH   1   7
BRANCH   4  14
HETATM   14  C   UNL     1     -41.341 -48.335  10.920  1.00  0.00     0.108 A 
HETATM   15  C   UNL     1     -42.276 -47.463  10.371  1.00  0.00     0.049 A 
HETATM   16  C   UNL     1     -41.949 -46.116  10.254  1.00  0.00     0.005 A 
HETATM   17  C   UNL     1     -40.699 -45.686  10.678  1.00  0.00     0.017 A 
HETATM   18  C   UNL     1     -39.849 -46.618  11.251  1.00  0.00     0.089 A 
HETATM   19  N   UNL     1     -40.155 -47.925  11.415  1.00  0.00    -0.352 N 
ATOM     20  HN  UNL     1     -39.521 -48.569  11.888  1.00  0.00     0.166 HD
ENDBRANCH   4  14
TORSDOF 2
ENDMDL
MODEL 3
REMARK VINA RESULT:      -5.7      4.400      6.768
REMARK  2 active torsions:
REMARK  status: ('A' for Active; 'I' for Inactive)
REMARK    1  A    between atoms: C_7  and  N_8 
REMARK       I    between atoms: N_8  and  C_9 
REMARK       I    between atoms: C_9  and  N_11 
REMARK    2  A    between atoms: N_11  and  C_12 
ROOT
HETATM    1  N   UNL     1     -43.771 -51.567  12.599  1.00  0.00    -0.338 N 
HETATM    2  C   UNL     1     -42.471 -51.220  12.901  1.00  0.00     0.322 C 
HETATM    3  O   UNL     1     -42.023 -51.277  14.043  1.00  0.00    -0.247 OA
HETATM    4  N   UNL     1     -41.792 -50.758  11.803  1.00  0.00    -0.295 N 
HETATM    5  H   UNL     1     -43.920 -51.938  11.671  1.00  0.00     0.164 HD
HETATM    6  H   UNL     1     -42.345 -50.203  11.167  1.00  0.00     0.172 HD
ENDROOT
BRANCH   1   7
HETATM    7  C   UNL     1     -44.670 -51.984  13.667  1.00  0.00     0.089 C 
HETATM    8  C   UNL     1     -45.949 -52.688  13.150  1.00  0.00     0.004 C 
HETATM    9  C   UNL     1     -46.785 -51.819  12.205  1.00  0.00     0.012 C 
HETATM   10  C   UNL     1     -46.784 -53.166  14.350  1.00  0.00     0.006 C 
HETATM   11  C   UNL     1     -47.103 -52.044  15.337  1.00  0.00     0.001 C 
HETATM   12  C   UNL     1     -45.849 -51.297  15.787  1.00  0.00     0.002 C 
HETATM   13  C   UNL     1     -44.996 -50.822  14.611  1.00  0.00     0.026 C 
ENDBRANCH   1   7
BRANCH   4  14
HETATM   14  C   UNL     1     -40.483 -50.268  11.920  1.00  0.00     0.108 A 
HETATM   15  C   UNL     1     -40.194 -48.916  11.765  1.00  0.00     0.049 A 
HETATM   16  C   UNL     1     -38.864 -48.508  11.784  1.00  0.00     0.005 A 
HETATM   17  C   UNL     1     -37.868 -49.463  11.948  1.00  0.00     0.017 A 
HETATM   18  C   UNL     1     -38.253 -50.780  12.138  1.00  0.00     0.089 A 
HETATM   19  N   UNL     1     -39.539 -51.199  12.164  1.00  0.00    -0.352 N 
ATOM     20  HN  UNL     1     -39.782 -52.170  12.358  1.00  0.00     0.166 HD
ENDBRANCH   4  14
TORSDOF 2
ENDMDL
MODEL 4
REMARK VINA RESULT:      -5.7      4.202      5.634
REMARK  2 active torsions:
REMARK  status: ('A' for Active; 'I' for Inactive)
REMARK    1  A    between atoms: C_7  and  N_8 
REMARK       I    between atoms: N_8  and  C_9 
REMARK       I    between atoms: C_9  and  N_11 
REMARK    2  A    between atoms: N_11  and  C_12 
ROOT
HETATM    1  N   UNL     1     -43.434 -51.450  12.761  1.00  0.00    -0.338 N 
HETATM    2  C   UNL     1     -42.908 -50.177  12.689  1.00  0.00     0.322 C 
HETATM    3  O   UNL     1     -43.222 -49.289  13.477  1.00  0.00    -0.247 OA
HETATM    4  N   UNL     1     -42.069 -50.026  11.616  1.00  0.00    -0.295 N 
HETATM    5  H   UNL     1     -42.830 -52.191  12.434  1.00  0.00     0.164 HD
HETATM    6  H   UNL     1     -42.354 -50.520  10.784  1.00  0.00     0.172 HD
ENDROOT
BRANCH   1   7
HETATM    7  C   UNL     1     -44.425 -51.761  13.783  1.00  0.00     0.089 C 
HETATM    8  C   UNL     1     -44.389 -53.239  14.241  1.00  0.00     0.004 C 
HETATM    9  C   UNL     1     -44.623 -54.238  13.102  1.00  0.00     0.012 C 
HETATM   10  C   UNL     1     -45.406 -53.444  15.377  1.00  0.00     0.006 C 
HETATM   11  C   UNL     1     -46.816 -52.992  14.999  1.00  0.00     0.001 C 
HETATM   12  C   UNL     1     -46.842 -51.559  14.472  1.00  0.00     0.002 C 
HETATM   13  C   UNL     1     -45.830 -51.329  13.349  1.00  0.00     0.026 C 
ENDBRANCH   1   7
BRANCH   4  14
HETATM   14  C   UNL     1     -41.504 -48.778  11.313  1.00  0.00     0.108 A 
HETATM   15  C   UNL     1     -40.218 -48.441  11.722  1.00  0.00     0.049 A 
HETATM   16  C   UNL     1     -39.756 -47.150  11.486  1.00  0.00     0.005 A 
HETATM   17  C   UNL     1     -40.595 -46.237  10.861  1.00  0.00     0.017 A 
HETATM   18  C   UNL     1     -41.845 -46.675  10.451  1.00  0.00     0.089 A 
HETATM   19  N   UNL     1     -42.305 -47.934  10.631  1.00  0.00    -0.352 N 
ATOM     20  HN  UNL     1     -43.210 -48.230  10.268  1.00  0.00     0.166 HD
ENDBRANCH   4  14
TORSDOF 2
ENDMDL
MODEL 5
REMARK VINA RESULT:      -5.6      1.633      2.466
REMARK  2 active torsions:
REMARK  status: ('A' for Active; 'I' for Inactive)
REMARK    1  A    between atoms: C_7  and  N_8 
REMARK       I    between atoms: N_8  and  C_9 
REMARK       I    between atoms: C_9  and  N_11 
REMARK    2  A    between atoms: N_11  and  C_12 
ROOT
HETATM    1  N   UNL     1     -40.609 -50.679  11.859  1.00  0.00    -0.338 N 
HETATM    2  C   UNL     1     -41.504 -49.665  11.591  1.00  0.00     0.322 C 
HETATM    3  O   UNL     1     -42.573 -49.556  12.185  1.00  0.00    -0.247 OA
HETATM    4  N   UNL     1     -41.082 -48.864  10.561  1.00  0.00    -0.295 N 
HETATM    5  H   UNL     1     -39.636 -50.455  11.709  1.00  0.00     0.164 HD
HETATM    6  H   UNL     1     -40.606 -49.350   9.816  1.00  0.00     0.172 HD
ENDROOT
BRANCH   1   7
HETATM    7  C   UNL     1     -40.943 -51.687  12.858  1.00  0.00     0.089 C 
HETATM    8  C   UNL     1     -40.051 -51.617  14.120  1.00  0.00     0.004 C 
HETATM    9  C   UNL     1     -38.557 -51.790  13.824  1.00  0.00     0.012 C 
HETATM   10  C   UNL     1     -40.538 -52.656  15.145  1.00  0.00     0.006 C 
HETATM   11  C   UNL     1     -40.610 -54.069  14.568  1.00  0.00     0.001 C 
HETATM   12  C   UNL     1     -41.425 -54.126  13.277  1.00  0.00     0.002 C 
HETATM   13  C   UNL     1     -40.965 -53.093  12.248  1.00  0.00     0.026 C 
ENDBRANCH   1   7
BRANCH   4  14
HETATM   14  C   UNL     1     -41.895 -47.830  10.074  1.00  0.00     0.108 A 
HETATM   15  C   UNL     1     -41.840 -46.546  10.606  1.00  0.00     0.049 A 
HETATM   16  C   UNL     1     -42.748 -45.594  10.155  1.00  0.00     0.005 A 
HETATM   17  C   UNL     1     -43.684 -45.956   9.196  1.00  0.00     0.017 A 
HETATM   18  C   UNL     1     -43.637 -47.246   8.692  1.00  0.00     0.089 A 
HETATM   19  N   UNL     1     -42.741 -48.181   9.083  1.00  0.00    -0.352 N 
ATOM     20  HN  UNL     1     -42.706 -49.103   8.650  1.00  0.00     0.166 HD
ENDBRANCH   4  14
TORSDOF 2
ENDMDL
MODEL 6
REMARK VINA RESULT:      -5.6      3.497      6.409
REMARK  2 active torsions:
REMARK  status: ('A' for Active; 'I' for Inactive)
REMARK    1  A    between atoms: C_7  and  N_8 
REMARK       I    between atoms: N_8  and  C_9 
REMARK       I    between atoms: C_9  and  N_11 
REMARK    2  A    between atoms: N_11  and  C_12 
ROOT
HETATM    1  N   UNL     1     -41.837 -49.976  11.533  1.00  0.00    -0.338 N 
HETATM    2  C   UNL     1     -42.456 -50.822  12.428  1.00  0.00     0.322 C 
HETATM    3  O   UNL     1     -42.867 -50.440  13.519  1.00  0.00    -0.247 OA
HETATM    4  N   UNL     1     -42.489 -52.116  11.975  1.00  0.00    -0.295 N 
HETATM    5  H   UNL     1     -41.956 -50.207  10.557  1.00  0.00     0.164 HD
HETATM    6  H   UNL     1     -41.668 -52.406  11.466  1.00  0.00     0.172 HD
ENDROOT
BRANCH   1   7
HETATM    7  C   UNL     1     -41.622 -48.580  11.894  1.00  0.00     0.089 C 
HETATM    8  C   UNL     1     -42.682 -47.623  11.295  1.00  0.00     0.004 C 
HETATM    9  C   UNL     1     -42.744 -47.662   9.764  1.00  0.00     0.012 C 
HETATM   10  C   UNL     1     -42.421 -46.195  11.804  1.00  0.00     0.006 C 
HETATM   11  C   UNL     1     -40.995 -45.719  11.532  1.00  0.00     0.001 C 
HETATM   12  C   UNL     1     -39.949 -46.702  12.053  1.00  0.00     0.002 C 
HETATM   13  C   UNL     1     -40.194 -48.130  11.569  1.00  0.00     0.026 C 
ENDBRANCH   1   7
BRANCH   4  14
HETATM   14  C   UNL     1     -42.995 -53.147  12.780  1.00  0.00     0.108 A 
HETATM   15  C   UNL     1     -44.268 -53.671  12.580  1.00  0.00     0.049 A 
HETATM   16  C   UNL     1     -44.754 -54.615  13.479  1.00  0.00     0.005 A 
HETATM   17  C   UNL     1     -43.958 -54.998  14.550  1.00  0.00     0.017 A 
HETATM   18  C   UNL     1     -42.687 -54.455  14.645  1.00  0.00     0.089 A 
HETATM   19  N   UNL     1     -42.174 -53.566  13.764  1.00  0.00    -0.352 N 
ATOM     20  HN  UNL     1     -41.214 -53.229  13.841  1.00  0.00     0.166 HD
ENDBRANCH   4  14
TORSDOF 2
ENDMDL
MODEL 7
REMARK VINA RESULT:      -5.5      4.434      7.240
REMARK  2 active torsions:
REMARK  status: ('A' for Active; 'I' for Inactive)
REMARK    1  A    between atoms: C_7  and  N_8 
REMARK       I    between atoms: N_8  and  C_9 
REMARK       I    between atoms: C_9  and  N_11 
REMARK    2  A    between atoms: N_11  and  C_12 
ROOT
HETATM    1  N   UNL     1     -42.976 -52.896  13.519  1.00  0.00    -0.338 N 
HETATM    2  C   UNL     1     -41.946 -51.981  13.556  1.00  0.00     0.322 C 
HETATM    3  O   UNL     1     -42.019 -50.933  14.193  1.00  0.00    -0.247 OA
HETATM    4  N   UNL     1     -40.894 -52.355  12.760  1.00  0.00    -0.295 N 
HETATM    5  H   UNL     1     -42.700 -53.861  13.401  1.00  0.00     0.164 HD
HETATM    6  H   UNL     1     -41.158 -52.810  11.898  1.00  0.00     0.172 HD
ENDROOT
BRANCH   1   7
HETATM    7  C   UNL     1     -44.218 -52.611  14.227  1.00  0.00     0.089 C 
HETATM    8  C   UNL     1     -44.858 -53.865  14.869  1.00  0.00     0.004 C 
HETATM    9  C   UNL     1     -45.190 -54.968  13.858  1.00  0.00     0.012 C 
HETATM   10  C   UNL     1     -46.108 -53.447  15.664  1.00  0.00     0.006 C 
HETATM   11  C   UNL     1     -47.108 -52.655  14.823  1.00  0.00     0.001 C 
HETATM   12  C   UNL     1     -46.459 -51.462  14.125  1.00  0.00     0.002 C 
HETATM   13  C   UNL     1     -45.208 -51.852  13.338  1.00  0.00     0.026 C 
ENDBRANCH   1   7
BRANCH   4  14
HETATM   14  C   UNL     1     -39.786 -51.513  12.588  1.00  0.00     0.108 A 
HETATM   15  C   UNL     1     -38.644 -51.641  13.373  1.00  0.00     0.049 A 
HETATM   16  C   UNL     1     -37.623 -50.708  13.228  1.00  0.00     0.005 A 
HETATM   17  C   UNL     1     -37.779 -49.674  12.315  1.00  0.00     0.017 A 
HETATM   18  C   UNL     1     -38.933 -49.651  11.547  1.00  0.00     0.089 A 
HETATM   19  N   UNL     1     -39.923 -50.567  11.637  1.00  0.00    -0.352 N 
ATOM     20  HN  UNL     1     -40.732 -50.544  11.017  1.00  0.00     0.166 HD
ENDBRANCH   4  14
TORSDOF 2
ENDMDL
MODEL 8
REMARK VINA RESULT:      -5.5      2.600      6.165
REMARK  2 active torsions:
REMARK  status: ('A' for Active; 'I' for Inactive)
REMARK    1  A    between atoms: C_7  and  N_8 
REMARK       I    between atoms: N_8  and  C_9 
REMARK       I    between atoms: C_9  and  N_11 
REMARK    2  A    between atoms: N_11  and  C_12 
ROOT
HETATM    1  N   UNL     1     -40.747 -48.416  10.969  1.00  0.00    -0.338 N 
HETATM    2  C   UNL     1     -41.305 -49.400  11.758  1.00  0.00     0.322 C 
HETATM    3  O   UNL     1     -41.916 -49.147  12.792  1.00  0.00    -0.247 OA
HETATM    4  N   UNL     1     -41.036 -50.657  11.280  1.00  0.00    -0.295 N 
HETATM    5  H   UNL     1     -40.695 -48.623   9.982  1.00  0.00     0.164 HD
HETATM    6  H   UNL     1     -40.117 -50.769  10.879  1.00  0.00     0.172 HD
ENDROOT
BRANCH   1   7
HETATM    7  C   UNL     1     -40.846 -47.022  11.382  1.00  0.00     0.089 C 
HETATM    8  C   UNL     1     -42.255 -46.418  11.166  1.00  0.00     0.004 C 
HETATM    9  C   UNL     1     -42.723 -46.464   9.708  1.00  0.00     0.012 C 
HETATM   10  C   UNL     1     -42.280 -44.980  11.712  1.00  0.00     0.006 C 
HETATM   11  C   UNL     1     -41.180 -44.101  11.120  1.00  0.00     0.001 C 
HETATM   12  C   UNL     1     -39.797 -44.733  11.261  1.00  0.00     0.002 C 
HETATM   13  C   UNL     1     -39.751 -46.167  10.735  1.00  0.00     0.026 C 
ENDBRANCH   1   7
BRANCH   4  14
HETATM   14  C   UNL     1     -41.438 -51.798  11.991  1.00  0.00     0.108 A 
HETATM   15  C   UNL     1     -40.512 -52.691  12.521  1.00  0.00     0.049 A 
HETATM   16  C   UNL     1     -40.974 -53.858  13.120  1.00  0.00     0.005 A 
HETATM   17  C   UNL     1     -42.340 -54.100  13.162  1.00  0.00     0.017 A 
HETATM   18  C   UNL     1     -43.189 -53.134  12.646  1.00  0.00     0.089 A 
HETATM   19  N   UNL     1     -42.771 -51.972  12.094  1.00  0.00    -0.352 N 
ATOM     20  HN  UNL     1     -43.430 -51.264  11.773  1.00  0.00     0.166 HD
ENDBRANCH   4  14
TORSDOF 2
ENDMDL
MODEL 9
REMARK VINA RESULT:      -5.0      3.790      5.412
REMARK  2 active torsions:
REMARK  status: ('A' for Active; 'I' for Inactive)
REMARK    1  A    between atoms: C_7  and  N_8 
REMARK       I    between atoms: N_8  and  C_9 
REMARK       I    between atoms: C_9  and  N_11 
REMARK    2  A    between atoms: N_11  and  C_12 
ROOT
HETATM    1  N   UNL     1     -40.802 -51.210  11.346  1.00  0.00    -0.338 N 
HETATM    2  C   UNL     1     -41.848 -51.500  12.196  1.00  0.00     0.322 C 
HETATM    3  O   UNL     1     -42.048 -50.872  13.232  1.00  0.00    -0.247 OA
HETATM    4  N   UNL     1     -42.568 -52.589  11.775  1.00  0.00    -0.295 N 
HETATM    5  H   UNL     1     -40.963 -51.410  10.369  1.00  0.00     0.164 HD
HETATM    6  H   UNL     1     -42.017 -53.323  11.357  1.00  0.00     0.172 HD
ENDROOT
BRANCH   1   7
HETATM    7  C   UNL     1     -39.869 -50.145  11.691  1.00  0.00     0.089 C 
HETATM    8  C   UNL     1     -38.539 -50.665  12.287  1.00  0.00     0.004 C 
HETATM    9  C   UNL     1     -38.723 -51.497  13.560  1.00  0.00     0.012 C 
HETATM   10  C   UNL     1     -37.593 -49.476  12.533  1.00  0.00     0.006 C 
HETATM   11  C   UNL     1     -38.224 -48.386  13.397  1.00  0.00     0.001 C 
HETATM   12  C   UNL     1     -39.575 -47.927  12.853  1.00  0.00     0.002 C 
HETATM   13  C   UNL     1     -40.528 -49.093  12.590  1.00  0.00     0.026 C 
ENDBRANCH   1   7
BRANCH   4  14
HETATM   14  C   UNL     1     -43.617 -53.101  12.552  1.00  0.00     0.108 A 
HETATM   15  C   UNL     1     -43.447 -54.219  13.363  1.00  0.00     0.049 A 
HETATM   16  C   UNL     1     -44.553 -54.742  14.023  1.00  0.00     0.005 A 
HETATM   17  C   UNL     1     -45.792 -54.141  13.845  1.00  0.00     0.017 A 
HETATM   18  C   UNL     1     -45.859 -53.007  13.052  1.00  0.00     0.089 A 
HETATM   19  N   UNL     1     -44.793 -52.452  12.431  1.00  0.00    -0.352 N 
ATOM     20  HN  UNL     1     -44.875 -51.587  11.898  1.00  0.00     0.166 HD
ENDBRANCH   4  14
TORSDOF 2
ENDMDL
