MODEL 1
REMARK VINA RESULT:      -4.9      0.000      0.000
REMARK  3 active torsions:
REMARK  status: ('A' for Active; 'I' for Inactive)
REMARK    1  A    between atoms: C_6  and  O_7 
REMARK    2  A    between atoms: C_6  and  C_8 
REMARK    3  A    between atoms: N_10  and  C_14 
ROOT
HETATM    1  C   UNL     3     -44.224 -46.982   9.322  1.00  0.00     0.069 A 
HETATM    2  C   UNL     3     -43.047 -47.443   9.876  1.00  0.00     0.137 A 
HETATM    3  N   UNL     3     -42.283 -46.357  10.092  1.00  0.00    -0.277 N 
HETATM    4  N   UNL     3     -42.958 -45.288   9.696  1.00  0.00    -0.020 NA
HETATM    5  N   UNL     3     -44.140 -45.642   9.214  1.00  0.00    -0.284 N 
ATOM      6  HN  UNL     3     -44.852 -45.018   8.834  1.00  0.00     0.184 HD
ENDROOT
BRANCH   3   7
HETATM    7  C   UNL     3     -40.952 -46.300  10.695  1.00  0.00     0.161 C 
HETATM    8  C   UNL     3     -40.911 -45.705  12.089  1.00  0.00     0.298 C 
HETATM    9  N   UNL     3     -39.786 -44.830  11.746  1.00  0.00     0.087 N 
HETATM   10  C   UNL     3     -40.070 -45.113  10.335  1.00  0.00     0.298 C 
HETATM   11  H   UNL     3     -38.906 -45.344  11.994  1.00  0.00     0.316 HD
ENDBRANCH   3   7
BRANCH   1  12
HETATM   12  C   UNL     3     -45.423 -47.798   8.923  1.00  0.00     0.166 C 
HETATM   13  C   UNL     3     -46.724 -47.010   9.086  1.00  0.00     0.046 C 
BRANCH  12  14
HETATM   14  O   UNL     3     -45.286 -48.261   7.603  1.00  0.00    -0.390 OA
HETATM   15  H   UNL     3     -44.457 -47.867   7.223  1.00  0.00     0.210 HD
ENDBRANCH  12  14
ENDBRANCH   1  12
TORSDOF 3
ENDMDL
MODEL 2
REMARK VINA RESULT:      -4.8      7.402      8.663
REMARK  3 active torsions:
REMARK  status: ('A' for Active; 'I' for Inactive)
REMARK    1  A    between atoms: C_6  and  O_7 
REMARK    2  A    between atoms: C_6  and  C_8 
REMARK    3  A    between atoms: N_10  and  C_14 
ROOT
HETATM    1  C   UNL     3     -43.065 -52.911  12.543  1.00  0.00     0.069 A 
HETATM    2  C   UNL     3     -44.027 -52.132  13.153  1.00  0.00     0.137 A 
HETATM    3  N   UNL     3     -45.171 -52.839  13.101  1.00  0.00    -0.277 N 
HETATM    4  N   UNL     3     -44.921 -53.991  12.496  1.00  0.00    -0.020 NA
HETATM    5  N   UNL     3     -43.647 -54.057  12.138  1.00  0.00    -0.284 N 
ATOM      6  HN  UNL     3     -43.194 -54.828  11.649  1.00  0.00     0.184 HD
ENDROOT
BRANCH   3   7
HETATM    7  C   UNL     3     -46.479 -52.470  13.639  1.00  0.00     0.161 C 
HETATM    8  C   UNL     3     -46.463 -51.296  14.599  1.00  0.00     0.298 C 
HETATM    9  N   UNL     3     -47.286 -52.011  15.580  1.00  0.00     0.087 N 
HETATM   10  C   UNL     3     -46.984 -53.245  14.848  1.00  0.00     0.298 C 
HETATM   11  H   UNL     3     -48.286 -51.769  15.380  1.00  0.00     0.316 HD
ENDBRANCH   3   7
BRANCH   1  12
HETATM   12  C   UNL     3     -41.607 -52.586  12.368  1.00  0.00     0.166 C 
HETATM   13  C   UNL     3     -40.713 -53.562  13.136  1.00  0.00     0.046 C 
BRANCH  12  14
HETATM   14  O   UNL     3     -41.266 -52.572  11.003  1.00  0.00    -0.390 OA
HETATM   15  H   UNL     3     -41.101 -53.508  10.717  1.00  0.00     0.210 HD
ENDBRANCH  12  14
ENDBRANCH   1  12
TORSDOF 3
ENDMDL
MODEL 3
REMARK VINA RESULT:      -4.6      1.564      1.759
REMARK  3 active torsions:
REMARK  status: ('A' for Active; 'I' for Inactive)
REMARK    1  A    between atoms: C_6  and  O_7 
REMARK    2  A    between atoms: C_6  and  C_8 
REMARK    3  A    between atoms: N_10  and  C_14 
ROOT
HETATM    1  C   UNL     3     -43.424 -46.943   9.510  1.00  0.00     0.069 A 
HETATM    2  C   UNL     3     -42.482 -46.039   9.957  1.00  0.00     0.137 A 
HETATM    3  N   UNL     3     -41.461 -46.769  10.442  1.00  0.00    -0.277 N 
HETATM    4  N   UNL     3     -41.760 -48.051  10.297  1.00  0.00    -0.020 NA
HETATM    5  N   UNL     3     -42.955 -48.185   9.740  1.00  0.00    -0.284 N 
ATOM      6  HN  UNL     3     -43.429 -49.062   9.525  1.00  0.00     0.184 HD
ENDROOT
BRANCH   3   7
HETATM    7  C   UNL     3     -40.200 -46.288  11.004  1.00  0.00     0.161 C 
HETATM    8  C   UNL     3     -40.340 -45.491  12.287  1.00  0.00     0.298 C 
HETATM    9  N   UNL     3     -39.461 -44.426  11.791  1.00  0.00     0.087 N 
HETATM   10  C   UNL     3     -39.634 -44.989  10.448  1.00  0.00     0.298 C 
HETATM   11  H   UNL     3     -38.487 -44.659  12.101  1.00  0.00     0.316 HD
ENDBRANCH   3   7
BRANCH   1  12
HETATM   12  C   UNL     3     -44.741 -46.635   8.853  1.00  0.00     0.166 C 
HETATM   13  C   UNL     3     -45.839 -47.598   9.307  1.00  0.00     0.046 C 
BRANCH  12  14
HETATM   14  O   UNL     3     -45.115 -45.303   9.101  1.00  0.00    -0.390 OA
HETATM   15  H   UNL     3     -44.331 -44.723   8.916  1.00  0.00     0.210 HD
ENDBRANCH  12  14
ENDBRANCH   1  12
TORSDOF 3
ENDMDL
MODEL 4
REMARK VINA RESULT:      -4.6      2.716      3.234
REMARK  3 active torsions:
REMARK  status: ('A' for Active; 'I' for Inactive)
REMARK    1  A    between atoms: C_6  and  O_7 
REMARK    2  A    between atoms: C_6  and  C_8 
REMARK    3  A    between atoms: N_10  and  C_14 
ROOT
HETATM    1  C   UNL     3     -42.587 -46.516   9.720  1.00  0.00     0.069 A 
HETATM    2  C   UNL     3     -42.459 -47.736  10.352  1.00  0.00     0.137 A 
HETATM    3  N   UNL     3     -41.271 -47.707  10.984  1.00  0.00    -0.277 N 
HETATM    4  N   UNL     3     -40.705 -46.532  10.753  1.00  0.00    -0.020 NA
HETATM    5  N   UNL     3     -41.482 -45.790   9.979  1.00  0.00    -0.284 N 
ATOM      6  HN  UNL     3     -41.282 -44.848   9.642  1.00  0.00     0.184 HD
ENDROOT
BRANCH   3   7
HETATM    7  C   UNL     3     -40.676 -48.745  11.825  1.00  0.00     0.161 C 
HETATM    8  C   UNL     3     -39.163 -48.829  11.754  1.00  0.00     0.298 C 
HETATM    9  N   UNL     3     -39.194 -50.284  11.575  1.00  0.00     0.087 N 
HETATM   10  C   UNL     3     -40.621 -50.158  11.262  1.00  0.00     0.298 C 
HETATM   11  H   UNL     3     -39.123 -50.715  12.528  1.00  0.00     0.316 HD
ENDBRANCH   3   7
BRANCH   1  12
HETATM   12  C   UNL     3     -43.754 -46.034   8.901  1.00  0.00     0.166 C 
HETATM   13  C   UNL     3     -44.990 -46.912   9.106  1.00  0.00     0.046 C 
BRANCH  12  14
HETATM   14  O   UNL     3     -44.044 -44.691   9.200  1.00  0.00    -0.390 OA
HETATM   15  H   UNL     3     -43.185 -44.215   9.344  1.00  0.00     0.210 HD
ENDBRANCH  12  14
ENDBRANCH   1  12
TORSDOF 3
ENDMDL
MODEL 5
REMARK VINA RESULT:      -4.5      4.493      5.533
REMARK  3 active torsions:
REMARK  status: ('A' for Active; 'I' for Inactive)
REMARK    1  A    between atoms: C_6  and  O_7 
REMARK    2  A    between atoms: C_6  and  C_8 
REMARK    3  A    between atoms: N_10  and  C_14 
ROOT
HETATM    1  C   UNL     3     -41.255 -51.285  12.011  1.00  0.00     0.069 A 
HETATM    2  C   UNL     3     -42.254 -50.487  12.530  1.00  0.00     0.137 A 
HETATM    3  N   UNL     3     -42.151 -49.300  11.904  1.00  0.00    -0.277 N 
HETATM    4  N   UNL     3     -41.144 -49.369  11.045  1.00  0.00    -0.020 NA
HETATM    5  N   UNL     3     -40.576 -50.565  11.096  1.00  0.00    -0.284 N 
ATOM      6  HN  UNL     3     -39.776 -50.880  10.548  1.00  0.00     0.184 HD
ENDROOT
BRANCH   3   7
HETATM    7  C   UNL     3     -42.997 -48.120  12.071  1.00  0.00     0.161 C 
HETATM    8  C   UNL     3     -43.579 -47.570  10.783  1.00  0.00     0.298 C 
HETATM    9  N   UNL     3     -43.185 -46.198  11.123  1.00  0.00     0.087 N 
HETATM   10  C   UNL     3     -42.306 -46.767  12.150  1.00  0.00     0.298 C 
HETATM   11  H   UNL     3     -43.996 -45.756  11.619  1.00  0.00     0.316 HD
ENDBRANCH   3   7
BRANCH   1  12
HETATM   12  C   UNL     3     -40.962 -52.718  12.358  1.00  0.00     0.166 C 
HETATM   13  C   UNL     3     -42.164 -53.398  13.018  1.00  0.00     0.046 C 
BRANCH  12  14
HETATM   14  O   UNL     3     -40.556 -53.429  11.215  1.00  0.00    -0.390 OA
HETATM   15  H   UNL     3     -40.681 -52.840  10.426  1.00  0.00     0.210 HD
ENDBRANCH  12  14
ENDBRANCH   1  12
TORSDOF 3
ENDMDL
MODEL 6
REMARK VINA RESULT:      -4.5      5.840      6.278
REMARK  3 active torsions:
REMARK  status: ('A' for Active; 'I' for Inactive)
REMARK    1  A    between atoms: C_6  and  O_7 
REMARK    2  A    between atoms: C_6  and  C_8 
REMARK    3  A    between atoms: N_10  and  C_14 
ROOT
HETATM    1  C   UNL     3     -44.439 -52.397  12.825  1.00  0.00     0.069 A 
HETATM    2  C   UNL     3     -43.641 -51.351  13.242  1.00  0.00     0.137 A 
HETATM    3  N   UNL     3     -42.426 -51.569  12.706  1.00  0.00    -0.277 N 
HETATM    4  N   UNL     3     -42.479 -52.686  11.996  1.00  0.00    -0.020 NA
HETATM    5  N   UNL     3     -43.692 -53.215  12.059  1.00  0.00    -0.284 N 
ATOM      6  HN  UNL     3     -44.001 -54.078  11.611  1.00  0.00     0.184 HD
ENDROOT
BRANCH   3   7
HETATM    7  C   UNL     3     -41.232 -50.732  12.819  1.00  0.00     0.161 C 
HETATM    8  C   UNL     3     -40.858 -49.988  11.551  1.00  0.00     0.298 C 
HETATM    9  N   UNL     3     -39.454 -50.402  11.654  1.00  0.00     0.087 N 
HETATM   10  C   UNL     3     -39.882 -51.409  12.630  1.00  0.00     0.298 C 
HETATM   11  H   UNL     3     -38.948 -49.653  12.184  1.00  0.00     0.316 HD
ENDBRANCH   3   7
BRANCH   1  12
HETATM   12  C   UNL     3     -45.897 -52.606  13.128  1.00  0.00     0.166 C 
HETATM   13  C   UNL     3     -46.475 -51.454  13.952  1.00  0.00     0.046 C 
BRANCH  12  14
HETATM   14  O   UNL     3     -46.627 -52.780  11.939  1.00  0.00    -0.390 OA
HETATM   15  H   UNL     3     -45.981 -52.926  11.200  1.00  0.00     0.210 HD
ENDBRANCH  12  14
ENDBRANCH   1  12
TORSDOF 3
ENDMDL
MODEL 7
REMARK VINA RESULT:      -4.4      6.059      7.670
REMARK  3 active torsions:
REMARK  status: ('A' for Active; 'I' for Inactive)
REMARK    1  A    between atoms: C_6  and  O_7 
REMARK    2  A    between atoms: C_6  and  C_8 
REMARK    3  A    between atoms: N_10  and  C_14 
ROOT
HETATM    1  C   UNL     3     -41.590 -51.113  12.046  1.00  0.00     0.069 A 
HETATM    2  C   UNL     3     -42.665 -50.846  12.870  1.00  0.00     0.137 A 
HETATM    3  N   UNL     3     -43.397 -51.974  12.911  1.00  0.00    -0.277 N 
HETATM    4  N   UNL     3     -42.801 -52.885  12.155  1.00  0.00    -0.020 NA
HETATM    5  N   UNL     3     -41.702 -52.383  11.610  1.00  0.00    -0.284 N 
ATOM      6  HN  UNL     3     -41.063 -52.867  10.980  1.00  0.00     0.184 HD
ENDROOT
BRANCH   3   7
HETATM    7  C   UNL     3     -44.621 -52.224  13.671  1.00  0.00     0.161 C 
HETATM    8  C   UNL     3     -45.295 -53.548  13.370  1.00  0.00     0.298 C 
HETATM    9  N   UNL     3     -46.609 -52.913  13.227  1.00  0.00     0.087 N 
HETATM   10  C   UNL     3     -45.913 -51.626  13.134  1.00  0.00     0.298 C 
HETATM   11  H   UNL     3     -47.074 -52.947  14.166  1.00  0.00     0.316 HD
ENDBRANCH   3   7
BRANCH   1  12
HETATM   12  C   UNL     3     -40.459 -50.186  11.695  1.00  0.00     0.166 C 
HETATM   13  C   UNL     3     -39.131 -50.666  12.285  1.00  0.00     0.046 C 
BRANCH  12  14
HETATM   14  O   UNL     3     -40.358 -50.038  10.301  1.00  0.00    -0.390 OA
HETATM   15  H   UNL     3     -39.424 -49.781  10.085  1.00  0.00     0.210 HD
ENDBRANCH  12  14
ENDBRANCH   1  12
TORSDOF 3
ENDMDL
MODEL 8
REMARK VINA RESULT:      -4.4      8.175      9.533
REMARK  3 active torsions:
REMARK  status: ('A' for Active; 'I' for Inactive)
REMARK    1  A    between atoms: C_6  and  O_7 
REMARK    2  A    between atoms: C_6  and  C_8 
REMARK    3  A    between atoms: N_10  and  C_14 
ROOT
HETATM    1  C   UNL     3     -40.856 -53.628  13.548  1.00  0.00     0.069 A 
HETATM    2  C   UNL     3     -42.070 -54.273  13.666  1.00  0.00     0.137 A 
HETATM    3  N   UNL     3     -42.923 -53.619  12.856  1.00  0.00    -0.277 N 
HETATM    4  N   UNL     3     -42.265 -52.629  12.271  1.00  0.00    -0.020 NA
HETATM    5  N   UNL     3     -41.006 -52.607  12.681  1.00  0.00    -0.284 N 
ATOM      6  HN  UNL     3     -40.286 -51.943  12.396  1.00  0.00     0.184 HD
ENDROOT
BRANCH   3   7
HETATM    7  C   UNL     3     -44.329 -53.927  12.596  1.00  0.00     0.161 C 
HETATM    8  C   UNL     3     -45.296 -52.808  12.932  1.00  0.00     0.298 C 
HETATM    9  N   UNL     3     -46.186 -53.718  13.661  1.00  0.00     0.087 N 
HETATM   10  C   UNL     3     -45.090 -54.692  13.669  1.00  0.00     0.298 C 
HETATM   11  H   UNL     3     -46.902 -54.064  12.977  1.00  0.00     0.316 HD
ENDBRANCH   3   7
BRANCH   1  12
HETATM   12  C   UNL     3     -39.564 -53.989  14.228  1.00  0.00     0.166 C 
HETATM   13  C   UNL     3     -39.802 -54.819  15.491  1.00  0.00     0.046 C 
BRANCH  12  14
HETATM   14  O   UNL     3     -38.714 -54.671  13.339  1.00  0.00    -0.390 OA
HETATM   15  H   UNL     3     -38.756 -55.639  13.555  1.00  0.00     0.210 HD
ENDBRANCH  12  14
ENDBRANCH   1  12
TORSDOF 3
ENDMDL
MODEL 9
REMARK VINA RESULT:      -4.4      6.572      7.024
REMARK  3 active torsions:
REMARK  status: ('A' for Active; 'I' for Inactive)
REMARK    1  A    between atoms: C_6  and  O_7 
REMARK    2  A    between atoms: C_6  and  C_8 
REMARK    3  A    between atoms: N_10  and  C_14 
ROOT
HETATM    1  C   UNL     3     -44.479 -52.245  12.771  1.00  0.00     0.069 A 
HETATM    2  C   UNL     3     -43.449 -53.153  12.626  1.00  0.00     0.137 A 
HETATM    3  N   UNL     3     -42.313 -52.432  12.611  1.00  0.00    -0.277 N 
HETATM    4  N   UNL     3     -42.630 -51.152  12.744  1.00  0.00    -0.020 NA
HETATM    5  N   UNL     3     -43.944 -51.010  12.834  1.00  0.00    -0.284 N 
ATOM      6  HN  UNL     3     -44.454 -50.133  12.934  1.00  0.00     0.184 HD
ENDROOT
BRANCH   3   7
HETATM    7  C   UNL     3     -40.939 -52.922  12.511  1.00  0.00     0.161 C 
HETATM    8  C   UNL     3     -40.671 -54.214  13.259  1.00  0.00     0.298 C 
HETATM    9  N   UNL     3     -39.456 -53.672  13.877  1.00  0.00     0.087 N 
HETATM   10  C   UNL     3     -39.915 -52.339  13.473  1.00  0.00     0.298 C 
HETATM   11  H   UNL     3     -38.652 -53.925  13.253  1.00  0.00     0.316 HD
ENDBRANCH   3   7
BRANCH   1  12
HETATM   12  C   UNL     3     -45.949 -52.546  12.872  1.00  0.00     0.166 C 
HETATM   13  C   UNL     3     -46.667 -51.555  13.791  1.00  0.00     0.046 C 
BRANCH  12  14
HETATM   14  O   UNL     3     -46.539 -52.555  11.596  1.00  0.00    -0.390 OA
HETATM   15  H   UNL     3     -45.880 -52.929  10.954  1.00  0.00     0.210 HD
ENDBRANCH  12  14
ENDBRANCH   1  12
TORSDOF 3
ENDMDL
