MODEL 1
REMARK VINA RESULT:      -6.9      0.000      0.000
REMARK  3 active torsions:
REMARK  status: ('A' for Active; 'I' for Inactive)
REMARK    1  A    between atoms: C_4  and  N_5 
REMARK       I    between atoms: N_5  and  C_6 
REMARK       I    between atoms: C_6  and  N_8 
REMARK    2  A    between atoms: N_8  and  C_9 
REMARK    3  A    between atoms: C_12  and  C_15 
ROOT
HETATM    1  N   UNL     1     -41.504 -47.852  10.183  1.00  0.00    -0.293 N 
HETATM    2  C   UNL     1     -41.078 -48.703  11.167  1.00  0.00     0.322 C 
HETATM    3  O   UNL     1     -39.901 -48.693  11.520  1.00  0.00    -0.247 OA
HETATM    4  N   UNL     1     -42.003 -49.576  11.651  1.00  0.00    -0.338 N 
HETATM    5  H   UNL     1     -40.776 -47.277   9.791  1.00  0.00     0.172 HD
HETATM    6  H   UNL     1     -42.967 -49.386  11.394  1.00  0.00     0.164 HD
ENDROOT
BRANCH   4   7
HETATM    7  C   UNL     1     -41.739 -50.667  12.560  1.00  0.00     0.086 C 
HETATM    8  C   UNL     1     -42.769 -50.722  13.688  1.00  0.00     0.026 C 
HETATM    9  C   UNL     1     -42.518 -51.918  14.604  1.00  0.00     0.015 C 
HETATM   10  C   UNL     1     -42.477 -53.256  13.852  1.00  0.00     0.093 C 
HETATM   11  C   UNL     1     -41.485 -53.187  12.680  1.00  0.00     0.015 C 
HETATM   12  C   UNL     1     -41.726 -51.984  11.773  1.00  0.00     0.026 C 
BRANCH  10  13
HETATM   13  C   UNL     1     -43.867 -53.751  13.428  1.00  0.00     0.391 C 
HETATM   14  F   UNL     1     -44.861 -52.957  13.879  1.00  0.00    -0.171 F 
HETATM   15  F   UNL     1     -44.003 -53.847  12.089  1.00  0.00    -0.171 F 
HETATM   16  F   UNL     1     -44.090 -54.988  13.935  1.00  0.00    -0.171 F 
ENDBRANCH  10  13
ENDBRANCH   4   7
BRANCH   1  17
HETATM   17  C   UNL     1     -42.750 -47.838   9.586  1.00  0.00     0.132 A 
HETATM   18  C   UNL     1     -43.945 -47.412  10.212  1.00  0.00     0.084 A 
HETATM   19  C   UNL     1     -44.886 -47.453   9.213  1.00  0.00     0.076 A 
HETATM   20  C   UNL     1     -46.301 -47.066   9.092  1.00  0.00     0.079 C 
HETATM   21  O   UNL     1     -44.319 -47.945   8.084  1.00  0.00    -0.241 OA
HETATM   22  N   UNL     1     -42.988 -48.190   8.316  1.00  0.00    -0.245 N 
ATOM     23  HN  UNL     1     -42.312 -48.567   7.651  1.00  0.00     0.196 HD
ENDBRANCH   1  17
TORSDOF 3
ENDMDL
MODEL 2
REMARK VINA RESULT:      -6.5      3.053      3.835
REMARK  3 active torsions:
REMARK  status: ('A' for Active; 'I' for Inactive)
REMARK    1  A    between atoms: C_4  and  N_5 
REMARK       I    between atoms: N_5  and  C_6 
REMARK       I    between atoms: C_6  and  N_8 
REMARK    2  A    between atoms: N_8  and  C_9 
REMARK    3  A    between atoms: C_12  and  C_15 
ROOT
HETATM    1  N   UNL     1     -40.076 -51.108  11.575  1.00  0.00    -0.293 N 
HETATM    2  C   UNL     1     -40.812 -52.060  12.227  1.00  0.00     0.322 C 
HETATM    3  O   UNL     1     -40.464 -53.238  12.188  1.00  0.00    -0.247 OA
HETATM    4  N   UNL     1     -41.951 -51.631  12.834  1.00  0.00    -0.338 N 
HETATM    5  H   UNL     1     -39.284 -51.471  11.069  1.00  0.00     0.172 HD
HETATM    6  H   UNL     1     -42.050 -50.625  12.927  1.00  0.00     0.164 HD
ENDROOT
BRANCH   4   7
HETATM    7  C   UNL     1     -42.961 -52.476  13.428  1.00  0.00     0.086 C 
HETATM    8  C   UNL     1     -43.280 -52.049  14.861  1.00  0.00     0.026 C 
HETATM    9  C   UNL     1     -44.394 -52.908  15.455  1.00  0.00     0.015 C 
HETATM   10  C   UNL     1     -45.671 -52.915  14.602  1.00  0.00     0.093 C 
HETATM   11  C   UNL     1     -45.347 -53.287  13.147  1.00  0.00     0.015 C 
HETATM   12  C   UNL     1     -44.223 -52.439  12.557  1.00  0.00     0.026 C 
BRANCH  10  13
HETATM   13  C   UNL     1     -46.480 -51.615  14.720  1.00  0.00     0.391 C 
HETATM   14  F   UNL     1     -45.772 -50.612  15.281  1.00  0.00    -0.171 F 
HETATM   15  F   UNL     1     -46.934 -51.172  13.528  1.00  0.00    -0.171 F 
HETATM   16  F   UNL     1     -47.567 -51.819  15.503  1.00  0.00    -0.171 F 
ENDBRANCH  10  13
ENDBRANCH   4   7
BRANCH   1  17
HETATM   17  C   UNL     1     -40.408 -49.777  11.411  1.00  0.00     0.132 A 
HETATM   18  C   UNL     1     -40.003 -48.728  12.269  1.00  0.00     0.084 A 
HETATM   19  C   UNL     1     -40.455 -47.588  11.650  1.00  0.00     0.076 A 
HETATM   20  C   UNL     1     -40.325 -46.142  11.896  1.00  0.00     0.079 C 
HETATM   21  O   UNL     1     -41.153 -47.928  10.539  1.00  0.00    -0.241 OA
HETATM   22  N   UNL     1     -41.129 -49.294  10.391  1.00  0.00    -0.245 N 
ATOM     23  HN  UNL     1     -41.573 -49.835   9.649  1.00  0.00     0.196 HD
ENDBRANCH   1  17
TORSDOF 3
ENDMDL
MODEL 3
REMARK VINA RESULT:      -6.5      1.802      2.220
REMARK  3 active torsions:
REMARK  status: ('A' for Active; 'I' for Inactive)
REMARK    1  A    between atoms: C_4  and  N_5 
REMARK       I    between atoms: N_5  and  C_6 
REMARK       I    between atoms: C_6  and  N_8 
REMARK    2  A    between atoms: N_8  and  C_9 
REMARK    3  A    between atoms: C_12  and  C_15 
ROOT
HETATM    1  N   UNL     1     -41.959 -46.695   9.739  1.00  0.00    -0.293 N 
HETATM    2  C   UNL     1     -41.192 -47.200  10.755  1.00  0.00     0.322 C 
HETATM    3  O   UNL     1     -40.133 -46.654  11.055  1.00  0.00    -0.247 OA
HETATM    4  N   UNL     1     -41.639 -48.348  11.333  1.00  0.00    -0.338 N 
HETATM    5  H   UNL     1     -41.559 -45.893   9.279  1.00  0.00     0.172 HD
HETATM    6  H   UNL     1     -42.592 -48.614  11.107  1.00  0.00     0.164 HD
ENDROOT
BRANCH   4   7
HETATM    7  C   UNL     1     -40.914 -49.144  12.297  1.00  0.00     0.086 C 
HETATM    8  C   UNL     1     -41.862 -49.902  13.227  1.00  0.00     0.026 C 
HETATM    9  C   UNL     1     -41.085 -50.790  14.197  1.00  0.00     0.015 C 
HETATM   10  C   UNL     1     -40.134 -51.767  13.491  1.00  0.00     0.093 C 
HETATM   11  C   UNL     1     -39.218 -51.017  12.511  1.00  0.00     0.015 C 
HETATM   12  C   UNL     1     -39.992 -50.117  11.551  1.00  0.00     0.026 C 
BRANCH  10  13
HETATM   13  C   UNL     1     -40.862 -52.951  12.839  1.00  0.00     0.391 C 
HETATM   14  F   UNL     1     -41.119 -52.747  11.530  1.00  0.00    -0.171 F 
HETATM   15  F   UNL     1     -40.175 -54.109  12.941  1.00  0.00    -0.171 F 
HETATM   16  F   UNL     1     -42.056 -53.149  13.450  1.00  0.00    -0.171 F 
ENDBRANCH  10  13
ENDBRANCH   4   7
BRANCH   1  17
HETATM   17  C   UNL     1     -43.093 -47.268   9.198  1.00  0.00     0.132 A 
HETATM   18  C   UNL     1     -44.380 -47.231   9.785  1.00  0.00     0.084 A 
HETATM   19  C   UNL     1     -45.199 -47.808   8.845  1.00  0.00     0.076 A 
HETATM   20  C   UNL     1     -46.649 -48.024   8.713  1.00  0.00     0.079 C 
HETATM   21  O   UNL     1     -44.450 -48.237   7.800  1.00  0.00    -0.241 OA
HETATM   22  N   UNL     1     -43.135 -47.905   8.020  1.00  0.00    -0.245 N 
ATOM     23  HN  UNL     1     -42.344 -48.104   7.406  1.00  0.00     0.196 HD
ENDBRANCH   1  17
TORSDOF 3
ENDMDL
MODEL 4
REMARK VINA RESULT:      -6.2      3.880      6.447
REMARK  3 active torsions:
REMARK  status: ('A' for Active; 'I' for Inactive)
REMARK    1  A    between atoms: C_4  and  N_5 
REMARK       I    between atoms: N_5  and  C_6 
REMARK       I    between atoms: C_6  and  N_8 
REMARK    2  A    between atoms: N_8  and  C_9 
REMARK    3  A    between atoms: C_12  and  C_15 
ROOT
HETATM    1  N   UNL     1     -41.636 -53.720  13.036  1.00  0.00    -0.293 N 
HETATM    2  C   UNL     1     -41.114 -52.476  12.801  1.00  0.00     0.322 C 
HETATM    3  O   UNL     1     -39.897 -52.305  12.840  1.00  0.00    -0.247 OA
HETATM    4  N   UNL     1     -42.011 -51.473  12.602  1.00  0.00    -0.338 N 
HETATM    5  H   UNL     1     -40.949 -54.422  13.259  1.00  0.00     0.172 HD
HETATM    6  H   UNL     1     -42.970 -51.764  12.442  1.00  0.00     0.164 HD
ENDROOT
BRANCH   4   7
HETATM    7  C   UNL     1     -41.696 -50.066  12.507  1.00  0.00     0.086 C 
HETATM    8  C   UNL     1     -41.110 -49.713  11.140  1.00  0.00     0.026 C 
HETATM    9  C   UNL     1     -40.842 -48.213  11.028  1.00  0.00     0.015 C 
HETATM   10  C   UNL     1     -42.084 -47.355  11.316  1.00  0.00     0.093 C 
HETATM   11  C   UNL     1     -42.711 -47.748  12.664  1.00  0.00     0.015 C 
HETATM   12  C   UNL     1     -42.964 -49.249  12.782  1.00  0.00     0.026 C 
BRANCH  10  13
HETATM   13  C   UNL     1     -43.098 -47.358  10.163  1.00  0.00     0.391 C 
HETATM   14  F   UNL     1     -42.699 -48.119   9.122  1.00  0.00    -0.171 F 
HETATM   15  F   UNL     1     -44.318 -47.796  10.540  1.00  0.00    -0.171 F 
HETATM   16  F   UNL     1     -43.262 -46.098   9.692  1.00  0.00    -0.171 F 
ENDBRANCH  10  13
ENDBRANCH   4   7
BRANCH   1  17
HETATM   17  C   UNL     1     -42.973 -54.042  13.163  1.00  0.00     0.132 A 
HETATM   18  C   UNL     1     -43.643 -54.258  14.391  1.00  0.00     0.084 A 
HETATM   19  C   UNL     1     -44.961 -54.420  14.036  1.00  0.00     0.076 A 
HETATM   20  C   UNL     1     -46.228 -54.582  14.766  1.00  0.00     0.079 C 
HETATM   21  O   UNL     1     -45.068 -54.385  12.685  1.00  0.00    -0.241 OA
HETATM   22  N   UNL     1     -43.829 -54.153  12.138  1.00  0.00    -0.245 N 
ATOM     23  HN  UNL     1     -43.604 -54.080  11.146  1.00  0.00     0.196 HD
ENDBRANCH   1  17
TORSDOF 3
ENDMDL
MODEL 5
REMARK VINA RESULT:      -6.1      6.216      8.050
REMARK  3 active torsions:
REMARK  status: ('A' for Active; 'I' for Inactive)
REMARK    1  A    between atoms: C_4  and  N_5 
REMARK       I    between atoms: N_5  and  C_6 
REMARK       I    between atoms: C_6  and  N_8 
REMARK    2  A    between atoms: N_8  and  C_9 
REMARK    3  A    between atoms: C_12  and  C_15 
ROOT
HETATM    1  N   UNL     1     -41.482 -47.785  10.153  1.00  0.00    -0.293 N 
HETATM    2  C   UNL     1     -40.922 -46.792  10.911  1.00  0.00     0.322 C 
HETATM    3  O   UNL     1     -39.862 -46.993  11.500  1.00  0.00    -0.247 OA
HETATM    4  N   UNL     1     -41.636 -45.639  11.016  1.00  0.00    -0.338 N 
HETATM    5  H   UNL     1     -40.968 -48.652  10.162  1.00  0.00     0.172 HD
HETATM    6  H   UNL     1     -42.411 -45.539  10.368  1.00  0.00     0.164 HD
ENDROOT
BRANCH   4   7
HETATM    7  C   UNL     1     -41.327 -44.532  11.891  1.00  0.00     0.086 C 
HETATM    8  C   UNL     1     -40.371 -43.540  11.228  1.00  0.00     0.026 C 
HETATM    9  C   UNL     1     -40.104 -42.343  12.137  1.00  0.00     0.015 C 
HETATM   10  C   UNL     1     -41.387 -41.629  12.588  1.00  0.00     0.093 C 
HETATM   11  C   UNL     1     -42.376 -42.632  13.203  1.00  0.00     0.015 C 
HETATM   12  C   UNL     1     -42.631 -43.837  12.302  1.00  0.00     0.026 C 
BRANCH  10  13
HETATM   13  C   UNL     1     -42.018 -40.771  11.482  1.00  0.00     0.391 C 
HETATM   14  F   UNL     1     -43.304 -40.453  11.741  1.00  0.00    -0.171 F 
HETATM   15  F   UNL     1     -41.351 -39.617  11.269  1.00  0.00    -0.171 F 
HETATM   16  F   UNL     1     -42.008 -41.451  10.310  1.00  0.00    -0.171 F 
ENDBRANCH  10  13
ENDBRANCH   4   7
BRANCH   1  17
HETATM   17  C   UNL     1     -42.723 -47.761   9.549  1.00  0.00     0.132 A 
HETATM   18  C   UNL     1     -43.945 -47.503  10.214  1.00  0.00     0.084 A 
HETATM   19  C   UNL     1     -44.878 -47.455   9.207  1.00  0.00     0.076 A 
HETATM   20  C   UNL     1     -46.314 -47.141   9.124  1.00  0.00     0.079 C 
HETATM   21  O   UNL     1     -44.277 -47.744   8.026  1.00  0.00    -0.241 OA
HETATM   22  N   UNL     1     -42.934 -47.940   8.238  1.00  0.00    -0.245 N 
ATOM     23  HN  UNL     1     -42.233 -48.174   7.534  1.00  0.00     0.196 HD
ENDBRANCH   1  17
TORSDOF 3
ENDMDL
MODEL 6
REMARK VINA RESULT:      -6.1      2.049      2.480
REMARK  3 active torsions:
REMARK  status: ('A' for Active; 'I' for Inactive)
REMARK    1  A    between atoms: C_4  and  N_5 
REMARK       I    between atoms: N_5  and  C_6 
REMARK       I    between atoms: C_6  and  N_8 
REMARK    2  A    between atoms: N_8  and  C_9 
REMARK    3  A    between atoms: C_12  and  C_15 
ROOT
HETATM    1  N   UNL     1     -39.160 -49.390  11.362  1.00  0.00    -0.293 N 
HETATM    2  C   UNL     1     -39.120 -50.505  12.156  1.00  0.00     0.322 C 
HETATM    3  O   UNL     1     -38.085 -51.162  12.238  1.00  0.00    -0.247 OA
HETATM    4  N   UNL     1     -40.286 -50.856  12.763  1.00  0.00    -0.338 N 
HETATM    5  H   UNL     1     -38.304 -49.205  10.865  1.00  0.00     0.172 HD
HETATM    6  H   UNL     1     -41.022 -50.157  12.742  1.00  0.00     0.164 HD
ENDROOT
BRANCH   4   7
HETATM    7  C   UNL     1     -40.520 -52.076  13.501  1.00  0.00     0.086 C 
HETATM    8  C   UNL     1     -41.586 -51.886  14.579  1.00  0.00     0.026 C 
HETATM    9  C   UNL     1     -41.871 -53.198  15.307  1.00  0.00     0.015 C 
HETATM   10  C   UNL     1     -42.266 -54.341  14.360  1.00  0.00     0.093 C 
HETATM   11  C   UNL     1     -41.225 -54.497  13.240  1.00  0.00     0.015 C 
HETATM   12  C   UNL     1     -40.929 -53.184  12.522  1.00  0.00     0.026 C 
BRANCH  10  13
HETATM   13  C   UNL     1     -43.701 -54.213  13.829  1.00  0.00     0.391 C 
HETATM   14  F   UNL     1     -44.346 -53.137  14.327  1.00  0.00    -0.171 F 
HETATM   15  F   UNL     1     -43.755 -54.128  12.482  1.00  0.00    -0.171 F 
HETATM   16  F   UNL     1     -44.421 -55.305  14.182  1.00  0.00    -0.171 F 
ENDBRANCH  10  13
ENDBRANCH   4   7
BRANCH   1  17
HETATM   17  C   UNL     1     -40.275 -48.633  11.061  1.00  0.00     0.132 A 
HETATM   18  C   UNL     1     -40.539 -47.338  11.567  1.00  0.00     0.084 A 
HETATM   19  C   UNL     1     -41.672 -46.937  10.904  1.00  0.00     0.076 A 
HETATM   20  C   UNL     1     -42.462 -45.696  10.838  1.00  0.00     0.079 C 
HETATM   21  O   UNL     1     -42.109 -47.947  10.112  1.00  0.00    -0.241 OA
HETATM   22  N   UNL     1     -41.242 -49.008  10.212  1.00  0.00    -0.245 N 
ATOM     23  HN  UNL     1     -41.318 -49.905   9.734  1.00  0.00     0.196 HD
ENDBRANCH   1  17
TORSDOF 3
ENDMDL
MODEL 7
REMARK VINA RESULT:      -6.0      4.054      6.145
REMARK  3 active torsions:
REMARK  status: ('A' for Active; 'I' for Inactive)
REMARK    1  A    between atoms: C_4  and  N_5 
REMARK       I    between atoms: N_5  and  C_6 
REMARK       I    between atoms: C_6  and  N_8 
REMARK    2  A    between atoms: N_8  and  C_9 
REMARK    3  A    between atoms: C_12  and  C_15 
ROOT
HETATM    1  N   UNL     1     -41.931 -52.793  12.449  1.00  0.00    -0.293 N 
HETATM    2  C   UNL     1     -41.124 -51.746  12.089  1.00  0.00     0.322 C 
HETATM    3  O   UNL     1     -39.903 -51.880  12.104  1.00  0.00    -0.247 OA
HETATM    4  N   UNL     1     -41.751 -50.574  11.798  1.00  0.00    -0.338 N 
HETATM    5  H   UNL     1     -41.433 -53.620  12.736  1.00  0.00     0.172 HD
HETATM    6  H   UNL     1     -42.757 -50.630  11.673  1.00  0.00     0.164 HD
ENDROOT
BRANCH   4   7
HETATM    7  C   UNL     1     -41.100 -49.306  11.563  1.00  0.00     0.086 C 
HETATM    8  C   UNL     1     -41.988 -48.360  10.754  1.00  0.00     0.026 C 
HETATM    9  C   UNL     1     -41.316 -47.001  10.568  1.00  0.00     0.015 C 
HETATM   10  C   UNL     1     -40.906 -46.344  11.894  1.00  0.00     0.093 C 
HETATM   11  C   UNL     1     -40.062 -47.313  12.738  1.00  0.00     0.015 C 
HETATM   12  C   UNL     1     -40.725 -48.677  12.911  1.00  0.00     0.026 C 
BRANCH  10  13
HETATM   13  C   UNL     1     -42.095 -45.759  12.670  1.00  0.00     0.391 C 
HETATM   14  F   UNL     1     -43.235 -46.455  12.476  1.00  0.00    -0.171 F 
HETATM   15  F   UNL     1     -41.876 -45.703  14.000  1.00  0.00    -0.171 F 
HETATM   16  F   UNL     1     -42.332 -44.490  12.258  1.00  0.00    -0.171 F 
ENDBRANCH  10  13
ENDBRANCH   4   7
BRANCH   1  17
HETATM   17  C   UNL     1     -43.302 -52.758  12.614  1.00  0.00     0.132 A 
HETATM   18  C   UNL     1     -43.979 -52.035  13.625  1.00  0.00     0.084 A 
HETATM   19  C   UNL     1     -45.310 -52.192  13.322  1.00  0.00     0.076 A 
HETATM   20  C   UNL     1     -46.574 -51.659  13.856  1.00  0.00     0.079 C 
HETATM   21  O   UNL     1     -45.432 -53.015  12.252  1.00  0.00    -0.241 OA
HETATM   22  N   UNL     1     -44.181 -53.373  11.812  1.00  0.00    -0.245 N 
ATOM     23  HN  UNL     1     -43.962 -53.988  11.027  1.00  0.00     0.196 HD
ENDBRANCH   1  17
TORSDOF 3
ENDMDL
MODEL 8
REMARK VINA RESULT:      -5.9      4.546      6.294
REMARK  3 active torsions:
REMARK  status: ('A' for Active; 'I' for Inactive)
REMARK    1  A    between atoms: C_4  and  N_5 
REMARK       I    between atoms: N_5  and  C_6 
REMARK       I    between atoms: C_6  and  N_8 
REMARK    2  A    between atoms: N_8  and  C_9 
REMARK    3  A    between atoms: C_12  and  C_15 
ROOT
HETATM    1  N   UNL     1     -43.395 -53.005  11.763  1.00  0.00    -0.293 N 
HETATM    2  C   UNL     1     -44.525 -53.068  12.534  1.00  0.00     0.322 C 
HETATM    3  O   UNL     1     -45.632 -53.084  11.999  1.00  0.00    -0.247 OA
HETATM    4  N   UNL     1     -44.339 -53.036  13.881  1.00  0.00    -0.338 N 
HETATM    5  H   UNL     1     -43.572 -52.948  10.773  1.00  0.00     0.172 HD
HETATM    6  H   UNL     1     -43.385 -53.176  14.198  1.00  0.00     0.164 HD
ENDROOT
BRANCH   4   7
HETATM    7  C   UNL     1     -45.381 -52.920  14.874  1.00  0.00     0.086 C 
HETATM    8  C   UNL     1     -44.822 -53.035  16.292  1.00  0.00     0.026 C 
HETATM    9  C   UNL     1     -45.923 -52.845  17.334  1.00  0.00     0.015 C 
HETATM   10  C   UNL     1     -46.690 -51.525  17.168  1.00  0.00     0.093 C 
HETATM   11  C   UNL     1     -47.205 -51.377  15.727  1.00  0.00     0.015 C 
HETATM   12  C   UNL     1     -46.108 -51.583  14.685  1.00  0.00     0.026 C 
BRANCH  10  13
HETATM   13  C   UNL     1     -45.894 -50.302  17.645  1.00  0.00     0.391 C 
HETATM   14  F   UNL     1     -45.120 -49.774  16.674  1.00  0.00    -0.171 F 
HETATM   15  F   UNL     1     -46.684 -49.314  18.115  1.00  0.00    -0.171 F 
HETATM   16  F   UNL     1     -45.067 -50.659  18.659  1.00  0.00    -0.171 F 
ENDBRANCH  10  13
ENDBRANCH   4   7
BRANCH   1  17
HETATM   17  C   UNL     1     -42.099 -52.842  12.212  1.00  0.00     0.132 A 
HETATM   18  C   UNL     1     -41.544 -51.622  12.666  1.00  0.00     0.084 A 
HETATM   19  C   UNL     1     -40.295 -51.965  13.123  1.00  0.00     0.076 A 
HETATM   20  C   UNL     1     -39.203 -51.258  13.811  1.00  0.00     0.079 C 
HETATM   21  O   UNL     1     -40.079 -53.283  12.889  1.00  0.00    -0.241 OA
HETATM   22  N   UNL     1     -41.201 -53.831  12.316  1.00  0.00    -0.245 N 
ATOM     23  HN  UNL     1     -41.327 -54.801  12.027  1.00  0.00     0.196 HD
ENDBRANCH   1  17
TORSDOF 3
ENDMDL
MODEL 9
REMARK VINA RESULT:      -5.9      4.044      6.651
REMARK  3 active torsions:
REMARK  status: ('A' for Active; 'I' for Inactive)
REMARK    1  A    between atoms: C_4  and  N_5 
REMARK       I    between atoms: N_5  and  C_6 
REMARK       I    between atoms: C_6  and  N_8 
REMARK    2  A    between atoms: N_8  and  C_9 
REMARK    3  A    between atoms: C_12  and  C_15 
ROOT
HETATM    1  N   UNL     1     -39.404 -52.373  13.540  1.00  0.00    -0.293 N 
HETATM    2  C   UNL     1     -40.584 -51.875  13.056  1.00  0.00     0.322 C 
HETATM    3  O   UNL     1     -40.614 -50.760  12.540  1.00  0.00    -0.247 OA
HETATM    4  N   UNL     1     -41.688 -52.646  13.249  1.00  0.00    -0.338 N 
HETATM    5  H   UNL     1     -38.623 -51.742  13.454  1.00  0.00     0.172 HD
HETATM    6  H   UNL     1     -41.513 -53.602  13.545  1.00  0.00     0.164 HD
ENDROOT
BRANCH   4   7
HETATM    7  C   UNL     1     -43.051 -52.252  12.978  1.00  0.00     0.086 C 
HETATM    8  C   UNL     1     -43.936 -53.460  12.669  1.00  0.00     0.026 C 
HETATM    9  C   UNL     1     -45.387 -53.036  12.449  1.00  0.00     0.015 C 
HETATM   10  C   UNL     1     -45.967 -52.235  13.624  1.00  0.00     0.093 C 
HETATM   11  C   UNL     1     -45.050 -51.053  13.977  1.00  0.00     0.015 C 
HETATM   12  C   UNL     1     -43.597 -51.473  14.182  1.00  0.00     0.026 C 
BRANCH  10  13
HETATM   13  C   UNL     1     -46.305 -53.111  14.839  1.00  0.00     0.391 C 
HETATM   14  F   UNL     1     -46.689 -54.357  14.491  1.00  0.00    -0.171 F 
HETATM   15  F   UNL     1     -45.274 -53.231  15.702  1.00  0.00    -0.171 F 
HETATM   16  F   UNL     1     -47.333 -52.559  15.531  1.00  0.00    -0.171 F 
ENDBRANCH  10  13
ENDBRANCH   4   7
BRANCH   1  17
HETATM   17  C   UNL     1     -39.235 -53.538  14.262  1.00  0.00     0.132 A 
HETATM   18  C   UNL     1     -39.465 -53.671  15.652  1.00  0.00     0.084 A 
HETATM   19  C   UNL     1     -39.294 -55.012  15.898  1.00  0.00     0.076 A 
HETATM   20  C   UNL     1     -39.462 -55.891  17.067  1.00  0.00     0.079 C 
HETATM   21  O   UNL     1     -38.910 -55.632  14.755  1.00  0.00    -0.241 OA
HETATM   22  N   UNL     1     -38.868 -54.713  13.735  1.00  0.00    -0.245 N 
ATOM     23  HN  UNL     1     -38.609 -54.890  12.764  1.00  0.00     0.196 HD
ENDBRANCH   1  17
TORSDOF 3
ENDMDL
